MODEL 1
REMARK VINA RESULT:      -7.2      0.000      0.000
REMARK  Name = 
REMARK  8 active torsions:
REMARK  status: ('A' for Active; 'I' for Inactive)
REMARK    1  A    between atoms: C_1  and  C_2
REMARK    2  A    between atoms: C_5  and  C_6
REMARK    3  A    between atoms: N_9  and  C_10
REMARK    4  A    between atoms: C_10  and  C_11
REMARK    5  A    between atoms: C_11  and  C_12
REMARK    6  A    between atoms: C_12  and  N_13
REMARK    7  A    between atoms: C_19  and  O_20
REMARK    8  A    between atoms: C_21  and  C_22
REMARK                            x       y       z     vdW  Elec       q    Type
REMARK                         _______ _______ _______ _____ _____    ______ ____
ROOT
ATOM      1  C   UNL     1       3.362   5.920  19.240  0.00  0.00    +0.000 A 
ATOM      2  N   UNL     1       4.647   6.202  18.874  0.00  0.00    +0.000 NA
ATOM      3  C   UNL     1       5.528   5.198  18.779  0.00  0.00    +0.000 A 
ATOM      4  N   UNL     1       6.836   5.540  18.502  0.00  0.00    +0.000 N 
ATOM      5  N   UNL     1       5.225   3.920  19.013  0.00  0.00    +0.000 NA
ATOM      6  C   UNL     1       3.965   3.680  19.386  0.00  0.00    +0.000 A 
ATOM      7  C   UNL     1       2.979   4.621  19.541  0.00  0.00    +0.000 A 
ATOM      8  H   UNL     1       6.881   6.514  18.222  0.00  0.00    +0.000 HD
ENDROOT
BRANCH   1  13
ATOM      9  C   UNL     1       0.143  10.779  19.583  0.00  0.00    +0.000 C 
ATOM     10  C   UNL     1       0.907   9.492  19.484  0.00  0.00    +0.000 A 
ATOM     11  C   UNL     1       1.099   8.690  20.609  0.00  0.00    +0.000 A 
ATOM     12  C   UNL     1       1.842   7.507  20.518  0.00  0.00    +0.000 A 
ATOM     13  C   UNL     1       2.466   7.108  19.323  0.00  0.00    +0.000 A 
ATOM     14  C   UNL     1       2.213   7.903  18.188  0.00  0.00    +0.000 A 
ATOM     15  C   UNL     1       1.444   9.073  18.266  0.00  0.00    +0.000 A 
ENDBRANCH   1  13
BRANCH   6  16
ATOM     16  O   UNL     1       3.731   2.363  19.629  0.00  0.00    +0.000 OA
ATOM     17  H   UNL     1       3.449   2.380  20.560  0.00  0.00    +0.000 HD
ENDBRANCH   6  16
BRANCH   7  18
ATOM     18  C   UNL     1       1.697   4.237  20.023  0.00  0.00    +0.000 C 
ATOM     19  N   UNL     1       0.644   3.947  20.417  0.00  0.00    +0.000 NA
ENDBRANCH   7  18
BRANCH   4  20
ATOM     20  C   UNL     1       7.633   4.601  17.733  0.00  0.00    +0.000 C 
BRANCH  20  21
ATOM     21  C   UNL     1       7.517   4.923  16.247  0.00  0.00    +0.000 C 
BRANCH  21  22
ATOM     22  C   UNL     1       6.439   4.082  15.565  0.00  0.00    +0.000 C 
BRANCH  22  23
ATOM     23  N   UNL     1       6.576   4.101  14.124  0.00  0.00    +0.000 N 
ATOM     24  C   UNL     1       7.489   4.814  13.403  0.00  0.00    +0.000 A 
ATOM     25  C   UNL     1       7.223   4.499  12.091  0.00  0.00    +0.000 A 
ATOM     26  N   UNL     1       6.170   3.625  12.003  0.00  0.00    +0.000 NA
ATOM     27  C   UNL     1       5.796   3.408  13.243  0.00  0.00    +0.000 A 
ENDBRANCH  22  23
ENDBRANCH  21  22
ENDBRANCH  20  21
ENDBRANCH   4  20
TORSDOF 7
ENDMDL
MODEL 2
REMARK VINA RESULT:      -7.0      2.775      7.890
REMARK  Name = 
REMARK  8 active torsions:
REMARK  status: ('A' for Active; 'I' for Inactive)
REMARK    1  A    between atoms: C_1  and  C_2
REMARK    2  A    between atoms: C_5  and  C_6
REMARK    3  A    between atoms: N_9  and  C_10
REMARK    4  A    between atoms: C_10  and  C_11
REMARK    5  A    between atoms: C_11  and  C_12
REMARK    6  A    between atoms: C_12  and  N_13
REMARK    7  A    between atoms: C_19  and  O_20
REMARK    8  A    between atoms: C_21  and  C_22
REMARK                            x       y       z     vdW  Elec       q    Type
REMARK                         _______ _______ _______ _____ _____    ______ ____
ROOT
ATOM      1  C   UNL     1       3.662   5.231  18.837  0.00  0.00    +0.000 A 
ATOM      2  N   UNL     1       3.119   6.476  18.982  0.00  0.00    +0.000 NA
ATOM      3  C   UNL     1       2.244   6.689  19.974  0.00  0.00    +0.000 A 
ATOM      4  N   UNL     1       1.648   7.933  20.022  0.00  0.00    +0.000 N 
ATOM      5  N   UNL     1       1.870   5.753  20.847  0.00  0.00    +0.000 NA
ATOM      6  C   UNL     1       2.405   4.542  20.667  0.00  0.00    +0.000 A 
ATOM      7  C   UNL     1       3.292   4.193  19.680  0.00  0.00    +0.000 A 
ATOM      8  H   UNL     1       2.127   8.564  19.388  0.00  0.00    +0.000 HD
ENDROOT
BRANCH   1  13
ATOM      9  C   UNL     1       7.253   5.005  14.239  0.00  0.00    +0.000 C 
ATOM     10  C   UNL     1       6.369   5.007  15.451  0.00  0.00    +0.000 A 
ATOM     11  C   UNL     1       5.254   4.172  15.519  0.00  0.00    +0.000 A 
ATOM     12  C   UNL     1       4.412   4.202  16.637  0.00  0.00    +0.000 A 
ATOM     13  C   UNL     1       4.616   5.099  17.700  0.00  0.00    +0.000 A 
ATOM     14  C   UNL     1       5.778   5.893  17.636  0.00  0.00    +0.000 A 
ATOM     15  C   UNL     1       6.642   5.846  16.532  0.00  0.00    +0.000 A 
ENDBRANCH   1  13
BRANCH   6  16
ATOM     16  O   UNL     1       1.965   3.634  21.578  0.00  0.00    +0.000 OA
ATOM     17  H   UNL     1       1.039   3.510  21.301  0.00  0.00    +0.000 HD
ENDBRANCH   6  16
BRANCH   7  18
ATOM     18  C   UNL     1       3.722   2.844  19.554  0.00  0.00    +0.000 C 
ATOM     19  N   UNL     1       4.089   1.746  19.469  0.00  0.00    +0.000 NA
ENDBRANCH   7  18
BRANCH   4  20
ATOM     20  C   UNL     1       1.292   8.462  21.327  0.00  0.00    +0.000 C 
BRANCH  20  21
ATOM     21  C   UNL     1      -0.137   8.994  21.294  0.00  0.00    +0.000 C 
BRANCH  21  22
ATOM     22  C   UNL     1      -0.336  10.018  20.178  0.00  0.00    +0.000 C 
BRANCH  22  23
ATOM     23  N   UNL     1       0.263  11.295  20.507  0.00  0.00    +0.000 N 
ATOM     24  C   UNL     1       1.226  11.949  19.795  0.00  0.00    +0.000 A 
ATOM     25  C   UNL     1       1.458  13.106  20.501  0.00  0.00    +0.000 A 
ATOM     26  N   UNL     1       0.671  13.160  21.622  0.00  0.00    +0.000 NA
ATOM     27  C   UNL     1      -0.035  12.052  21.604  0.00  0.00    +0.000 A 
ENDBRANCH  22  23
ENDBRANCH  21  22
ENDBRANCH  20  21
ENDBRANCH   4  20
TORSDOF 7
ENDMDL
MODEL 3
REMARK VINA RESULT:      -7.0      0.494      1.242
REMARK  Name = 
REMARK  8 active torsions:
REMARK  status: ('A' for Active; 'I' for Inactive)
REMARK    1  A    between atoms: C_1  and  C_2
REMARK    2  A    between atoms: C_5  and  C_6
REMARK    3  A    between atoms: N_9  and  C_10
REMARK    4  A    between atoms: C_10  and  C_11
REMARK    5  A    between atoms: C_11  and  C_12
REMARK    6  A    between atoms: C_12  and  N_13
REMARK    7  A    between atoms: C_19  and  O_20
REMARK    8  A    between atoms: C_21  and  C_22
REMARK                            x       y       z     vdW  Elec       q    Type
REMARK                         _______ _______ _______ _____ _____    ______ ____
ROOT
ATOM      1  C   UNL     1       3.354   5.870  19.393  0.00  0.00    +0.000 A 
ATOM      2  N   UNL     1       4.648   6.146  19.055  0.00  0.00    +0.000 NA
ATOM      3  C   UNL     1       5.500   5.128  18.874  0.00  0.00    +0.000 A 
ATOM      4  N   UNL     1       6.818   5.456  18.629  0.00  0.00    +0.000 N 
ATOM      5  N   UNL     1       5.159   3.845  18.994  0.00  0.00    +0.000 NA
ATOM      6  C   UNL     1       3.891   3.609  19.344  0.00  0.00    +0.000 A 
ATOM      7  C   UNL     1       2.932   4.562  19.579  0.00  0.00    +0.000 A 
ATOM      8  H   UNL     1       6.891   6.449  18.436  0.00  0.00    +0.000 HD
ENDROOT
BRANCH   1  13
ATOM      9  C   UNL     1      -0.307  10.369  20.064  0.00  0.00    +0.000 C 
ATOM     10  C   UNL     1       0.690   9.259  19.911  0.00  0.00    +0.000 A 
ATOM     11  C   UNL     1       1.365   9.070  18.706  0.00  0.00    +0.000 A 
ATOM     12  C   UNL     1       2.269   8.012  18.556  0.00  0.00    +0.000 A 
ATOM     13  C   UNL     1       2.492   7.072  19.578  0.00  0.00    +0.000 A 
ATOM     14  C   UNL     1       1.843   7.314  20.804  0.00  0.00    +0.000 A 
ATOM     15  C   UNL     1       0.959   8.390  20.970  0.00  0.00    +0.000 A 
ENDBRANCH   1  13
BRANCH   6  16
ATOM     16  O   UNL     1       3.619   2.283  19.470  0.00  0.00    +0.000 OA
ATOM     17  H   UNL     1       2.708   2.236  19.131  0.00  0.00    +0.000 HD
ENDBRANCH   6  16
BRANCH   7  18
ATOM     18  C   UNL     1       1.638   4.175  20.024  0.00  0.00    +0.000 C 
ATOM     19  N   UNL     1       0.577   3.849  20.366  0.00  0.00    +0.000 NA
ENDBRANCH   7  18
BRANCH   4  20
ATOM     20  C   UNL     1       7.591   4.565  17.781  0.00  0.00    +0.000 C 
BRANCH  20  21
ATOM     21  C   UNL     1       7.484   5.015  16.328  0.00  0.00    +0.000 C 
BRANCH  21  22
ATOM     22  C   UNL     1       6.380   4.269  15.582  0.00  0.00    +0.000 C 
BRANCH  22  23
ATOM     23  N   UNL     1       6.626   4.233  14.155  0.00  0.00    +0.000 N 
ATOM     24  C   UNL     1       6.009   3.426  13.245  0.00  0.00    +0.000 A 
ATOM     25  C   UNL     1       6.575   3.763  12.037  0.00  0.00    +0.000 A 
ATOM     26  N   UNL     1       7.521   4.742  12.199  0.00  0.00    +0.000 NA
ATOM     27  C   UNL     1       7.536   5.001  13.487  0.00  0.00    +0.000 A 
ENDBRANCH  22  23
ENDBRANCH  21  22
ENDBRANCH  20  21
ENDBRANCH   4  20
TORSDOF 7
ENDMDL
MODEL 4
REMARK VINA RESULT:      -7.0      2.818      7.644
REMARK  Name = 
REMARK  8 active torsions:
REMARK  status: ('A' for Active; 'I' for Inactive)
REMARK    1  A    between atoms: C_1  and  C_2
REMARK    2  A    between atoms: C_5  and  C_6
REMARK    3  A    between atoms: N_9  and  C_10
REMARK    4  A    between atoms: C_10  and  C_11
REMARK    5  A    between atoms: C_11  and  C_12
REMARK    6  A    between atoms: C_12  and  N_13
REMARK    7  A    between atoms: C_19  and  O_20
REMARK    8  A    between atoms: C_21  and  C_22
REMARK                            x       y       z     vdW  Elec       q    Type
REMARK                         _______ _______ _______ _____ _____    ______ ____
ROOT
ATOM      1  C   UNL     1       3.681   5.181  18.829  0.00  0.00    +0.000 A 
ATOM      2  N   UNL     1       3.062   6.396  18.901  0.00  0.00    +0.000 NA
ATOM      3  C   UNL     1       2.208   6.628  19.907  0.00  0.00    +0.000 A 
ATOM      4  N   UNL     1       1.532   7.832  19.886  0.00  0.00    +0.000 N 
ATOM      5  N   UNL     1       1.926   5.740  20.861  0.00  0.00    +0.000 NA
ATOM      6  C   UNL     1       2.534   4.555  20.752  0.00  0.00    +0.000 A 
ATOM      7  C   UNL     1       3.409   4.189  19.761  0.00  0.00    +0.000 A 
ATOM      8  H   UNL     1       1.946   8.441  19.189  0.00  0.00    +0.000 HD
ENDROOT
BRANCH   1  13
ATOM      9  C   UNL     1       7.133   4.841  14.133  0.00  0.00    +0.000 C 
ATOM     10  C   UNL     1       6.288   4.875  15.372  0.00  0.00    +0.000 A 
ATOM     11  C   UNL     1       5.209   4.004  15.521  0.00  0.00    +0.000 A 
ATOM     12  C   UNL     1       4.402   4.063  16.663  0.00  0.00    +0.000 A 
ATOM     13  C   UNL     1       4.604   5.024  17.670  0.00  0.00    +0.000 A 
ATOM     14  C   UNL     1       5.731   5.855  17.525  0.00  0.00    +0.000 A 
ATOM     15  C   UNL     1       6.562   5.781  16.398  0.00  0.00    +0.000 A 
ENDBRANCH   1  13
BRANCH   6  16
ATOM     16  O   UNL     1       2.186   3.693  21.744  0.00  0.00    +0.000 OA
ATOM     17  H   UNL     1       1.337   4.067  22.041  0.00  0.00    +0.000 HD
ENDBRANCH   6  16
BRANCH   7  18
ATOM     18  C   UNL     1       3.924   2.864  19.719  0.00  0.00    +0.000 C 
ATOM     19  N   UNL     1       4.333   1.779  19.664  0.00  0.00    +0.000 NA
ENDBRANCH   7  18
BRANCH   4  20
ATOM     20  C   UNL     1       1.184   8.435  21.160  0.00  0.00    +0.000 C 
BRANCH  20  21
ATOM     21  C   UNL     1       0.125   9.511  20.948  0.00  0.00    +0.000 C 
BRANCH  21  22
ATOM     22  C   UNL     1       0.404  10.345  19.700  0.00  0.00    +0.000 C 
BRANCH  22  23
ATOM     23  N   UNL     1      -0.807  10.615  18.952  0.00  0.00    +0.000 N 
ATOM     24  C   UNL     1      -1.201  10.006  17.797  0.00  0.00    +0.000 A 
ATOM     25  C   UNL     1      -2.404  10.595  17.484  0.00  0.00    +0.000 A 
ATOM     26  N   UNL     1      -2.738  11.546  18.412  0.00  0.00    +0.000 NA
ATOM     27  C   UNL     1      -1.754  11.542  19.282  0.00  0.00    +0.000 A 
ENDBRANCH  22  23
ENDBRANCH  21  22
ENDBRANCH  20  21
ENDBRANCH   4  20
TORSDOF 7
ENDMDL
MODEL 5
REMARK VINA RESULT:      -6.9      1.153      1.817
REMARK  Name = 
REMARK  8 active torsions:
REMARK  status: ('A' for Active; 'I' for Inactive)
REMARK    1  A    between atoms: C_1  and  C_2
REMARK    2  A    between atoms: C_5  and  C_6
REMARK    3  A    between atoms: N_9  and  C_10
REMARK    4  A    between atoms: C_10  and  C_11
REMARK    5  A    between atoms: C_11  and  C_12
REMARK    6  A    between atoms: C_12  and  N_13
REMARK    7  A    between atoms: C_19  and  O_20
REMARK    8  A    between atoms: C_21  and  C_22
REMARK                            x       y       z     vdW  Elec       q    Type
REMARK                         _______ _______ _______ _____ _____    ______ ____
ROOT
ATOM      1  C   UNL     1       3.264   6.022  18.399  0.00  0.00    +0.000 A 
ATOM      2  N   UNL     1       4.444   6.278  17.762  0.00  0.00    +0.000 NA
ATOM      3  C   UNL     1       5.211   5.248  17.382  0.00  0.00    +0.000 A 
ATOM      4  N   UNL     1       6.439   5.555  16.830  0.00  0.00    +0.000 N 
ATOM      5  N   UNL     1       4.887   3.969  17.580  0.00  0.00    +0.000 NA
ATOM      6  C   UNL     1       3.736   3.752  18.221  0.00  0.00    +0.000 A 
ATOM      7  C   UNL     1       2.877   4.719  18.679  0.00  0.00    +0.000 A 
ATOM      8  H   UNL     1       6.480   6.548  16.626  0.00  0.00    +0.000 HD
ENDROOT
BRANCH   1  13
ATOM      9  C   UNL     1      -0.060  10.583  19.894  0.00  0.00    +0.000 C 
ATOM     10  C   UNL     1       0.854   9.454  19.523  0.00  0.00    +0.000 A 
ATOM     11  C   UNL     1       1.323   9.318  18.216  0.00  0.00    +0.000 A 
ATOM     12  C   UNL     1       2.148   8.243  17.866  0.00  0.00    +0.000 A 
ATOM     13  C   UNL     1       2.491   7.236  18.786  0.00  0.00    +0.000 A 
ATOM     14  C   UNL     1       2.053   7.423  20.111  0.00  0.00    +0.000 A 
ATOM     15  C   UNL     1       1.251   8.514  20.475  0.00  0.00    +0.000 A 
ENDBRANCH   1  13
BRANCH   6  16
ATOM     16  O   UNL     1       3.480   2.431  18.407  0.00  0.00    +0.000 OA
ATOM     17  H   UNL     1       3.515   2.357  19.378  0.00  0.00    +0.000 HD
ENDBRANCH   6  16
BRANCH   7  18
ATOM     18  C   UNL     1       1.720   4.351  19.420  0.00  0.00    +0.000 C 
ATOM     19  N   UNL     1       0.789   4.036  20.039  0.00  0.00    +0.000 NA
ENDBRANCH   7  18
BRANCH   4  20
ATOM     20  C   UNL     1       6.971   4.656  15.822  0.00  0.00    +0.000 C 
BRANCH  20  21
ATOM     21  C   UNL     1       6.352   4.978  14.466  0.00  0.00    +0.000 C 
BRANCH  21  22
ATOM     22  C   UNL     1       7.078   4.265  13.327  0.00  0.00    +0.000 C 
BRANCH  22  23
ATOM     23  N   UNL     1       6.163   3.505  12.500  0.00  0.00    +0.000 N 
ATOM     24  C   UNL     1       4.852   3.795  12.261  0.00  0.00    +0.000 A 
ATOM     25  C   UNL     1       4.419   2.794  11.423  0.00  0.00    +0.000 A 
ATOM     26  N   UNL     1       5.429   1.906  11.161  0.00  0.00    +0.000 NA
ATOM     27  C   UNL     1       6.468   2.355  11.829  0.00  0.00    +0.000 A 
ENDBRANCH  22  23
ENDBRANCH  21  22
ENDBRANCH  20  21
ENDBRANCH   4  20
TORSDOF 7
ENDMDL
MODEL 6
REMARK VINA RESULT:      -6.9      3.967      8.285
REMARK  Name = 
REMARK  8 active torsions:
REMARK  status: ('A' for Active; 'I' for Inactive)
REMARK    1  A    between atoms: C_1  and  C_2
REMARK    2  A    between atoms: C_5  and  C_6
REMARK    3  A    between atoms: N_9  and  C_10
REMARK    4  A    between atoms: C_10  and  C_11
REMARK    5  A    between atoms: C_11  and  C_12
REMARK    6  A    between atoms: C_12  and  N_13
REMARK    7  A    between atoms: C_19  and  O_20
REMARK    8  A    between atoms: C_21  and  C_22
REMARK                            x       y       z     vdW  Elec       q    Type
REMARK                         _______ _______ _______ _____ _____    ______ ____
ROOT
ATOM      1  C   UNL     1       2.503   7.399  18.611  0.00  0.00    +0.000 A 
ATOM      2  N   UNL     1       2.177   8.581  18.010  0.00  0.00    +0.000 NA
ATOM      3  C   UNL     1       1.421   9.460  18.680  0.00  0.00    +0.000 A 
ATOM      4  N   UNL     1       1.036  10.597  17.999  0.00  0.00    +0.000 N 
ATOM      5  N   UNL     1       0.967   9.257  19.918  0.00  0.00    +0.000 NA
ATOM      6  C   UNL     1       1.288   8.084  20.470  0.00  0.00    +0.000 A 
ATOM      7  C   UNL     1       2.034   7.095  19.881  0.00  0.00    +0.000 A 
ATOM      8  H   UNL     1       1.561  10.669  17.134  0.00  0.00    +0.000 HD
ENDROOT
BRANCH   1  13
ATOM      9  C   UNL     1       5.944   3.730  15.647  0.00  0.00    +0.000 C 
ATOM     10  C   UNL     1       5.024   4.687  16.344  0.00  0.00    +0.000 A 
ATOM     11  C   UNL     1       5.314   6.050  16.387  0.00  0.00    +0.000 A 
ATOM     12  C   UNL     1       4.470   6.935  17.068  0.00  0.00    +0.000 A 
ATOM     13  C   UNL     1       3.340   6.489  17.778  0.00  0.00    +0.000 A 
ATOM     14  C   UNL     1       3.036   5.118  17.675  0.00  0.00    +0.000 A 
ATOM     15  C   UNL     1       3.861   4.232  16.968  0.00  0.00    +0.000 A 
ENDBRANCH   1  13
BRANCH   6  16
ATOM     16  O   UNL     1       0.775   7.936  21.721  0.00  0.00    +0.000 OA
ATOM     17  H   UNL     1       0.625   8.861  21.984  0.00  0.00    +0.000 HD
ENDBRANCH   6  16
BRANCH   7  18
ATOM     18  C   UNL     1       2.234   5.858  20.553  0.00  0.00    +0.000 C 
ATOM     19  N   UNL     1       2.418   4.844  21.089  0.00  0.00    +0.000 NA
ENDBRANCH   7  18
BRANCH   4  20
ATOM     20  C   UNL     1       0.863  11.819  18.764  0.00  0.00    +0.000 C 
BRANCH  20  21
ATOM     21  C   UNL     1      -0.486  12.449  18.432  0.00  0.00    +0.000 C 
BRANCH  21  22
ATOM     22  C   UNL     1      -1.650  11.578  18.900  0.00  0.00    +0.000 C 
BRANCH  22  23
ATOM     23  N   UNL     1      -2.644  11.407  17.860  0.00  0.00    +0.000 N 
ATOM     24  C   UNL     1      -2.412  11.038  16.567  0.00  0.00    +0.000 A 
ATOM     25  C   UNL     1      -3.656  11.009  15.982  0.00  0.00    +0.000 A 
ATOM     26  N   UNL     1      -4.627  11.360  16.884  0.00  0.00    +0.000 NA
ATOM     27  C   UNL     1      -3.988  11.601  18.006  0.00  0.00    +0.000 A 
ENDBRANCH  22  23
ENDBRANCH  21  22
ENDBRANCH  20  21
ENDBRANCH   4  20
TORSDOF 7
ENDMDL
MODEL 7
REMARK VINA RESULT:      -6.9      3.095      8.622
REMARK  Name = 
REMARK  8 active torsions:
REMARK  status: ('A' for Active; 'I' for Inactive)
REMARK    1  A    between atoms: C_1  and  C_2
REMARK    2  A    between atoms: C_5  and  C_6
REMARK    3  A    between atoms: N_9  and  C_10
REMARK    4  A    between atoms: C_10  and  C_11
REMARK    5  A    between atoms: C_11  and  C_12
REMARK    6  A    between atoms: C_12  and  N_13
REMARK    7  A    between atoms: C_19  and  O_20
REMARK    8  A    between atoms: C_21  and  C_22
REMARK                            x       y       z     vdW  Elec       q    Type
REMARK                         _______ _______ _______ _____ _____    ______ ____
ROOT
ATOM      1  C   UNL     1       3.727   5.250  18.814  0.00  0.00    +0.000 A 
ATOM      2  N   UNL     1       3.158   6.487  18.920  0.00  0.00    +0.000 NA
ATOM      3  C   UNL     1       2.298   6.720  19.920  0.00  0.00    +0.000 A 
ATOM      4  N   UNL     1       1.673   7.951  19.931  0.00  0.00    +0.000 N 
ATOM      5  N   UNL     1       1.964   5.812  20.838  0.00  0.00    +0.000 NA
ATOM      6  C   UNL     1       2.523   4.608  20.696  0.00  0.00    +0.000 A 
ATOM      7  C   UNL     1       3.398   4.239  19.706  0.00  0.00    +0.000 A 
ATOM      8  H   UNL     1       2.124   8.567  19.262  0.00  0.00    +0.000 HD
ENDROOT
BRANCH   1  13
ATOM      9  C   UNL     1       7.272   4.952  14.185  0.00  0.00    +0.000 C 
ATOM     10  C   UNL     1       6.394   4.966  15.400  0.00  0.00    +0.000 A 
ATOM     11  C   UNL     1       5.196   4.252  15.421  0.00  0.00    +0.000 A 
ATOM     12  C   UNL     1       4.363   4.296  16.545  0.00  0.00    +0.000 A 
ATOM     13  C   UNL     1       4.662   5.094  17.664  0.00  0.00    +0.000 A 
ATOM     14  C   UNL     1       5.901   5.762  17.644  0.00  0.00    +0.000 A 
ATOM     15  C   UNL     1       6.755   5.698  16.533  0.00  0.00    +0.000 A 
ENDBRANCH   1  13
BRANCH   6  16
ATOM     16  O   UNL     1       2.123   3.727  21.652  0.00  0.00    +0.000 OA
ATOM     17  H   UNL     1       2.835   3.064  21.619  0.00  0.00    +0.000 HD
ENDBRANCH   6  16
BRANCH   7  18
ATOM     18  C   UNL     1       3.859   2.896  19.625  0.00  0.00    +0.000 C 
ATOM     19  N   UNL     1       4.220   1.794  19.578  0.00  0.00    +0.000 NA
ENDBRANCH   7  18
BRANCH   4  20
ATOM     20  C   UNL     1       1.330   8.524  21.220  0.00  0.00    +0.000 C 
BRANCH  20  21
ATOM     21  C   UNL     1      -0.046   9.176  21.144  0.00  0.00    +0.000 C 
BRANCH  21  22
ATOM     22  C   UNL     1       0.050  10.698  21.049  0.00  0.00    +0.000 C 
BRANCH  22  23
ATOM     23  N   UNL     1      -1.050  11.349  21.729  0.00  0.00    +0.000 N 
ATOM     24  C   UNL     1      -1.923  12.247  21.188  0.00  0.00    +0.000 A 
ATOM     25  C   UNL     1      -2.777  12.569  22.217  0.00  0.00    +0.000 A 
ATOM     26  N   UNL     1      -2.435  11.899  23.362  0.00  0.00    +0.000 NA
ATOM     27  C   UNL     1      -1.387  11.176  23.042  0.00  0.00    +0.000 A 
ENDBRANCH  22  23
ENDBRANCH  21  22
ENDBRANCH  20  21
ENDBRANCH   4  20
TORSDOF 7
ENDMDL
MODEL 8
REMARK VINA RESULT:      -6.9      2.806      7.603
REMARK  Name = 
REMARK  8 active torsions:
REMARK  status: ('A' for Active; 'I' for Inactive)
REMARK    1  A    between atoms: C_1  and  C_2
REMARK    2  A    between atoms: C_5  and  C_6
REMARK    3  A    between atoms: N_9  and  C_10
REMARK    4  A    between atoms: C_10  and  C_11
REMARK    5  A    between atoms: C_11  and  C_12
REMARK    6  A    between atoms: C_12  and  N_13
REMARK    7  A    between atoms: C_19  and  O_20
REMARK    8  A    between atoms: C_21  and  C_22
REMARK                            x       y       z     vdW  Elec       q    Type
REMARK                         _______ _______ _______ _____ _____    ______ ____
ROOT
ATOM      1  C   UNL     1       3.674   5.282  18.842  0.00  0.00    +0.000 A 
ATOM      2  N   UNL     1       3.106   6.518  18.957  0.00  0.00    +0.000 NA
ATOM      3  C   UNL     1       2.240   6.741  19.954  0.00  0.00    +0.000 A 
ATOM      4  N   UNL     1       1.617   7.973  19.974  0.00  0.00    +0.000 N 
ATOM      5  N   UNL     1       1.899   5.824  20.861  0.00  0.00    +0.000 NA
ATOM      6  C   UNL     1       2.458   4.620  20.710  0.00  0.00    +0.000 A 
ATOM      7  C   UNL     1       3.339   4.262  19.721  0.00  0.00    +0.000 A 
ATOM      8  H   UNL     1       2.072   8.595  19.315  0.00  0.00    +0.000 HD
ENDROOT
BRANCH   1  13
ATOM      9  C   UNL     1       7.223   5.010  14.214  0.00  0.00    +0.000 C 
ATOM     10  C   UNL     1       6.348   5.021  15.432  0.00  0.00    +0.000 A 
ATOM     11  C   UNL     1       5.211   4.218  15.499  0.00  0.00    +0.000 A 
ATOM     12  C   UNL     1       4.378   4.258  16.624  0.00  0.00    +0.000 A 
ATOM     13  C   UNL     1       4.616   5.137  17.696  0.00  0.00    +0.000 A 
ATOM     14  C   UNL     1       5.799   5.897  17.633  0.00  0.00    +0.000 A 
ATOM     15  C   UNL     1       6.653   5.839  16.522  0.00  0.00    +0.000 A 
ENDBRANCH   1  13
BRANCH   6  16
ATOM     16  O   UNL     1       2.051   3.731  21.653  0.00  0.00    +0.000 OA
ATOM     17  H   UNL     1       1.885   2.936  21.116  0.00  0.00    +0.000 HD
ENDBRANCH   6  16
BRANCH   7  18
ATOM     18  C   UNL     1       3.798   2.919  19.629  0.00  0.00    +0.000 C 
ATOM     19  N   UNL     1       4.150   1.815  19.556  0.00  0.00    +0.000 NA
ENDBRANCH   7  18
BRANCH   4  20
ATOM     20  C   UNL     1       1.266   8.533  21.267  0.00  0.00    +0.000 C 
BRANCH  20  21
ATOM     21  C   UNL     1       0.763   9.962  21.091  0.00  0.00    +0.000 C 
BRANCH  21  22
ATOM     22  C   UNL     1      -0.111  10.107  19.847  0.00  0.00    +0.000 C 
BRANCH  22  23
ATOM     23  N   UNL     1       0.044  11.409  19.231  0.00  0.00    +0.000 N 
ATOM     24  C   UNL     1       1.192  12.142  19.158  0.00  0.00    +0.000 A 
ATOM     25  C   UNL     1       0.835  13.287  18.485  0.00  0.00    +0.000 A 
ATOM     26  N   UNL     1      -0.497  13.266  18.161  0.00  0.00    +0.000 NA
ATOM     27  C   UNL     1      -0.950  12.126  18.629  0.00  0.00    +0.000 A 
ENDBRANCH  22  23
ENDBRANCH  21  22
ENDBRANCH  20  21
ENDBRANCH   4  20
TORSDOF 7
ENDMDL
MODEL 9
REMARK VINA RESULT:      -6.8      3.730      8.201
REMARK  Name = 
REMARK  8 active torsions:
REMARK  status: ('A' for Active; 'I' for Inactive)
REMARK    1  A    between atoms: C_1  and  C_2
REMARK    2  A    between atoms: C_5  and  C_6
REMARK    3  A    between atoms: N_9  and  C_10
REMARK    4  A    between atoms: C_10  and  C_11
REMARK    5  A    between atoms: C_11  and  C_12
REMARK    6  A    between atoms: C_12  and  N_13
REMARK    7  A    between atoms: C_19  and  O_20
REMARK    8  A    between atoms: C_21  and  C_22
REMARK                            x       y       z     vdW  Elec       q    Type
REMARK                         _______ _______ _______ _____ _____    ______ ____
ROOT
ATOM      1  C   UNL     1       3.189   6.872  18.127  0.00  0.00    +0.000 A 
ATOM      2  N   UNL     1       2.739   8.060  17.626  0.00  0.00    +0.000 NA
ATOM      3  C   UNL     1       1.943   8.823  18.386  0.00  0.00    +0.000 A 
ATOM      4  N   UNL     1       1.433   9.966  17.804  0.00  0.00    +0.000 N 
ATOM      5  N   UNL     1       1.565   8.498  19.624  0.00  0.00    +0.000 NA
ATOM      6  C   UNL     1       2.007   7.322  20.078  0.00  0.00    +0.000 A 
ATOM      7  C   UNL     1       2.806   6.444  19.390  0.00  0.00    +0.000 A 
ATOM      8  H   UNL     1       1.911  10.142  16.927  0.00  0.00    +0.000 HD
ENDROOT
BRANCH   1  13
ATOM      9  C   UNL     1       6.361   3.898  14.231  0.00  0.00    +0.000 C 
ATOM     10  C   UNL     1       5.602   4.653  15.281  0.00  0.00    +0.000 A 
ATOM     11  C   UNL     1       4.803   3.980  16.204  0.00  0.00    +0.000 A 
ATOM     12  C   UNL     1       4.069   4.692  17.160  0.00  0.00    +0.000 A 
ATOM     13  C   UNL     1       4.060   6.098  17.198  0.00  0.00    +0.000 A 
ATOM     14  C   UNL     1       4.917   6.754  16.294  0.00  0.00    +0.000 A 
ATOM     15  C   UNL     1       5.678   6.045  15.354  0.00  0.00    +0.000 A 
ENDBRANCH   1  13
BRANCH   6  16
ATOM     16  O   UNL     1       1.567   7.046  21.334  0.00  0.00    +0.000 OA
ATOM     17  H   UNL     1       1.773   7.874  21.802  0.00  0.00    +0.000 HD
ENDBRANCH   6  16
BRANCH   7  18
ATOM     18  C   UNL     1       3.140   5.186  19.963  0.00  0.00    +0.000 C 
ATOM     19  N   UNL     1       3.389   4.151  20.427  0.00  0.00    +0.000 NA
ENDBRANCH   7  18
BRANCH   4  20
ATOM     20  C   UNL     1       1.194  11.113  18.661  0.00  0.00    +0.000 C 
BRANCH  20  21
ATOM     21  C   UNL     1      -0.301  11.411  18.719  0.00  0.00    +0.000 C 
BRANCH  21  22
ATOM     22  C   UNL     1      -1.112  10.407  17.901  0.00  0.00    +0.000 C 
BRANCH  22  23
ATOM     23  N   UNL     1      -2.444  10.898  17.616  0.00  0.00    +0.000 N 
ATOM     24  C   UNL     1      -3.105  10.810  16.426  0.00  0.00    +0.000 A 
ATOM     25  C   UNL     1      -4.322  11.409  16.657  0.00  0.00    +0.000 A 
ATOM     26  N   UNL     1      -4.405  11.863  17.947  0.00  0.00    +0.000 NA
ATOM     27  C   UNL     1      -3.257  11.548  18.501  0.00  0.00    +0.000 A 
ENDBRANCH  22  23
ENDBRANCH  21  22
ENDBRANCH  20  21
ENDBRANCH   4  20
TORSDOF 7
ENDMDL
