MODEL 1
REMARK VINA RESULT:      -8.8      0.000      0.000
REMARK  Name = 
REMARK  7 active torsions:
REMARK  status: ('A' for Active; 'I' for Inactive)
REMARK    1  A    between atoms: C_1  and  C_2
REMARK    2  A    between atoms: C_2  and  C_3
REMARK    3  A    between atoms: C_3  and  C_4
REMARK    4  A    between atoms: C_10  and  C_11
REMARK    5  A    between atoms: C_12  and  C_13
REMARK    6  A    between atoms: C_16  and  O_17
REMARK    7  A    between atoms: O_17  and  C_18
REMARK                            x       y       z     vdW  Elec       q    Type
REMARK                         _______ _______ _______ _____ _____    ______ ____
ROOT
ATOM      1  C   UNL     1       5.849   3.725  12.641  0.00  0.00    +0.000 A 
ATOM      2  C   UNL     1       7.007   4.345  12.339  0.00  0.00    +0.000 A 
ATOM      3  C   UNL     1       7.717   5.153  13.366  0.00  0.00    +0.000 A 
ATOM      4  O   UNL     1       8.759   5.755  13.150  0.00  0.00    +0.000 OA
ATOM      5  N   UNL     1       7.081   5.171  14.631  0.00  0.00    +0.000 N 
ATOM      6  N   UNL     1       7.571   5.844  15.702  0.00  0.00    +0.000 NA
ATOM      7  C   UNL     1       6.680   5.604  16.675  0.00  0.00    +0.000 A 
ATOM      8  C   UNL     1       6.910   6.189  18.023  0.00  0.00    +0.000 C 
ATOM      9  C   UNL     1       5.609   4.760  16.241  0.00  0.00    +0.000 A 
ATOM     10  C   UNL     1       5.902   4.517  14.912  0.00  0.00    +0.000 A 
ATOM     11  N   UNL     1       5.299   3.824  13.910  0.00  0.00    +0.000 N 
ATOM     12  H   UNL     1       4.383   3.398  14.036  0.00  0.00    +0.000 HD
ENDROOT
BRANCH   9  13
ATOM     13  C   UNL     1       4.433   4.259  16.941  0.00  0.00    +0.000 A 
ATOM     14  C   UNL     1       3.428   5.128  17.382  0.00  0.00    +0.000 A 
ATOM     15  C   UNL     1       2.279   4.640  18.011  0.00  0.00    +0.000 A 
ATOM     16  C   UNL     1       2.091   3.270  18.170  0.00  0.00    +0.000 A 
ATOM     17  C   UNL     1       3.092   2.394  17.761  0.00  0.00    +0.000 A 
ATOM     18  C   UNL     1       4.263   2.888  17.181  0.00  0.00    +0.000 A 
BRANCH  16  19
ATOM     19  O   UNL     1       0.928   2.902  18.783  0.00  0.00    +0.000 OA
ATOM     20  C   UNL     1       0.815   3.286  20.149  0.00  0.00    +0.000 C 
ENDBRANCH  16  19
ENDBRANCH   9  13
BRANCH   1  21
ATOM     21  C   UNL     1       5.129   2.862  11.629  0.00  0.00    +0.000 C 
BRANCH  21  23
ATOM     22  C   UNL     1       3.437   3.845  10.031  0.00  0.00    +0.000 C 
ATOM     23  C   UNL     1       3.665   3.266  11.420  0.00  0.00    +0.000 C 
ENDBRANCH  21  23
ENDBRANCH   1  21
TORSDOF 4
ENDMDL
MODEL 2
REMARK VINA RESULT:      -8.7      0.132      1.032
REMARK  Name = 
REMARK  7 active torsions:
REMARK  status: ('A' for Active; 'I' for Inactive)
REMARK    1  A    between atoms: C_1  and  C_2
REMARK    2  A    between atoms: C_2  and  C_3
REMARK    3  A    between atoms: C_3  and  C_4
REMARK    4  A    between atoms: C_10  and  C_11
REMARK    5  A    between atoms: C_12  and  C_13
REMARK    6  A    between atoms: C_16  and  O_17
REMARK    7  A    between atoms: O_17  and  C_18
REMARK                            x       y       z     vdW  Elec       q    Type
REMARK                         _______ _______ _______ _____ _____    ______ ____
ROOT
ATOM      1  C   UNL     1       5.827   3.758  12.643  0.00  0.00    +0.000 A 
ATOM      2  C   UNL     1       6.999   4.361  12.360  0.00  0.00    +0.000 A 
ATOM      3  C   UNL     1       7.709   5.148  13.403  0.00  0.00    +0.000 A 
ATOM      4  O   UNL     1       8.763   5.734  13.206  0.00  0.00    +0.000 OA
ATOM      5  N   UNL     1       7.057   5.167  14.660  0.00  0.00    +0.000 N 
ATOM      6  N   UNL     1       7.544   5.824  15.743  0.00  0.00    +0.000 NA
ATOM      7  C   UNL     1       6.637   5.591  16.702  0.00  0.00    +0.000 A 
ATOM      8  C   UNL     1       6.858   6.161  18.057  0.00  0.00    +0.000 C 
ATOM      9  C   UNL     1       5.558   4.768  16.247  0.00  0.00    +0.000 A 
ATOM     10  C   UNL     1       5.864   4.531  14.920  0.00  0.00    +0.000 A 
ATOM     11  N   UNL     1       5.262   3.856  13.904  0.00  0.00    +0.000 N 
ATOM     12  H   UNL     1       4.338   3.445  14.016  0.00  0.00    +0.000 HD
ENDROOT
BRANCH   9  13
ATOM     13  C   UNL     1       4.364   4.282  16.928  0.00  0.00    +0.000 A 
ATOM     14  C   UNL     1       4.157   2.914  17.140  0.00  0.00    +0.000 A 
ATOM     15  C   UNL     1       3.035   2.455  17.836  0.00  0.00    +0.000 A 
ATOM     16  C   UNL     1       2.121   3.357  18.373  0.00  0.00    +0.000 A 
ATOM     17  C   UNL     1       2.298   4.719  18.149  0.00  0.00    +0.000 A 
ATOM     18  C   UNL     1       3.392   5.173  17.408  0.00  0.00    +0.000 A 
BRANCH  16  19
ATOM     19  O   UNL     1       1.071   2.802  19.046  0.00  0.00    +0.000 OA
ATOM     20  C   UNL     1       0.995   3.131  20.429  0.00  0.00    +0.000 C 
ENDBRANCH  16  19
ENDBRANCH   9  13
BRANCH   1  21
ATOM     21  C   UNL     1       5.106   2.915  11.614  0.00  0.00    +0.000 C 
BRANCH  21  23
ATOM     22  C   UNL     1       3.382   3.802   9.995  0.00  0.00    +0.000 C 
ATOM     23  C   UNL     1       3.642   3.322  11.416  0.00  0.00    +0.000 C 
ENDBRANCH  21  23
ENDBRANCH   1  21
TORSDOF 4
ENDMDL
MODEL 3
REMARK VINA RESULT:      -8.5      0.780      1.246
REMARK  Name = 
REMARK  7 active torsions:
REMARK  status: ('A' for Active; 'I' for Inactive)
REMARK    1  A    between atoms: C_1  and  C_2
REMARK    2  A    between atoms: C_2  and  C_3
REMARK    3  A    between atoms: C_3  and  C_4
REMARK    4  A    between atoms: C_10  and  C_11
REMARK    5  A    between atoms: C_12  and  C_13
REMARK    6  A    between atoms: C_16  and  O_17
REMARK    7  A    between atoms: O_17  and  C_18
REMARK                            x       y       z     vdW  Elec       q    Type
REMARK                         _______ _______ _______ _____ _____    ______ ____
ROOT
ATOM      1  C   UNL     1       6.048   3.500  12.704  0.00  0.00    +0.000 A 
ATOM      2  C   UNL     1       7.154   4.204  12.393  0.00  0.00    +0.000 A 
ATOM      3  C   UNL     1       7.759   5.130  13.386  0.00  0.00    +0.000 A 
ATOM      4  O   UNL     1       8.749   5.811  13.160  0.00  0.00    +0.000 OA
ATOM      5  N   UNL     1       7.088   5.163  14.633  0.00  0.00    +0.000 N 
ATOM      6  N   UNL     1       7.485   5.939  15.673  0.00  0.00    +0.000 NA
ATOM      7  C   UNL     1       6.591   5.675  16.637  0.00  0.00    +0.000 A 
ATOM      8  C   UNL     1       6.728   6.355  17.952  0.00  0.00    +0.000 C 
ATOM      9  C   UNL     1       5.613   4.713  16.228  0.00  0.00    +0.000 A 
ATOM     10  C   UNL     1       5.964   4.422  14.924  0.00  0.00    +0.000 A 
ATOM     11  N   UNL     1       5.455   3.622  13.951  0.00  0.00    +0.000 N 
ATOM     12  H   UNL     1       4.577   3.122  14.081  0.00  0.00    +0.000 HD
ENDROOT
BRANCH   9  13
ATOM     13  C   UNL     1       4.466   4.150  16.929  0.00  0.00    +0.000 A 
ATOM     14  C   UNL     1       3.397   4.957  17.337  0.00  0.00    +0.000 A 
ATOM     15  C   UNL     1       2.278   4.405  17.966  0.00  0.00    +0.000 A 
ATOM     16  C   UNL     1       2.183   3.029  18.159  0.00  0.00    +0.000 A 
ATOM     17  C   UNL     1       3.248   2.216  17.784  0.00  0.00    +0.000 A 
ATOM     18  C   UNL     1       4.389   2.776  17.203  0.00  0.00    +0.000 A 
BRANCH  16  19
ATOM     19  O   UNL     1       1.041   2.596  18.769  0.00  0.00    +0.000 OA
ATOM     20  C   UNL     1       0.786   3.163  20.050  0.00  0.00    +0.000 C 
ENDBRANCH  16  19
ENDBRANCH   9  13
BRANCH   1  21
ATOM     21  C   UNL     1       5.437   2.519  11.728  0.00  0.00    +0.000 C 
BRANCH  21  23
ATOM     22  C   UNL     1       6.113   0.132  11.251  0.00  0.00    +0.000 C 
ATOM     23  C   UNL     1       6.470   1.600  11.066  0.00  0.00    +0.000 C 
ENDBRANCH  21  23
ENDBRANCH   1  21
TORSDOF 4
ENDMDL
MODEL 4
REMARK VINA RESULT:      -8.4      0.795      1.623
REMARK  Name = 
REMARK  7 active torsions:
REMARK  status: ('A' for Active; 'I' for Inactive)
REMARK    1  A    between atoms: C_1  and  C_2
REMARK    2  A    between atoms: C_2  and  C_3
REMARK    3  A    between atoms: C_3  and  C_4
REMARK    4  A    between atoms: C_10  and  C_11
REMARK    5  A    between atoms: C_12  and  C_13
REMARK    6  A    between atoms: C_16  and  O_17
REMARK    7  A    between atoms: O_17  and  C_18
REMARK                            x       y       z     vdW  Elec       q    Type
REMARK                         _______ _______ _______ _____ _____    ______ ____
ROOT
ATOM      1  C   UNL     1       6.050   3.486  12.679  0.00  0.00    +0.000 A 
ATOM      2  C   UNL     1       7.155   4.191  12.365  0.00  0.00    +0.000 A 
ATOM      3  C   UNL     1       7.762   5.117  13.358  0.00  0.00    +0.000 A 
ATOM      4  O   UNL     1       8.750   5.799  13.130  0.00  0.00    +0.000 OA
ATOM      5  N   UNL     1       7.095   5.148  14.607  0.00  0.00    +0.000 N 
ATOM      6  N   UNL     1       7.494   5.922  15.647  0.00  0.00    +0.000 NA
ATOM      7  C   UNL     1       6.603   5.657  16.614  0.00  0.00    +0.000 A 
ATOM      8  C   UNL     1       6.744   6.335  17.929  0.00  0.00    +0.000 C 
ATOM      9  C   UNL     1       5.624   4.694  16.206  0.00  0.00    +0.000 A 
ATOM     10  C   UNL     1       5.973   4.405  14.901  0.00  0.00    +0.000 A 
ATOM     11  N   UNL     1       5.460   3.606  13.928  0.00  0.00    +0.000 N 
ATOM     12  H   UNL     1       4.584   3.105  14.060  0.00  0.00    +0.000 HD
ENDROOT
BRANCH   9  13
ATOM     13  C   UNL     1       4.480   4.129  16.910  0.00  0.00    +0.000 A 
ATOM     14  C   UNL     1       4.412   2.761  17.202  0.00  0.00    +0.000 A 
ATOM     15  C   UNL     1       3.336   2.231  17.918  0.00  0.00    +0.000 A 
ATOM     16  C   UNL     1       2.329   3.064  18.399  0.00  0.00    +0.000 A 
ATOM     17  C   UNL     1       2.368   4.421  18.095  0.00  0.00    +0.000 A 
ATOM     18  C   UNL     1       3.417   4.941  17.333  0.00  0.00    +0.000 A 
BRANCH  16  19
ATOM     19  O   UNL     1       1.335   2.443  19.099  0.00  0.00    +0.000 OA
ATOM     20  C   UNL     1       0.798   3.194  20.183  0.00  0.00    +0.000 C 
ENDBRANCH  16  19
ENDBRANCH   9  13
BRANCH   1  21
ATOM     21  C   UNL     1       5.437   2.506  11.704  0.00  0.00    +0.000 C 
BRANCH  21  23
ATOM     22  C   UNL     1       6.123   0.115  11.264  0.00  0.00    +0.000 C 
ATOM     23  C   UNL     1       6.468   1.581  11.046  0.00  0.00    +0.000 C 
ENDBRANCH  21  23
ENDBRANCH   1  21
TORSDOF 4
ENDMDL
MODEL 5
REMARK VINA RESULT:      -7.6      3.614      5.946
REMARK  Name = 
REMARK  7 active torsions:
REMARK  status: ('A' for Active; 'I' for Inactive)
REMARK    1  A    between atoms: C_1  and  C_2
REMARK    2  A    between atoms: C_2  and  C_3
REMARK    3  A    between atoms: C_3  and  C_4
REMARK    4  A    between atoms: C_10  and  C_11
REMARK    5  A    between atoms: C_12  and  C_13
REMARK    6  A    between atoms: C_16  and  O_17
REMARK    7  A    between atoms: O_17  and  C_18
REMARK                            x       y       z     vdW  Elec       q    Type
REMARK                         _______ _______ _______ _____ _____    ______ ____
ROOT
ATOM      1  C   UNL     1       6.692   6.661  17.013  0.00  0.00    +0.000 A 
ATOM      2  C   UNL     1       6.955   5.477  16.426  0.00  0.00    +0.000 A 
ATOM      3  C   UNL     1       5.916   4.414  16.381  0.00  0.00    +0.000 A 
ATOM      4  O   UNL     1       6.097   3.313  15.882  0.00  0.00    +0.000 OA
ATOM      5  N   UNL     1       4.682   4.783  16.970  0.00  0.00    +0.000 N 
ATOM      6  N   UNL     1       3.606   3.959  17.026  0.00  0.00    +0.000 NA
ATOM      7  C   UNL     1       2.670   4.685  17.655  0.00  0.00    +0.000 A 
ATOM      8  C   UNL     1       1.327   4.088  17.884  0.00  0.00    +0.000 C 
ATOM      9  C   UNL     1       3.133   5.994  18.001  0.00  0.00    +0.000 A 
ATOM     10  C   UNL     1       4.441   6.008  17.553  0.00  0.00    +0.000 A 
ATOM     11  N   UNL     1       5.453   6.915  17.581  0.00  0.00    +0.000 N 
ATOM     12  H   UNL     1       5.359   7.799  18.077  0.00  0.00    +0.000 HD
ENDROOT
BRANCH   9  13
ATOM     13  C   UNL     1       2.477   7.096  18.693  0.00  0.00    +0.000 A 
ATOM     14  C   UNL     1       2.095   8.257  18.010  0.00  0.00    +0.000 A 
ATOM     15  C   UNL     1       1.423   9.290  18.668  0.00  0.00    +0.000 A 
ATOM     16  C   UNL     1       1.078   9.166  20.011  0.00  0.00    +0.000 A 
ATOM     17  C   UNL     1       1.473   8.030  20.711  0.00  0.00    +0.000 A 
ATOM     18  C   UNL     1       2.192   7.021  20.065  0.00  0.00    +0.000 A 
BRANCH  16  19
ATOM     19  O   UNL     1       0.410  10.228  20.549  0.00  0.00    +0.000 OA
ATOM     20  C   UNL     1      -0.251  11.068  19.609  0.00  0.00    +0.000 C 
ENDBRANCH  16  19
ENDBRANCH   9  13
BRANCH   1  21
ATOM     21  C   UNL     1       7.716   7.775  17.035  0.00  0.00    +0.000 C 
BRANCH  21  23
ATOM     22  C   UNL     1       8.726   9.518  18.558  0.00  0.00    +0.000 C 
ATOM     23  C   UNL     1       8.253   8.077  18.439  0.00  0.00    +0.000 C 
ENDBRANCH  21  23
ENDBRANCH   1  21
TORSDOF 4
ENDMDL
MODEL 6
REMARK VINA RESULT:      -7.6      3.665      6.056
REMARK  Name = 
REMARK  7 active torsions:
REMARK  status: ('A' for Active; 'I' for Inactive)
REMARK    1  A    between atoms: C_1  and  C_2
REMARK    2  A    between atoms: C_2  and  C_3
REMARK    3  A    between atoms: C_3  and  C_4
REMARK    4  A    between atoms: C_10  and  C_11
REMARK    5  A    between atoms: C_12  and  C_13
REMARK    6  A    between atoms: C_16  and  O_17
REMARK    7  A    between atoms: O_17  and  C_18
REMARK                            x       y       z     vdW  Elec       q    Type
REMARK                         _______ _______ _______ _____ _____    ______ ____
ROOT
ATOM      1  C   UNL     1       6.720   7.016  17.197  0.00  0.00    +0.000 A 
ATOM      2  C   UNL     1       7.078   5.848  16.629  0.00  0.00    +0.000 A 
ATOM      3  C   UNL     1       6.104   4.728  16.539  0.00  0.00    +0.000 A 
ATOM      4  O   UNL     1       6.371   3.638  16.054  0.00  0.00    +0.000 OA
ATOM      5  N   UNL     1       4.824   5.027  17.066  0.00  0.00    +0.000 N 
ATOM      6  N   UNL     1       3.795   4.143  17.074  0.00  0.00    +0.000 NA
ATOM      7  C   UNL     1       2.790   4.816  17.654  0.00  0.00    +0.000 A 
ATOM      8  C   UNL     1       1.474   4.144  17.820  0.00  0.00    +0.000 C 
ATOM      9  C   UNL     1       3.161   6.150  18.016  0.00  0.00    +0.000 A 
ATOM     10  C   UNL     1       4.486   6.237  17.631  0.00  0.00    +0.000 A 
ATOM     11  N   UNL     1       5.443   7.200  17.704  0.00  0.00    +0.000 N 
ATOM     12  H   UNL     1       5.275   8.078  18.191  0.00  0.00    +0.000 HD
ENDROOT
BRANCH   9  13
ATOM     13  C   UNL     1       2.411   7.214  18.671  0.00  0.00    +0.000 A 
ATOM     14  C   UNL     1       2.107   7.152  20.036  0.00  0.00    +0.000 A 
ATOM     15  C   UNL     1       1.429   8.196  20.670  0.00  0.00    +0.000 A 
ATOM     16  C   UNL     1       1.081   9.344  19.963  0.00  0.00    +0.000 A 
ATOM     17  C   UNL     1       1.353   9.411  18.600  0.00  0.00    +0.000 A 
ATOM     18  C   UNL     1       1.983   8.343  17.956  0.00  0.00    +0.000 A 
BRANCH  16  19
ATOM     19  O   UNL     1       0.436  10.308  20.683  0.00  0.00    +0.000 OA
ATOM     20  C   UNL     1      -0.204   9.851  21.870  0.00  0.00    +0.000 C 
ENDBRANCH  16  19
ENDBRANCH   9  13
BRANCH   1  21
ATOM     21  C   UNL     1       7.677   8.186  17.263  0.00  0.00    +0.000 C 
BRANCH  21  23
ATOM     22  C   UNL     1       8.928   9.676  18.874  0.00  0.00    +0.000 C 
ATOM     23  C   UNL     1       8.454   8.259  18.582  0.00  0.00    +0.000 C 
ENDBRANCH  21  23
ENDBRANCH   1  21
TORSDOF 4
ENDMDL
MODEL 7
REMARK VINA RESULT:      -7.2      3.037      7.273
REMARK  Name = 
REMARK  7 active torsions:
REMARK  status: ('A' for Active; 'I' for Inactive)
REMARK    1  A    between atoms: C_1  and  C_2
REMARK    2  A    between atoms: C_2  and  C_3
REMARK    3  A    between atoms: C_3  and  C_4
REMARK    4  A    between atoms: C_10  and  C_11
REMARK    5  A    between atoms: C_12  and  C_13
REMARK    6  A    between atoms: C_16  and  O_17
REMARK    7  A    between atoms: O_17  and  C_18
REMARK                            x       y       z     vdW  Elec       q    Type
REMARK                         _______ _______ _______ _____ _____    ______ ____
ROOT
ATOM      1  C   UNL     1       2.170   6.391  19.718  0.00  0.00    +0.000 A 
ATOM      2  C   UNL     1       1.411   5.650  20.548  0.00  0.00    +0.000 A 
ATOM      3  C   UNL     1       1.547   4.169  20.569  0.00  0.00    +0.000 A 
ATOM      4  O   UNL     1       0.876   3.439  21.283  0.00  0.00    +0.000 OA
ATOM      5  N   UNL     1       2.530   3.664  19.682  0.00  0.00    +0.000 N 
ATOM      6  N   UNL     1       2.812   2.343  19.556  0.00  0.00    +0.000 NA
ATOM      7  C   UNL     1       3.780   2.303  18.628  0.00  0.00    +0.000 A 
ATOM      8  C   UNL     1       4.352   0.987  18.240  0.00  0.00    +0.000 C 
ATOM      9  C   UNL     1       4.141   3.605  18.156  0.00  0.00    +0.000 A 
ATOM     10  C   UNL     1       3.299   4.451  18.853  0.00  0.00    +0.000 A 
ATOM     11  N   UNL     1       3.091   5.795  18.871  0.00  0.00    +0.000 N 
ATOM     12  H   UNL     1       3.566   6.413  18.217  0.00  0.00    +0.000 HD
ENDROOT
BRANCH   9  13
ATOM     13  C   UNL     1       5.113   4.032  17.158  0.00  0.00    +0.000 A 
ATOM     14  C   UNL     1       4.770   4.123  15.804  0.00  0.00    +0.000 A 
ATOM     15  C   UNL     1       5.692   4.578  14.857  0.00  0.00    +0.000 A 
ATOM     16  C   UNL     1       6.960   4.996  15.251  0.00  0.00    +0.000 A 
ATOM     17  C   UNL     1       7.326   4.888  16.589  0.00  0.00    +0.000 A 
ATOM     18  C   UNL     1       6.421   4.382  17.526  0.00  0.00    +0.000 A 
BRANCH  16  19
ATOM     19  O   UNL     1       7.774   5.437  14.247  0.00  0.00    +0.000 OA
ATOM     20  C   UNL     1       7.488   4.904  12.958  0.00  0.00    +0.000 C 
ENDBRANCH  16  19
ENDBRANCH   9  13
BRANCH   1  21
ATOM     21  C   UNL     1       2.082   7.902  19.707  0.00  0.00    +0.000 C 
BRANCH  21  23
ATOM     22  C   UNL     1       1.066   9.628  18.168  0.00  0.00    +0.000 C 
ATOM     23  C   UNL     1       2.079   8.499  18.296  0.00  0.00    +0.000 C 
ENDBRANCH  21  23
ENDBRANCH   1  21
TORSDOF 4
ENDMDL
MODEL 8
REMARK VINA RESULT:      -7.1      3.023      7.329
REMARK  Name = 
REMARK  7 active torsions:
REMARK  status: ('A' for Active; 'I' for Inactive)
REMARK    1  A    between atoms: C_1  and  C_2
REMARK    2  A    between atoms: C_2  and  C_3
REMARK    3  A    between atoms: C_3  and  C_4
REMARK    4  A    between atoms: C_10  and  C_11
REMARK    5  A    between atoms: C_12  and  C_13
REMARK    6  A    between atoms: C_16  and  O_17
REMARK    7  A    between atoms: O_17  and  C_18
REMARK                            x       y       z     vdW  Elec       q    Type
REMARK                         _______ _______ _______ _____ _____    ______ ____
ROOT
ATOM      1  C   UNL     1       2.118   6.293  19.852  0.00  0.00    +0.000 A 
ATOM      2  C   UNL     1       1.385   5.498  20.657  0.00  0.00    +0.000 A 
ATOM      3  C   UNL     1       1.545   4.021  20.601  0.00  0.00    +0.000 A 
ATOM      4  O   UNL     1       0.898   3.245  21.289  0.00  0.00    +0.000 OA
ATOM      5  N   UNL     1       2.519   3.577  19.673  0.00  0.00    +0.000 N 
ATOM      6  N   UNL     1       2.819   2.269  19.475  0.00  0.00    +0.000 NA
ATOM      7  C   UNL     1       3.771   2.291  18.530  0.00  0.00    +0.000 A 
ATOM      8  C   UNL     1       4.355   1.005  18.067  0.00  0.00    +0.000 C 
ATOM      9  C   UNL     1       4.102   3.621  18.118  0.00  0.00    +0.000 A 
ATOM     10  C   UNL     1       3.260   4.417  18.871  0.00  0.00    +0.000 A 
ATOM     11  N   UNL     1       3.032   5.754  18.961  0.00  0.00    +0.000 N 
ATOM     12  H   UNL     1       3.485   6.412  18.330  0.00  0.00    +0.000 HD
ENDROOT
BRANCH   9  13
ATOM     13  C   UNL     1       5.049   4.113  17.126  0.00  0.00    +0.000 A 
ATOM     14  C   UNL     1       6.290   4.638  17.506  0.00  0.00    +0.000 A 
ATOM     15  C   UNL     1       7.215   5.065  16.549  0.00  0.00    +0.000 A 
ATOM     16  C   UNL     1       6.937   4.932  15.191  0.00  0.00    +0.000 A 
ATOM     17  C   UNL     1       5.699   4.436  14.796  0.00  0.00    +0.000 A 
ATOM     18  C   UNL     1       4.754   4.060  15.756  0.00  0.00    +0.000 A 
BRANCH  16  19
ATOM     19  O   UNL     1       7.916   5.366  14.344  0.00  0.00    +0.000 OA
ATOM     20  C   UNL     1       7.679   5.112  12.963  0.00  0.00    +0.000 C 
ENDBRANCH  16  19
ENDBRANCH   9  13
BRANCH   1  21
ATOM     21  C   UNL     1       2.006   7.800  19.919  0.00  0.00    +0.000 C 
BRANCH  21  23
ATOM     22  C   UNL     1       1.074   9.573  18.380  0.00  0.00    +0.000 C 
ATOM     23  C   UNL     1       2.118   8.478  18.548  0.00  0.00    +0.000 C 
ENDBRANCH  21  23
ENDBRANCH   1  21
TORSDOF 4
ENDMDL
MODEL 9
REMARK VINA RESULT:      -7.1      3.213      7.717
REMARK  Name = 
REMARK  7 active torsions:
REMARK  status: ('A' for Active; 'I' for Inactive)
REMARK    1  A    between atoms: C_1  and  C_2
REMARK    2  A    between atoms: C_2  and  C_3
REMARK    3  A    between atoms: C_3  and  C_4
REMARK    4  A    between atoms: C_10  and  C_11
REMARK    5  A    between atoms: C_12  and  C_13
REMARK    6  A    between atoms: C_16  and  O_17
REMARK    7  A    between atoms: O_17  and  C_18
REMARK                            x       y       z     vdW  Elec       q    Type
REMARK                         _______ _______ _______ _____ _____    ______ ____
ROOT
ATOM      1  C   UNL     1       2.143   6.278  20.022  0.00  0.00    +0.000 A 
ATOM      2  C   UNL     1       1.402   5.470  20.805  0.00  0.00    +0.000 A 
ATOM      3  C   UNL     1       1.535   3.993  20.698  0.00  0.00    +0.000 A 
ATOM      4  O   UNL     1       0.879   3.205  21.364  0.00  0.00    +0.000 OA
ATOM      5  N   UNL     1       2.494   3.563  19.748  0.00  0.00    +0.000 N 
ATOM      6  N   UNL     1       2.768   2.257  19.504  0.00  0.00    +0.000 NA
ATOM      7  C   UNL     1       3.713   2.294  18.553  0.00  0.00    +0.000 A 
ATOM      8  C   UNL     1       4.271   1.014  18.041  0.00  0.00    +0.000 C 
ATOM      9  C   UNL     1       4.066   3.631  18.183  0.00  0.00    +0.000 A 
ATOM     10  C   UNL     1       3.244   4.416  18.969  0.00  0.00    +0.000 A 
ATOM     11  N   UNL     1       3.041   5.753  19.105  0.00  0.00    +0.000 N 
ATOM     12  H   UNL     1       3.502   6.424  18.494  0.00  0.00    +0.000 HD
ENDROOT
BRANCH   9  13
ATOM     13  C   UNL     1       5.015   4.139  17.201  0.00  0.00    +0.000 A 
ATOM     14  C   UNL     1       6.309   4.523  17.573  0.00  0.00    +0.000 A 
ATOM     15  C   UNL     1       7.231   4.964  16.621  0.00  0.00    +0.000 A 
ATOM     16  C   UNL     1       6.894   4.988  15.270  0.00  0.00    +0.000 A 
ATOM     17  C   UNL     1       5.604   4.635  14.885  0.00  0.00    +0.000 A 
ATOM     18  C   UNL     1       4.667   4.245  15.846  0.00  0.00    +0.000 A 
BRANCH  16  19
ATOM     19  O   UNL     1       7.874   5.422  14.425  0.00  0.00    +0.000 OA
ATOM     20  C   UNL     1       7.700   5.063  13.058  0.00  0.00    +0.000 C 
ENDBRANCH  16  19
ENDBRANCH   9  13
BRANCH   1  21
ATOM     21  C   UNL     1       2.059   7.784  20.140  0.00  0.00    +0.000 C 
BRANCH  21  23
ATOM     22  C   UNL     1       1.317   9.053  22.194  0.00  0.00    +0.000 C 
ATOM     23  C   UNL     1       0.866   8.261  20.976  0.00  0.00    +0.000 C 
ENDBRANCH  21  23
ENDBRANCH   1  21
TORSDOF 4
ENDMDL
