MODEL 1
REMARK VINA RESULT:      -8.2      0.000      0.000
REMARK  Name = 
REMARK  16 active torsions:
REMARK  status: ('A' for Active; 'I' for Inactive)
REMARK    1  A    between atoms: C_1  and  C_2
REMARK    2  A    between atoms: C_2  and  C_3
REMARK    3  A    between atoms: C_3  and  C_4
REMARK    4  A    between atoms: C_4  and  C_5
REMARK    5  A    between atoms: C_5  and  C_6
REMARK    6  A    between atoms: C_6  and  C_7
REMARK    7  A    between atoms: C_7  and  C_8
REMARK    8  A    between atoms: C_8  and  N_9
REMARK    9  A    between atoms: N_13  and  C_14
REMARK   10  A    between atoms: C_15  and  C_16
REMARK   11  A    between atoms: C_16  and  C_17
REMARK   12  A    between atoms: C_20  and  C_21
REMARK   13  A    between atoms: C_23  and  C_24
REMARK   14  A    between atoms: C_25  and  O_26
REMARK   15  A    between atoms: O_26  and  C_27
REMARK   16  A    between atoms: C_28  and  C_29
REMARK                            x       y       z     vdW  Elec       q    Type
REMARK                         _______ _______ _______ _____ _____    ______ ____
ROOT
ATOM      1  N   UNL     1       3.429   3.417  17.683  0.00  0.00    +0.000 N 
ATOM      2  C   UNL     1       4.081   2.297  18.346  0.00  0.00    +0.000 C 
ATOM      3  C   UNL     1       4.055   2.338  19.883  0.00  0.00    +0.000 C 
ATOM      4  O   UNL     1       4.785   1.620  20.543  0.00  0.00    +0.000 OA
ATOM      5  N   UNL     1       2.971   3.035  20.421  0.00  0.00    +0.000 N 
ATOM      6  C   UNL     1       2.515   2.724  21.764  0.00  0.00    +0.000 C 
ATOM      7  C   UNL     1       2.327   4.168  19.705  0.00  0.00    +0.000 C 
ATOM      8  C   UNL     1       2.227   3.883  18.201  0.00  0.00    +0.000 C 
ATOM      9  O   UNL     1       1.303   4.304  17.514  0.00  0.00    +0.000 OA
ENDROOT
BRANCH   1  10
ATOM     10  C   UNL     1       3.914   3.925  16.412  0.00  0.00    +0.000 C 
BRANCH  10  11
ATOM     11  C   UNL     1       5.410   3.823  16.129  0.00  0.00    +0.000 C 
BRANCH  11  12
ATOM     12  C   UNL     1       6.108   5.120  15.711  0.00  0.00    +0.000 C 
BRANCH  12  13
ATOM     13  C   UNL     1       5.339   6.419  15.989  0.00  0.00    +0.000 C 
BRANCH  13  14
ATOM     14  C   UNL     1       6.014   7.309  17.035  0.00  0.00    +0.000 C 
BRANCH  14  15
ATOM     15  C   UNL     1       7.520   7.051  17.135  0.00  0.00    +0.000 C 
BRANCH  15  17
ATOM     16  C   UNL     1       7.945   5.465  19.063  0.00  0.00    +0.000 C 
ATOM     17  C   UNL     1       7.942   6.913  18.601  0.00  0.00    +0.000 C 
ENDBRANCH  15  17
ENDBRANCH  14  15
ENDBRANCH  13  14
ENDBRANCH  12  13
ENDBRANCH  11  12
ENDBRANCH  10  11
ENDBRANCH   1  10
BRANCH   7  18
ATOM     18  C   UNL     1       3.085   5.522  19.931  0.00  0.00    +0.000 C 
BRANCH  18  19
ATOM     19  C   UNL     1       2.414   6.813  19.474  0.00  0.00    +0.000 A 
ATOM     20  C   UNL     1       1.679   7.544  20.403  0.00  0.00    +0.000 A 
ATOM     21  C   UNL     1       1.195   8.819  20.115  0.00  0.00    +0.000 A 
ATOM     22  C   UNL     1       1.443   9.458  18.891  0.00  0.00    +0.000 A 
ATOM     23  C   UNL     1       2.144   8.709  17.926  0.00  0.00    +0.000 A 
ATOM     24  C   UNL     1       2.615   7.404  18.209  0.00  0.00    +0.000 A 
BRANCH  22  25
ATOM     25  C   UNL     1       0.904  10.830  18.690  0.00  0.00    +0.000 A 
ATOM     26  C   UNL     1       1.757  11.928  18.457  0.00  0.00    +0.000 A 
ATOM     27  C   UNL     1       1.300  13.260  18.523  0.00  0.00    +0.000 A 
ATOM     28  C   UNL     1       2.313  14.379  18.466  0.00  0.00    +0.000 C 
ATOM     29  C   UNL     1      -0.068  13.522  18.729  0.00  0.00    +0.000 A 
ATOM     30  C   UNL     1      -0.948  12.446  18.940  0.00  0.00    +0.000 A 
ATOM     31  C   UNL     1      -2.382  12.519  19.380  0.00  0.00    +0.000 C 
ATOM     32  C   UNL     1      -0.440  11.121  18.900  0.00  0.00    +0.000 A 
BRANCH  29  33
ATOM     33  O   UNL     1      -0.375  14.855  18.813  0.00  0.00    +0.000 OA
ATOM     34  C   UNL     1      -0.591  15.405  20.104  0.00  0.00    +0.000 C 
ENDBRANCH  29  33
ENDBRANCH  22  25
ENDBRANCH  18  19
ENDBRANCH   7  18
TORSDOF 11
ENDMDL
MODEL 2
REMARK VINA RESULT:      -7.9      1.946      2.953
REMARK  Name = 
REMARK  16 active torsions:
REMARK  status: ('A' for Active; 'I' for Inactive)
REMARK    1  A    between atoms: C_1  and  C_2
REMARK    2  A    between atoms: C_2  and  C_3
REMARK    3  A    between atoms: C_3  and  C_4
REMARK    4  A    between atoms: C_4  and  C_5
REMARK    5  A    between atoms: C_5  and  C_6
REMARK    6  A    between atoms: C_6  and  C_7
REMARK    7  A    between atoms: C_7  and  C_8
REMARK    8  A    between atoms: C_8  and  N_9
REMARK    9  A    between atoms: N_13  and  C_14
REMARK   10  A    between atoms: C_15  and  C_16
REMARK   11  A    between atoms: C_16  and  C_17
REMARK   12  A    between atoms: C_20  and  C_21
REMARK   13  A    between atoms: C_23  and  C_24
REMARK   14  A    between atoms: C_25  and  O_26
REMARK   15  A    between atoms: O_26  and  C_27
REMARK   16  A    between atoms: C_28  and  C_29
REMARK                            x       y       z     vdW  Elec       q    Type
REMARK                         _______ _______ _______ _____ _____    ______ ____
ROOT
ATOM      1  N   UNL     1       3.556   3.521  17.602  0.00  0.00    +0.000 N 
ATOM      2  C   UNL     1       4.220   2.445  18.322  0.00  0.00    +0.000 C 
ATOM      3  C   UNL     1       4.137   2.530  19.855  0.00  0.00    +0.000 C 
ATOM      4  O   UNL     1       4.865   1.857  20.562  0.00  0.00    +0.000 OA
ATOM      5  N   UNL     1       3.012   3.206  20.333  0.00  0.00    +0.000 N 
ATOM      6  C   UNL     1       2.518   2.920  21.668  0.00  0.00    +0.000 C 
ATOM      7  C   UNL     1       2.358   4.295  19.560  0.00  0.00    +0.000 C 
ATOM      8  C   UNL     1       2.322   3.962  18.063  0.00  0.00    +0.000 C 
ATOM      9  O   UNL     1       1.409   4.331  17.332  0.00  0.00    +0.000 OA
ENDROOT
BRANCH   1  10
ATOM     10  C   UNL     1       4.070   4.008  16.333  0.00  0.00    +0.000 C 
BRANCH  10  11
ATOM     11  C   UNL     1       4.971   5.239  16.356  0.00  0.00    +0.000 C 
BRANCH  11  12
ATOM     12  C   UNL     1       5.990   5.351  15.219  0.00  0.00    +0.000 C 
BRANCH  12  13
ATOM     13  C   UNL     1       6.468   4.025  14.610  0.00  0.00    +0.000 C 
BRANCH  13  14
ATOM     14  C   UNL     1       6.339   3.980  13.086  0.00  0.00    +0.000 C 
BRANCH  14  15
ATOM     15  C   UNL     1       5.023   3.344  12.631  0.00  0.00    +0.000 C 
BRANCH  15  17
ATOM     16  C   UNL     1       6.023   1.396  11.361  0.00  0.00    +0.000 C 
ATOM     17  C   UNL     1       5.199   2.669  11.268  0.00  0.00    +0.000 C 
ENDBRANCH  15  17
ENDBRANCH  14  15
ENDBRANCH  13  14
ENDBRANCH  12  13
ENDBRANCH  11  12
ENDBRANCH  10  11
ENDBRANCH   1  10
BRANCH   7  18
ATOM     18  C   UNL     1       3.062   5.680  19.770  0.00  0.00    +0.000 C 
BRANCH  18  19
ATOM     19  C   UNL     1       2.207   6.942  19.726  0.00  0.00    +0.000 A 
ATOM     20  C   UNL     1       1.510   7.311  20.874  0.00  0.00    +0.000 A 
ATOM     21  C   UNL     1       0.861   8.540  20.973  0.00  0.00    +0.000 A 
ATOM     22  C   UNL     1       0.896   9.493  19.943  0.00  0.00    +0.000 A 
ATOM     23  C   UNL     1       1.557   9.111  18.760  0.00  0.00    +0.000 A 
ATOM     24  C   UNL     1       2.196   7.852  18.650  0.00  0.00    +0.000 A 
BRANCH  22  25
ATOM     25  C   UNL     1       0.192  10.787  20.156  0.00  0.00    +0.000 A 
ATOM     26  C   UNL     1       0.368  11.873  19.277  0.00  0.00    +0.000 A 
ATOM     27  C   UNL     1      -0.073  13.174  19.593  0.00  0.00    +0.000 A 
ATOM     28  C   UNL     1       0.335  14.319  18.695  0.00  0.00    +0.000 C 
ATOM     29  C   UNL     1      -0.803  13.398  20.776  0.00  0.00    +0.000 A 
ATOM     30  C   UNL     1      -1.016  12.328  21.663  0.00  0.00    +0.000 A 
ATOM     31  C   UNL     1      -1.577  12.400  23.054  0.00  0.00    +0.000 C 
ATOM     32  C   UNL     1      -0.524  11.041  21.322  0.00  0.00    +0.000 A 
BRANCH  29  33
ATOM     33  O   UNL     1      -1.137  14.711  20.986  0.00  0.00    +0.000 OA
ATOM     34  C   UNL     1      -2.504  15.074  20.867  0.00  0.00    +0.000 C 
ENDBRANCH  29  33
ENDBRANCH  22  25
ENDBRANCH  18  19
ENDBRANCH   7  18
TORSDOF 11
ENDMDL
MODEL 3
REMARK VINA RESULT:      -7.5      1.261      1.283
REMARK  Name = 
REMARK  16 active torsions:
REMARK  status: ('A' for Active; 'I' for Inactive)
REMARK    1  A    between atoms: C_1  and  C_2
REMARK    2  A    between atoms: C_2  and  C_3
REMARK    3  A    between atoms: C_3  and  C_4
REMARK    4  A    between atoms: C_4  and  C_5
REMARK    5  A    between atoms: C_5  and  C_6
REMARK    6  A    between atoms: C_6  and  C_7
REMARK    7  A    between atoms: C_7  and  C_8
REMARK    8  A    between atoms: C_8  and  N_9
REMARK    9  A    between atoms: N_13  and  C_14
REMARK   10  A    between atoms: C_15  and  C_16
REMARK   11  A    between atoms: C_16  and  C_17
REMARK   12  A    between atoms: C_20  and  C_21
REMARK   13  A    between atoms: C_23  and  C_24
REMARK   14  A    between atoms: C_25  and  O_26
REMARK   15  A    between atoms: O_26  and  C_27
REMARK   16  A    between atoms: C_28  and  C_29
REMARK                            x       y       z     vdW  Elec       q    Type
REMARK                         _______ _______ _______ _____ _____    ______ ____
ROOT
ATOM      1  N   UNL     1       3.276   2.910  17.811  0.00  0.00    +0.000 N 
ATOM      2  C   UNL     1       3.810   1.972  18.787  0.00  0.00    +0.000 C 
ATOM      3  C   UNL     1       3.719   2.425  20.253  0.00  0.00    +0.000 C 
ATOM      4  O   UNL     1       4.361   1.867  21.125  0.00  0.00    +0.000 OA
ATOM      5  N   UNL     1       2.669   3.308  20.518  0.00  0.00    +0.000 N 
ATOM      6  C   UNL     1       2.132   3.399  21.863  0.00  0.00    +0.000 C 
ATOM      7  C   UNL     1       2.147   4.245  19.488  0.00  0.00    +0.000 C 
ATOM      8  C   UNL     1       2.092   3.573  18.110  0.00  0.00    +0.000 C 
ATOM      9  O   UNL     1       1.234   3.851  17.279  0.00  0.00    +0.000 OA
ENDROOT
BRANCH   1  10
ATOM     10  C   UNL     1       3.854   3.026  16.483  0.00  0.00    +0.000 C 
BRANCH  10  11
ATOM     11  C   UNL     1       5.004   4.011  16.292  0.00  0.00    +0.000 C 
BRANCH  11  12
ATOM     12  C   UNL     1       4.634   5.496  16.326  0.00  0.00    +0.000 C 
BRANCH  12  13
ATOM     13  C   UNL     1       5.790   6.484  16.121  0.00  0.00    +0.000 C 
BRANCH  13  14
ATOM     14  C   UNL     1       6.121   7.296  17.375  0.00  0.00    +0.000 C 
BRANCH  14  15
ATOM     15  C   UNL     1       7.610   7.638  17.472  0.00  0.00    +0.000 C 
BRANCH  15  17
ATOM     16  C   UNL     1       7.521   5.689  19.086  0.00  0.00    +0.000 C 
ATOM     17  C   UNL     1       8.229   6.979  18.708  0.00  0.00    +0.000 C 
ENDBRANCH  15  17
ENDBRANCH  14  15
ENDBRANCH  13  14
ENDBRANCH  12  13
ENDBRANCH  11  12
ENDBRANCH  10  11
ENDBRANCH   1  10
BRANCH   7  18
ATOM     18  C   UNL     1       2.997   5.560  19.394  0.00  0.00    +0.000 C 
BRANCH  18  19
ATOM     19  C   UNL     1       2.266   6.898  19.409  0.00  0.00    +0.000 A 
ATOM     20  C   UNL     1       1.645   7.301  20.588  0.00  0.00    +0.000 A 
ATOM     21  C   UNL     1       1.120   8.583  20.739  0.00  0.00    +0.000 A 
ATOM     22  C   UNL     1       1.212   9.556  19.732  0.00  0.00    +0.000 A 
ATOM     23  C   UNL     1       1.795   9.144  18.518  0.00  0.00    +0.000 A 
ATOM     24  C   UNL     1       2.307   7.834  18.355  0.00  0.00    +0.000 A 
BRANCH  22  25
ATOM     25  C   UNL     1       0.643  10.904  20.000  0.00  0.00    +0.000 A 
ATOM     26  C   UNL     1       1.016  12.025  19.233  0.00  0.00    +0.000 A 
ATOM     27  C   UNL     1       0.698  13.341  19.624  0.00  0.00    +0.000 A 
ATOM     28  C   UNL     1       1.309  14.494  18.862  0.00  0.00    +0.000 C 
ATOM     29  C   UNL     1      -0.102  13.561  20.762  0.00  0.00    +0.000 A 
ATOM     30  C   UNL     1      -0.511  12.459  21.534  0.00  0.00    +0.000 A 
ATOM     31  C   UNL     1      -1.179  12.491  22.879  0.00  0.00    +0.000 C 
ATOM     32  C   UNL     1      -0.139  11.152  21.123  0.00  0.00    +0.000 A 
BRANCH  29  33
ATOM     33  O   UNL     1      -0.303  14.884  21.057  0.00  0.00    +0.000 OA
ATOM     34  C   UNL     1       0.454  15.449  22.115  0.00  0.00    +0.000 C 
ENDBRANCH  29  33
ENDBRANCH  22  25
ENDBRANCH  18  19
ENDBRANCH   7  18
TORSDOF 11
ENDMDL
MODEL 4
REMARK VINA RESULT:      -7.5      1.353      1.822
REMARK  Name = 
REMARK  16 active torsions:
REMARK  status: ('A' for Active; 'I' for Inactive)
REMARK    1  A    between atoms: C_1  and  C_2
REMARK    2  A    between atoms: C_2  and  C_3
REMARK    3  A    between atoms: C_3  and  C_4
REMARK    4  A    between atoms: C_4  and  C_5
REMARK    5  A    between atoms: C_5  and  C_6
REMARK    6  A    between atoms: C_6  and  C_7
REMARK    7  A    between atoms: C_7  and  C_8
REMARK    8  A    between atoms: C_8  and  N_9
REMARK    9  A    between atoms: N_13  and  C_14
REMARK   10  A    between atoms: C_15  and  C_16
REMARK   11  A    between atoms: C_16  and  C_17
REMARK   12  A    between atoms: C_20  and  C_21
REMARK   13  A    between atoms: C_23  and  C_24
REMARK   14  A    between atoms: C_25  and  O_26
REMARK   15  A    between atoms: O_26  and  C_27
REMARK   16  A    between atoms: C_28  and  C_29
REMARK                            x       y       z     vdW  Elec       q    Type
REMARK                         _______ _______ _______ _____ _____    ______ ____
ROOT
ATOM      1  N   UNL     1       3.364   2.952  17.730  0.00  0.00    +0.000 N 
ATOM      2  C   UNL     1       3.891   2.054  18.747  0.00  0.00    +0.000 C 
ATOM      3  C   UNL     1       3.772   2.557  20.194  0.00  0.00    +0.000 C 
ATOM      4  O   UNL     1       4.404   2.036  21.095  0.00  0.00    +0.000 OA
ATOM      5  N   UNL     1       2.709   3.439  20.410  0.00  0.00    +0.000 N 
ATOM      6  C   UNL     1       2.149   3.571  21.743  0.00  0.00    +0.000 C 
ATOM      7  C   UNL     1       2.196   4.334  19.340  0.00  0.00    +0.000 C 
ATOM      8  C   UNL     1       2.170   3.614  17.985  0.00  0.00    +0.000 C 
ATOM      9  O   UNL     1       1.324   3.854  17.132  0.00  0.00    +0.000 OA
ENDROOT
BRANCH   1  10
ATOM     10  C   UNL     1       3.964   3.028  16.409  0.00  0.00    +0.000 C 
BRANCH  10  11
ATOM     11  C   UNL     1       5.330   3.698  16.285  0.00  0.00    +0.000 C 
BRANCH  11  12
ATOM     12  C   UNL     1       5.383   4.971  15.437  0.00  0.00    +0.000 C 
BRANCH  12  13
ATOM     13  C   UNL     1       5.754   6.261  16.181  0.00  0.00    +0.000 C 
BRANCH  13  14
ATOM     14  C   UNL     1       7.162   6.230  16.779  0.00  0.00    +0.000 C 
BRANCH  14  15
ATOM     15  C   UNL     1       7.171   6.589  18.267  0.00  0.00    +0.000 C 
BRANCH  15  17
ATOM     16  C   UNL     1       8.067   8.936  17.958  0.00  0.00    +0.000 C 
ATOM     17  C   UNL     1       8.307   7.568  18.574  0.00  0.00    +0.000 C 
ENDBRANCH  15  17
ENDBRANCH  14  15
ENDBRANCH  13  14
ENDBRANCH  12  13
ENDBRANCH  11  12
ENDBRANCH  10  11
ENDBRANCH   1  10
BRANCH   7  18
ATOM     18  C   UNL     1       3.035   5.653  19.214  0.00  0.00    +0.000 C 
BRANCH  18  19
ATOM     19  C   UNL     1       2.380   6.970  19.619  0.00  0.00    +0.000 A 
ATOM     20  C   UNL     1       2.258   7.972  18.661  0.00  0.00    +0.000 A 
ATOM     21  C   UNL     1       1.511   9.124  18.897  0.00  0.00    +0.000 A 
ATOM     22  C   UNL     1       0.811   9.333  20.095  0.00  0.00    +0.000 A 
ATOM     23  C   UNL     1       0.968   8.349  21.090  0.00  0.00    +0.000 A 
ATOM     24  C   UNL     1       1.746   7.189  20.859  0.00  0.00    +0.000 A 
BRANCH  22  25
ATOM     25  C   UNL     1       0.021  10.586  20.240  0.00  0.00    +0.000 A 
ATOM     26  C   UNL     1       0.077  11.607  19.271  0.00  0.00    +0.000 A 
ATOM     27  C   UNL     1      -0.448  12.894  19.506  0.00  0.00    +0.000 A 
ATOM     28  C   UNL     1      -0.167  13.988  18.503  0.00  0.00    +0.000 C 
ATOM     29  C   UNL     1      -1.142  13.160  20.702  0.00  0.00    +0.000 A 
ATOM     30  C   UNL     1      -1.236  12.153  21.678  0.00  0.00    +0.000 A 
ATOM     31  C   UNL     1      -1.742  12.296  23.086  0.00  0.00    +0.000 C 
ATOM     32  C   UNL     1      -0.663  10.881  21.415  0.00  0.00    +0.000 A 
BRANCH  29  33
ATOM     33  O   UNL     1      -1.566  14.457  20.825  0.00  0.00    +0.000 OA
ATOM     34  C   UNL     1      -2.965  14.698  20.845  0.00  0.00    +0.000 C 
ENDBRANCH  29  33
ENDBRANCH  22  25
ENDBRANCH  18  19
ENDBRANCH   7  18
TORSDOF 11
ENDMDL
MODEL 5
REMARK VINA RESULT:      -7.5      1.493      2.233
REMARK  Name = 
REMARK  16 active torsions:
REMARK  status: ('A' for Active; 'I' for Inactive)
REMARK    1  A    between atoms: C_1  and  C_2
REMARK    2  A    between atoms: C_2  and  C_3
REMARK    3  A    between atoms: C_3  and  C_4
REMARK    4  A    between atoms: C_4  and  C_5
REMARK    5  A    between atoms: C_5  and  C_6
REMARK    6  A    between atoms: C_6  and  C_7
REMARK    7  A    between atoms: C_7  and  C_8
REMARK    8  A    between atoms: C_8  and  N_9
REMARK    9  A    between atoms: N_13  and  C_14
REMARK   10  A    between atoms: C_15  and  C_16
REMARK   11  A    between atoms: C_16  and  C_17
REMARK   12  A    between atoms: C_20  and  C_21
REMARK   13  A    between atoms: C_23  and  C_24
REMARK   14  A    between atoms: C_25  and  O_26
REMARK   15  A    between atoms: O_26  and  C_27
REMARK   16  A    between atoms: C_28  and  C_29
REMARK                            x       y       z     vdW  Elec       q    Type
REMARK                         _______ _______ _______ _____ _____    ______ ____
ROOT
ATOM      1  N   UNL     1       3.730   3.176  18.108  0.00  0.00    +0.000 N 
ATOM      2  C   UNL     1       4.107   2.167  19.086  0.00  0.00    +0.000 C 
ATOM      3  C   UNL     1       3.673   2.458  20.532  0.00  0.00    +0.000 C 
ATOM      4  O   UNL     1       4.151   1.843  21.468  0.00  0.00    +0.000 OA
ATOM      5  N   UNL     1       2.532   3.257  20.640  0.00  0.00    +0.000 N 
ATOM      6  C   UNL     1       1.715   3.180  21.837  0.00  0.00    +0.000 C 
ATOM      7  C   UNL     1       2.179   4.271  19.611  0.00  0.00    +0.000 C 
ATOM      8  C   UNL     1       2.467   3.746  18.199  0.00  0.00    +0.000 C 
ATOM      9  O   UNL     1       1.789   4.069  17.229  0.00  0.00    +0.000 OA
ENDROOT
BRANCH   1  10
ATOM     10  C   UNL     1       4.570   3.459  16.957  0.00  0.00    +0.000 C 
BRANCH  10  11
ATOM     11  C   UNL     1       4.483   4.851  16.337  0.00  0.00    +0.000 C 
BRANCH  11  12
ATOM     12  C   UNL     1       5.184   5.976  17.103  0.00  0.00    +0.000 C 
BRANCH  12  13
ATOM     13  C   UNL     1       5.978   5.551  18.346  0.00  0.00    +0.000 C 
BRANCH  13  14
ATOM     14  C   UNL     1       7.493   5.577  18.134  0.00  0.00    +0.000 C 
BRANCH  14  15
ATOM     15  C   UNL     1       8.123   6.895  18.594  0.00  0.00    +0.000 C 
BRANCH  15  17
ATOM     16  C   UNL     1       8.323   9.362  18.065  0.00  0.00    +0.000 C 
ATOM     17  C   UNL     1       7.835   8.007  17.582  0.00  0.00    +0.000 C 
ENDBRANCH  15  17
ENDBRANCH  14  15
ENDBRANCH  13  14
ENDBRANCH  12  13
ENDBRANCH  11  12
ENDBRANCH  10  11
ENDBRANCH   1  10
BRANCH   7  18
ATOM     18  C   UNL     1       2.935   5.628  19.828  0.00  0.00    +0.000 C 
BRANCH  18  19
ATOM     19  C   UNL     1       2.117   6.915  19.870  0.00  0.00    +0.000 A 
ATOM     20  C   UNL     1       1.464   7.247  21.054  0.00  0.00    +0.000 A 
ATOM     21  C   UNL     1       0.855   8.488  21.231  0.00  0.00    +0.000 A 
ATOM     22  C   UNL     1       0.889   9.489  20.248  0.00  0.00    +0.000 A 
ATOM     23  C   UNL     1       1.505   9.146  19.029  0.00  0.00    +0.000 A 
ATOM     24  C   UNL     1       2.103   7.876  18.839  0.00  0.00    +0.000 A 
BRANCH  22  25
ATOM     25  C   UNL     1       0.232  10.790  20.544  0.00  0.00    +0.000 A 
ATOM     26  C   UNL     1      -0.612  10.951  21.661  0.00  0.00    +0.000 A 
ATOM     27  C   UNL     1      -1.443  12.078  21.818  0.00  0.00    +0.000 A 
ATOM     28  C   UNL     1      -2.465  12.079  22.931  0.00  0.00    +0.000 C 
ATOM     29  C   UNL     1      -1.371  13.136  20.891  0.00  0.00    +0.000 A 
ATOM     30  C   UNL     1      -0.521  13.016  19.778  0.00  0.00    +0.000 A 
ATOM     31  C   UNL     1      -0.456  13.923  18.582  0.00  0.00    +0.000 C 
ATOM     32  C   UNL     1       0.274  11.847  19.640  0.00  0.00    +0.000 A 
BRANCH  29  33
ATOM     33  O   UNL     1      -2.258  14.152  21.133  0.00  0.00    +0.000 OA
ATOM     34  C   UNL     1      -1.745  15.372  21.647  0.00  0.00    +0.000 C 
ENDBRANCH  29  33
ENDBRANCH  22  25
ENDBRANCH  18  19
ENDBRANCH   7  18
TORSDOF 11
ENDMDL
MODEL 6
REMARK VINA RESULT:      -7.5      2.286      4.532
REMARK  Name = 
REMARK  16 active torsions:
REMARK  status: ('A' for Active; 'I' for Inactive)
REMARK    1  A    between atoms: C_1  and  C_2
REMARK    2  A    between atoms: C_2  and  C_3
REMARK    3  A    between atoms: C_3  and  C_4
REMARK    4  A    between atoms: C_4  and  C_5
REMARK    5  A    between atoms: C_5  and  C_6
REMARK    6  A    between atoms: C_6  and  C_7
REMARK    7  A    between atoms: C_7  and  C_8
REMARK    8  A    between atoms: C_8  and  N_9
REMARK    9  A    between atoms: N_13  and  C_14
REMARK   10  A    between atoms: C_15  and  C_16
REMARK   11  A    between atoms: C_16  and  C_17
REMARK   12  A    between atoms: C_20  and  C_21
REMARK   13  A    between atoms: C_23  and  C_24
REMARK   14  A    between atoms: C_25  and  O_26
REMARK   15  A    between atoms: O_26  and  C_27
REMARK   16  A    between atoms: C_28  and  C_29
REMARK                            x       y       z     vdW  Elec       q    Type
REMARK                         _______ _______ _______ _____ _____    ______ ____
ROOT
ATOM      1  N   UNL     1       5.229   3.951  17.359  0.00  0.00    +0.000 N 
ATOM      2  C   UNL     1       6.410   4.044  16.514  0.00  0.00    +0.000 C 
ATOM      3  C   UNL     1       6.874   5.473  16.187  0.00  0.00    +0.000 C 
ATOM      4  O   UNL     1       7.668   5.687  15.289  0.00  0.00    +0.000 OA
ATOM      5  N   UNL     1       6.533   6.423  17.154  0.00  0.00    +0.000 N 
ATOM      6  C   UNL     1       7.318   7.639  17.271  0.00  0.00    +0.000 C 
ATOM      7  C   UNL     1       5.321   6.284  18.003  0.00  0.00    +0.000 C 
ATOM      8  C   UNL     1       5.113   4.826  18.432  0.00  0.00    +0.000 C 
ATOM      9  O   UNL     1       4.613   4.524  19.510  0.00  0.00    +0.000 OA
ENDROOT
BRANCH   1  10
ATOM     10  C   UNL     1       4.279   2.863  17.207  0.00  0.00    +0.000 C 
BRANCH  10  11
ATOM     11  C   UNL     1       2.823   3.133  17.575  0.00  0.00    +0.000 C 
BRANCH  11  12
ATOM     12  C   UNL     1       2.144   2.083  18.458  0.00  0.00    +0.000 C 
BRANCH  12  13
ATOM     13  C   UNL     1       0.641   2.277  18.702  0.00  0.00    +0.000 C 
BRANCH  13  14
ATOM     14  C   UNL     1       0.334   3.085  19.965  0.00  0.00    +0.000 C 
BRANCH  14  15
ATOM     15  C   UNL     1       1.233   4.316  20.102  0.00  0.00    +0.000 C 
BRANCH  15  17
ATOM     16  C   UNL     1       2.037   2.865  22.014  0.00  0.00    +0.000 C 
ATOM     17  C   UNL     1       2.017   4.262  21.416  0.00  0.00    +0.000 C 
ENDBRANCH  15  17
ENDBRANCH  14  15
ENDBRANCH  13  14
ENDBRANCH  12  13
ENDBRANCH  11  12
ENDBRANCH  10  11
ENDBRANCH   1  10
BRANCH   7  18
ATOM     18  C   UNL     1       4.028   6.807  17.286  0.00  0.00    +0.000 C 
BRANCH  18  19
ATOM     19  C   UNL     1       3.121   7.774  18.040  0.00  0.00    +0.000 A 
ATOM     20  C   UNL     1       2.769   8.971  17.423  0.00  0.00    +0.000 A 
ATOM     21  C   UNL     1       1.803   9.817  17.963  0.00  0.00    +0.000 A 
ATOM     22  C   UNL     1       1.102   9.504  19.138  0.00  0.00    +0.000 A 
ATOM     23  C   UNL     1       1.484   8.319  19.796  0.00  0.00    +0.000 A 
ATOM     24  C   UNL     1       2.483   7.471  19.260  0.00  0.00    +0.000 A 
BRANCH  22  25
ATOM     25  C   UNL     1       0.070  10.462  19.619  0.00  0.00    +0.000 A 
ATOM     26  C   UNL     1       0.012  10.864  20.968  0.00  0.00    +0.000 A 
ATOM     27  C   UNL     1      -1.096  11.555  21.499  0.00  0.00    +0.000 A 
ATOM     28  C   UNL     1      -1.172  11.767  22.993  0.00  0.00    +0.000 C 
ATOM     29  C   UNL     1      -2.146  11.952  20.649  0.00  0.00    +0.000 A 
ATOM     30  C   UNL     1      -2.106  11.587  19.293  0.00  0.00    +0.000 A 
ATOM     31  C   UNL     1      -3.208  11.727  18.281  0.00  0.00    +0.000 C 
ATOM     32  C   UNL     1      -0.987  10.861  18.806  0.00  0.00    +0.000 A 
BRANCH  29  33
ATOM     33  O   UNL     1      -3.180  12.579  21.295  0.00  0.00    +0.000 OA
ATOM     34  C   UNL     1      -3.322  13.979  21.116  0.00  0.00    +0.000 C 
ENDBRANCH  29  33
ENDBRANCH  22  25
ENDBRANCH  18  19
ENDBRANCH   7  18
TORSDOF 11
ENDMDL
MODEL 7
REMARK VINA RESULT:      -7.5      1.957      4.222
REMARK  Name = 
REMARK  16 active torsions:
REMARK  status: ('A' for Active; 'I' for Inactive)
REMARK    1  A    between atoms: C_1  and  C_2
REMARK    2  A    between atoms: C_2  and  C_3
REMARK    3  A    between atoms: C_3  and  C_4
REMARK    4  A    between atoms: C_4  and  C_5
REMARK    5  A    between atoms: C_5  and  C_6
REMARK    6  A    between atoms: C_6  and  C_7
REMARK    7  A    between atoms: C_7  and  C_8
REMARK    8  A    between atoms: C_8  and  N_9
REMARK    9  A    between atoms: N_13  and  C_14
REMARK   10  A    between atoms: C_15  and  C_16
REMARK   11  A    between atoms: C_16  and  C_17
REMARK   12  A    between atoms: C_20  and  C_21
REMARK   13  A    between atoms: C_23  and  C_24
REMARK   14  A    between atoms: C_25  and  O_26
REMARK   15  A    between atoms: O_26  and  C_27
REMARK   16  A    between atoms: C_28  and  C_29
REMARK                            x       y       z     vdW  Elec       q    Type
REMARK                         _______ _______ _______ _____ _____    ______ ____
ROOT
ATOM      1  N   UNL     1       4.913   3.799  18.211  0.00  0.00    +0.000 N 
ATOM      2  C   UNL     1       5.334   3.485  16.853  0.00  0.00    +0.000 C 
ATOM      3  C   UNL     1       5.063   4.583  15.812  0.00  0.00    +0.000 C 
ATOM      4  O   UNL     1       5.117   4.344  14.619  0.00  0.00    +0.000 OA
ATOM      5  N   UNL     1       5.030   5.877  16.336  0.00  0.00    +0.000 N 
ATOM      6  C   UNL     1       5.318   7.007  15.471  0.00  0.00    +0.000 C 
ATOM      7  C   UNL     1       4.602   6.153  17.733  0.00  0.00    +0.000 C 
ATOM      8  C   UNL     1       5.137   5.082  18.693  0.00  0.00    +0.000 C 
ATOM      9  O   UNL     1       5.437   5.335  19.855  0.00  0.00    +0.000 OA
ENDROOT
BRANCH   1  10
ATOM     10  C   UNL     1       4.437   2.761  19.110  0.00  0.00    +0.000 C 
BRANCH  10  11
ATOM     11  C   UNL     1       3.686   1.582  18.501  0.00  0.00    +0.000 C 
BRANCH  11  12
ATOM     12  C   UNL     1       2.163   1.719  18.424  0.00  0.00    +0.000 C 
BRANCH  12  13
ATOM     13  C   UNL     1       1.617   3.153  18.383  0.00  0.00    +0.000 C 
BRANCH  13  14
ATOM     14  C   UNL     1       0.799   3.523  19.622  0.00  0.00    +0.000 C 
BRANCH  14  15
ATOM     15  C   UNL     1       1.133   2.638  20.827  0.00  0.00    +0.000 C 
BRANCH  15  17
ATOM     16  C   UNL     1       2.328   4.802  21.373  0.00  0.00    +0.000 C 
ATOM     17  C   UNL     1       2.138   3.341  21.743  0.00  0.00    +0.000 C 
ENDBRANCH  15  17
ENDBRANCH  14  15
ENDBRANCH  13  14
ENDBRANCH  12  13
ENDBRANCH  11  12
ENDBRANCH  10  11
ENDBRANCH   1  10
BRANCH   7  18
ATOM     18  C   UNL     1       3.043   6.246  17.871  0.00  0.00    +0.000 C 
BRANCH  18  19
ATOM     19  C   UNL     1       2.445   7.494  18.512  0.00  0.00    +0.000 A 
ATOM     20  C   UNL     1       2.160   8.586  17.698  0.00  0.00    +0.000 A 
ATOM     21  C   UNL     1       1.446   9.686  18.171  0.00  0.00    +0.000 A 
ATOM     22  C   UNL     1       0.943   9.748  19.480  0.00  0.00    +0.000 A 
ATOM     23  C   UNL     1       1.267   8.670  20.326  0.00  0.00    +0.000 A 
ATOM     24  C   UNL     1       2.013   7.564  19.853  0.00  0.00    +0.000 A 
BRANCH  22  25
ATOM     25  C   UNL     1       0.170  10.955  19.881  0.00  0.00    +0.000 A 
ATOM     26  C   UNL     1       0.230  12.148  19.134  0.00  0.00    +0.000 A 
ATOM     27  C   UNL     1      -0.276  13.368  19.626  0.00  0.00    +0.000 A 
ATOM     28  C   UNL     1       0.010  14.637  18.857  0.00  0.00    +0.000 C 
ATOM     29  C   UNL     1      -0.955  13.399  20.859  0.00  0.00    +0.000 A 
ATOM     30  C   UNL     1      -1.052  12.218  21.617  0.00  0.00    +0.000 A 
ATOM     31  C   UNL     1      -1.541  12.085  23.031  0.00  0.00    +0.000 C 
ATOM     32  C   UNL     1      -0.497  11.018  21.100  0.00  0.00    +0.000 A 
BRANCH  29  33
ATOM     33  O   UNL     1      -1.360  14.650  21.243  0.00  0.00    +0.000 OA
ATOM     34  C   UNL     1      -2.744  14.954  21.156  0.00  0.00    +0.000 C 
ENDBRANCH  29  33
ENDBRANCH  22  25
ENDBRANCH  18  19
ENDBRANCH   7  18
TORSDOF 11
ENDMDL
MODEL 8
REMARK VINA RESULT:      -7.3      1.825      2.885
REMARK  Name = 
REMARK  16 active torsions:
REMARK  status: ('A' for Active; 'I' for Inactive)
REMARK    1  A    between atoms: C_1  and  C_2
REMARK    2  A    between atoms: C_2  and  C_3
REMARK    3  A    between atoms: C_3  and  C_4
REMARK    4  A    between atoms: C_4  and  C_5
REMARK    5  A    between atoms: C_5  and  C_6
REMARK    6  A    between atoms: C_6  and  C_7
REMARK    7  A    between atoms: C_7  and  C_8
REMARK    8  A    between atoms: C_8  and  N_9
REMARK    9  A    between atoms: N_13  and  C_14
REMARK   10  A    between atoms: C_15  and  C_16
REMARK   11  A    between atoms: C_16  and  C_17
REMARK   12  A    between atoms: C_20  and  C_21
REMARK   13  A    between atoms: C_23  and  C_24
REMARK   14  A    between atoms: C_25  and  O_26
REMARK   15  A    between atoms: O_26  and  C_27
REMARK   16  A    between atoms: C_28  and  C_29
REMARK                            x       y       z     vdW  Elec       q    Type
REMARK                         _______ _______ _______ _____ _____    ______ ____
ROOT
ATOM      1  N   UNL     1       3.600   3.589  17.710  0.00  0.00    +0.000 N 
ATOM      2  C   UNL     1       4.197   2.503  18.473  0.00  0.00    +0.000 C 
ATOM      3  C   UNL     1       4.014   2.591  19.996  0.00  0.00    +0.000 C 
ATOM      4  O   UNL     1       4.681   1.907  20.751  0.00  0.00    +0.000 OA
ATOM      5  N   UNL     1       2.871   3.287  20.398  0.00  0.00    +0.000 N 
ATOM      6  C   UNL     1       2.285   3.011  21.698  0.00  0.00    +0.000 C 
ATOM      7  C   UNL     1       2.288   4.386  19.584  0.00  0.00    +0.000 C 
ATOM      8  C   UNL     1       2.346   4.052  18.087  0.00  0.00    +0.000 C 
ATOM      9  O   UNL     1       1.491   4.435  17.297  0.00  0.00    +0.000 OA
ENDROOT
BRANCH   1  10
ATOM     10  C   UNL     1       4.206   4.065  16.478  0.00  0.00    +0.000 C 
BRANCH  10  11
ATOM     11  C   UNL     1       5.568   3.497  16.089  0.00  0.00    +0.000 C 
BRANCH  11  12
ATOM     12  C   UNL     1       6.669   4.521  15.802  0.00  0.00    +0.000 C 
BRANCH  12  13
ATOM     13  C   UNL     1       6.869   4.900  14.328  0.00  0.00    +0.000 C 
BRANCH  13  14
ATOM     14  C   UNL     1       6.480   3.782  13.359  0.00  0.00    +0.000 C 
BRANCH  14  15
ATOM     15  C   UNL     1       5.125   4.035  12.691  0.00  0.00    +0.000 C 
BRANCH  15  17
ATOM     16  C   UNL     1       3.737   3.358  10.685  0.00  0.00    +0.000 C 
ATOM     17  C   UNL     1       4.825   2.943  11.660  0.00  0.00    +0.000 C 
ENDBRANCH  15  17
ENDBRANCH  14  15
ENDBRANCH  13  14
ENDBRANCH  12  13
ENDBRANCH  11  12
ENDBRANCH  10  11
ENDBRANCH   1  10
BRANCH   7  18
ATOM     18  C   UNL     1       3.001   5.759  19.840  0.00  0.00    +0.000 C 
BRANCH  18  19
ATOM     19  C   UNL     1       2.185   7.039  19.687  0.00  0.00    +0.000 A 
ATOM     20  C   UNL     1       1.505   7.528  20.799  0.00  0.00    +0.000 A 
ATOM     21  C   UNL     1       0.894   8.780  20.792  0.00  0.00    +0.000 A 
ATOM     22  C   UNL     1       0.953   9.639  19.684  0.00  0.00    +0.000 A 
ATOM     23  C   UNL     1       1.597   9.134  18.537  0.00  0.00    +0.000 A 
ATOM     24  C   UNL     1       2.196   7.852  18.535  0.00  0.00    +0.000 A 
BRANCH  22  25
ATOM     25  C   UNL     1       0.291  10.967  19.784  0.00  0.00    +0.000 A 
ATOM     26  C   UNL     1       0.927  12.061  20.404  0.00  0.00    +0.000 A 
ATOM     27  C   UNL     1       0.233  13.240  20.742  0.00  0.00    +0.000 A 
ATOM     28  C   UNL     1       0.933  14.280  21.586  0.00  0.00    +0.000 C 
ATOM     29  C   UNL     1      -1.116  13.390  20.368  0.00  0.00    +0.000 A 
ATOM     30  C   UNL     1      -1.772  12.325  19.727  0.00  0.00    +0.000 A 
ATOM     31  C   UNL     1      -3.242  12.204  19.440  0.00  0.00    +0.000 C 
ATOM     32  C   UNL     1      -1.045  11.141  19.436  0.00  0.00    +0.000 A 
BRANCH  29  33
ATOM     33  O   UNL     1      -1.686  14.563  20.791  0.00  0.00    +0.000 OA
ATOM     34  C   UNL     1      -3.089  14.579  21.005  0.00  0.00    +0.000 C 
ENDBRANCH  29  33
ENDBRANCH  22  25
ENDBRANCH  18  19
ENDBRANCH   7  18
TORSDOF 11
ENDMDL
MODEL 9
REMARK VINA RESULT:      -7.3      1.846      2.771
REMARK  Name = 
REMARK  16 active torsions:
REMARK  status: ('A' for Active; 'I' for Inactive)
REMARK    1  A    between atoms: C_1  and  C_2
REMARK    2  A    between atoms: C_2  and  C_3
REMARK    3  A    between atoms: C_3  and  C_4
REMARK    4  A    between atoms: C_4  and  C_5
REMARK    5  A    between atoms: C_5  and  C_6
REMARK    6  A    between atoms: C_6  and  C_7
REMARK    7  A    between atoms: C_7  and  C_8
REMARK    8  A    between atoms: C_8  and  N_9
REMARK    9  A    between atoms: N_13  and  C_14
REMARK   10  A    between atoms: C_15  and  C_16
REMARK   11  A    between atoms: C_16  and  C_17
REMARK   12  A    between atoms: C_20  and  C_21
REMARK   13  A    between atoms: C_23  and  C_24
REMARK   14  A    between atoms: C_25  and  O_26
REMARK   15  A    between atoms: O_26  and  C_27
REMARK   16  A    between atoms: C_28  and  C_29
REMARK                            x       y       z     vdW  Elec       q    Type
REMARK                         _______ _______ _______ _____ _____    ______ ____
ROOT
ATOM      1  N   UNL     1       3.130   3.018  17.900  0.00  0.00    +0.000 N 
ATOM      2  C   UNL     1       3.669   2.085  18.880  0.00  0.00    +0.000 C 
ATOM      3  C   UNL     1       3.622   2.565  20.339  0.00  0.00    +0.000 C 
ATOM      4  O   UNL     1       4.273   2.008  21.205  0.00  0.00    +0.000 OA
ATOM      5  N   UNL     1       2.597   3.474  20.613  0.00  0.00    +0.000 N 
ATOM      6  C   UNL     1       2.094   3.598  21.969  0.00  0.00    +0.000 C 
ATOM      7  C   UNL     1       2.070   4.404  19.580  0.00  0.00    +0.000 C 
ATOM      8  C   UNL     1       1.968   3.710  18.215  0.00  0.00    +0.000 C 
ATOM      9  O   UNL     1       1.096   3.992  17.400  0.00  0.00    +0.000 OA
ENDROOT
BRANCH   1  10
ATOM     10  C   UNL     1       3.680   3.100  16.558  0.00  0.00    +0.000 C 
BRANCH  10  11
ATOM     11  C   UNL     1       5.095   3.649  16.400  0.00  0.00    +0.000 C 
BRANCH  11  12
ATOM     12  C   UNL     1       5.216   5.167  16.246  0.00  0.00    +0.000 C 
BRANCH  12  13
ATOM     13  C   UNL     1       6.067   5.659  15.067  0.00  0.00    +0.000 C 
BRANCH  13  14
ATOM     14  C   UNL     1       6.697   4.521  14.261  0.00  0.00    +0.000 C 
BRANCH  14  15
ATOM     15  C   UNL     1       7.333   5.013  12.958  0.00  0.00    +0.000 C 
BRANCH  15  17
ATOM     16  C   UNL     1       5.986   3.018  12.174  0.00  0.00    +0.000 C 
ATOM     17  C   UNL     1       7.088   4.006  11.831  0.00  0.00    +0.000 C 
ENDBRANCH  15  17
ENDBRANCH  14  15
ENDBRANCH  13  14
ENDBRANCH  12  13
ENDBRANCH  11  12
ENDBRANCH  10  11
ENDBRANCH   1  10
BRANCH   7  18
ATOM     18  C   UNL     1       2.943   5.699  19.443  0.00  0.00    +0.000 C 
BRANCH  18  19
ATOM     19  C   UNL     1       2.284   7.049  19.705  0.00  0.00    +0.000 A 
ATOM     20  C   UNL     1       2.182   7.953  18.651  0.00  0.00    +0.000 A 
ATOM     21  C   UNL     1       1.433   9.123  18.760  0.00  0.00    +0.000 A 
ATOM     22  C   UNL     1       0.711   9.448  19.918  0.00  0.00    +0.000 A 
ATOM     23  C   UNL     1       0.847   8.565  21.007  0.00  0.00    +0.000 A 
ATOM     24  C   UNL     1       1.627   7.388  20.906  0.00  0.00    +0.000 A 
BRANCH  22  25
ATOM     25  C   UNL     1      -0.079  10.709  19.926  0.00  0.00    +0.000 A 
ATOM     26  C   UNL     1       0.208  11.751  20.829  0.00  0.00    +0.000 A 
ATOM     27  C   UNL     1      -0.674  12.831  21.033  0.00  0.00    +0.000 A 
ATOM     28  C   UNL     1      -0.394  13.795  22.163  0.00  0.00    +0.000 C 
ATOM     29  C   UNL     1      -1.838  12.944  20.248  0.00  0.00    +0.000 A 
ATOM     30  C   UNL     1      -2.139  11.932  19.321  0.00  0.00    +0.000 A 
ATOM     31  C   UNL     1      -3.416  11.757  18.549  0.00  0.00    +0.000 C 
ATOM     32  C   UNL     1      -1.240  10.842  19.171  0.00  0.00    +0.000 A 
BRANCH  29  33
ATOM     33  O   UNL     1      -2.629  14.015  20.573  0.00  0.00    +0.000 OA
ATOM     34  C   UNL     1      -3.820  13.761  21.303  0.00  0.00    +0.000 C 
ENDBRANCH  29  33
ENDBRANCH  22  25
ENDBRANCH  18  19
ENDBRANCH   7  18
TORSDOF 11
ENDMDL
