MODEL 1
REMARK VINA RESULT:      -7.1      0.000      0.000
REMARK  Name = 
REMARK  6 active torsions:
REMARK  status: ('A' for Active; 'I' for Inactive)
REMARK    1  A    between atoms: C_2  and  C_3
REMARK    2  A    between atoms: C_3  and  O_4
REMARK    3  A    between atoms: O_4  and  C_5
REMARK    4  A    between atoms: C_5  and  C_7
REMARK    5  A    between atoms: C_8  and  C_9
REMARK    6  A    between atoms: N_14  and  C_15
REMARK                            x       y       z     vdW  Elec       q    Type
REMARK                         _______ _______ _______ _____ _____    ______ ____
ROOT
ATOM      1  C   UNL     1       5.992   5.595  18.343  0.00  0.00    +0.000 C 
ENDROOT
BRANCH   1   3
ATOM      2  O   UNL     1       5.481   4.246  16.397  0.00  0.00    +0.000 OA
ATOM      3  C   UNL     1       5.112   4.667  17.490  0.00  0.00    +0.000 C 
ATOM      4  N   UNL     1       3.881   4.391  18.040  0.00  0.00    +0.000 N 
ATOM      5  H   UNL     1       3.611   4.959  18.845  0.00  0.00    +0.000 HD
BRANCH   4   6
ATOM      6  C   UNL     1       2.832   3.600  17.399  0.00  0.00    +0.000 C 
ATOM      7  C   UNL     1       2.898   2.104  17.743  0.00  0.00    +0.000 C 
ATOM      8  C   UNL     1       2.711   1.870  19.239  0.00  0.00    +0.000 C 
ATOM      9  C   UNL     1       1.378   2.435  19.719  0.00  0.00    +0.000 C 
ATOM     10  C   UNL     1       1.176   3.894  19.310  0.00  0.00    +0.000 C 
ATOM     11  C   UNL     1       1.455   4.137  17.823  0.00  0.00    +0.000 C 
ENDBRANCH   4   6
ENDBRANCH   1   3
BRANCH   1  12
ATOM     12  O   UNL     1       6.190   6.913  17.825  0.00  0.00    +0.000 OA
BRANCH  12  13
ATOM     13  C   UNL     1       7.406   7.143  17.284  0.00  0.00    +0.000 C 
ATOM     14  O   UNL     1       7.835   6.648  16.251  0.00  0.00    +0.000 OA
BRANCH  13  15
ATOM     15  C   UNL     1       8.137   8.097  18.137  0.00  0.00    +0.000 C 
ATOM     16  C   UNL     1       8.190   9.389  17.775  0.00  0.00    +0.000 C 
BRANCH  16  17
ATOM     17  C   UNL     1       8.886  10.368  18.542  0.00  0.00    +0.000 A 
ATOM     18  C   UNL     1       9.511  10.282  19.777  0.00  0.00    +0.000 A 
ATOM     19  C   UNL     1      10.095  11.511  20.202  0.00  0.00    +0.000 A 
ATOM     20  C   UNL     1       9.908  12.512  19.281  0.00  0.00    +0.000 A 
ATOM     21  S   UNL     1       9.037  11.971  17.917  0.00  0.00    +0.000 S 
ENDBRANCH  16  17
ENDBRANCH  13  15
ENDBRANCH  12  13
ENDBRANCH   1  12
TORSDOF 6
ENDMDL
MODEL 2
REMARK VINA RESULT:      -7.1      1.244      1.631
REMARK  Name = 
REMARK  6 active torsions:
REMARK  status: ('A' for Active; 'I' for Inactive)
REMARK    1  A    between atoms: C_2  and  C_3
REMARK    2  A    between atoms: C_3  and  O_4
REMARK    3  A    between atoms: O_4  and  C_5
REMARK    4  A    between atoms: C_5  and  C_7
REMARK    5  A    between atoms: C_8  and  C_9
REMARK    6  A    between atoms: N_14  and  C_15
REMARK                            x       y       z     vdW  Elec       q    Type
REMARK                         _______ _______ _______ _____ _____    ______ ____
ROOT
ATOM      1  C   UNL     1       5.662   6.748  16.925  0.00  0.00    +0.000 C 
ENDROOT
BRANCH   1   3
ATOM      2  O   UNL     1       6.151   4.424  16.446  0.00  0.00    +0.000 OA
ATOM      3  C   UNL     1       5.450   5.231  17.051  0.00  0.00    +0.000 C 
ATOM      4  N   UNL     1       4.396   4.871  17.860  0.00  0.00    +0.000 N 
ATOM      5  H   UNL     1       3.767   5.625  18.139  0.00  0.00    +0.000 HD
BRANCH   4   6
ATOM      6  C   UNL     1       3.938   3.501  18.086  0.00  0.00    +0.000 C 
ATOM      7  C   UNL     1       3.710   3.169  19.568  0.00  0.00    +0.000 C 
ATOM      8  C   UNL     1       2.625   4.054  20.175  0.00  0.00    +0.000 C 
ATOM      9  C   UNL     1       1.308   3.899  19.420  0.00  0.00    +0.000 C 
ATOM     10  C   UNL     1       1.468   4.094  17.912  0.00  0.00    +0.000 C 
ATOM     11  C   UNL     1       2.621   3.271  17.327  0.00  0.00    +0.000 C 
ENDBRANCH   4   6
ENDBRANCH   1   3
BRANCH   1  12
ATOM     12  O   UNL     1       7.011   7.172  16.717  0.00  0.00    +0.000 OA
BRANCH  12  13
ATOM     13  C   UNL     1       7.712   7.436  17.842  0.00  0.00    +0.000 C 
ATOM     14  O   UNL     1       8.026   6.621  18.698  0.00  0.00    +0.000 OA
BRANCH  13  15
ATOM     15  C   UNL     1       8.046   8.872  17.871  0.00  0.00    +0.000 C 
ATOM     16  C   UNL     1       8.908   9.323  18.797  0.00  0.00    +0.000 C 
BRANCH  16  17
ATOM     17  C   UNL     1       9.272  10.698  18.894  0.00  0.00    +0.000 A 
ATOM     18  C   UNL     1       9.538  11.641  17.912  0.00  0.00    +0.000 A 
ATOM     19  C   UNL     1       9.875  12.922  18.437  0.00  0.00    +0.000 A 
ATOM     20  C   UNL     1       9.857  12.935  19.810  0.00  0.00    +0.000 A 
ATOM     21  S   UNL     1       9.436  11.413  20.457  0.00  0.00    +0.000 S 
ENDBRANCH  16  17
ENDBRANCH  13  15
ENDBRANCH  12  13
ENDBRANCH   1  12
TORSDOF 6
ENDMDL
MODEL 3
REMARK VINA RESULT:      -7.1      4.192      6.538
REMARK  Name = 
REMARK  6 active torsions:
REMARK  status: ('A' for Active; 'I' for Inactive)
REMARK    1  A    between atoms: C_2  and  C_3
REMARK    2  A    between atoms: C_3  and  O_4
REMARK    3  A    between atoms: O_4  and  C_5
REMARK    4  A    between atoms: C_5  and  C_7
REMARK    5  A    between atoms: C_8  and  C_9
REMARK    6  A    between atoms: N_14  and  C_15
REMARK                            x       y       z     vdW  Elec       q    Type
REMARK                         _______ _______ _______ _____ _____    ______ ____
ROOT
ATOM      1  C   UNL     1       3.478   2.550  19.591  0.00  0.00    +0.000 C 
ENDROOT
BRANCH   1   3
ATOM      2  O   UNL     1       2.849   2.471  17.252  0.00  0.00    +0.000 OA
ATOM      3  C   UNL     1       3.551   2.987  18.119  0.00  0.00    +0.000 C 
ATOM      4  N   UNL     1       4.487   3.963  17.863  0.00  0.00    +0.000 N 
ATOM      5  H   UNL     1       5.145   4.162  18.617  0.00  0.00    +0.000 HD
BRANCH   4   6
ATOM      6  C   UNL     1       4.806   4.497  16.540  0.00  0.00    +0.000 C 
ATOM      7  C   UNL     1       4.773   6.031  16.475  0.00  0.00    +0.000 C 
ATOM      8  C   UNL     1       5.809   6.648  17.410  0.00  0.00    +0.000 C 
ATOM      9  C   UNL     1       7.214   6.163  17.066  0.00  0.00    +0.000 C 
ATOM     10  C   UNL     1       7.308   4.639  16.989  0.00  0.00    +0.000 C 
ATOM     11  C   UNL     1       6.206   4.021  16.120  0.00  0.00    +0.000 C 
ENDBRANCH   4   6
ENDBRANCH   1   3
BRANCH   1  12
ATOM     12  O   UNL     1       3.274   3.598  20.541  0.00  0.00    +0.000 OA
BRANCH  12  13
ATOM     13  C   UNL     1       1.993   3.779  20.932  0.00  0.00    +0.000 C 
ATOM     14  O   UNL     1       1.322   2.983  21.574  0.00  0.00    +0.000 OA
BRANCH  13  15
ATOM     15  C   UNL     1       1.532   5.099  20.467  0.00  0.00    +0.000 C 
ATOM     16  C   UNL     1       2.437   5.989  20.027  0.00  0.00    +0.000 C 
BRANCH  16  17
ATOM     17  C   UNL     1       2.068   7.289  19.571  0.00  0.00    +0.000 A 
ATOM     18  C   UNL     1       2.219   7.896  18.333  0.00  0.00    +0.000 A 
ATOM     19  C   UNL     1       1.712   9.227  18.293  0.00  0.00    +0.000 A 
ATOM     20  C   UNL     1       1.180   9.611  19.499  0.00  0.00    +0.000 A 
ATOM     21  S   UNL     1       1.292   8.373  20.668  0.00  0.00    +0.000 S 
ENDBRANCH  16  17
ENDBRANCH  13  15
ENDBRANCH  12  13
ENDBRANCH   1  12
TORSDOF 6
ENDMDL
MODEL 4
REMARK VINA RESULT:      -6.9      1.105      1.113
REMARK  Name = 
REMARK  6 active torsions:
REMARK  status: ('A' for Active; 'I' for Inactive)
REMARK    1  A    between atoms: C_2  and  C_3
REMARK    2  A    between atoms: C_3  and  O_4
REMARK    3  A    between atoms: O_4  and  C_5
REMARK    4  A    between atoms: C_5  and  C_7
REMARK    5  A    between atoms: C_8  and  C_9
REMARK    6  A    between atoms: N_14  and  C_15
REMARK                            x       y       z     vdW  Elec       q    Type
REMARK                         _______ _______ _______ _____ _____    ______ ____
ROOT
ATOM      1  C   UNL     1       7.410   4.946  18.041  0.00  0.00    +0.000 C 
ENDROOT
BRANCH   1   3
ATOM      2  O   UNL     1       6.162   4.009  16.187  0.00  0.00    +0.000 OA
ATOM      3  C   UNL     1       6.137   4.455  17.331  0.00  0.00    +0.000 C 
ATOM      4  N   UNL     1       4.986   4.597  18.071  0.00  0.00    +0.000 N 
ATOM      5  H   UNL     1       5.062   5.165  18.916  0.00  0.00    +0.000 HD
BRANCH   4   6
ATOM      6  C   UNL     1       3.638   4.279  17.600  0.00  0.00    +0.000 C 
ATOM      7  C   UNL     1       3.201   2.843  17.923  0.00  0.00    +0.000 C 
ATOM      8  C   UNL     1       3.160   2.600  19.429  0.00  0.00    +0.000 C 
ATOM      9  C   UNL     1       2.211   3.578  20.115  0.00  0.00    +0.000 C 
ATOM     10  C   UNL     1       2.501   5.034  19.749  0.00  0.00    +0.000 C 
ATOM     11  C   UNL     1       2.631   5.250  18.237  0.00  0.00    +0.000 C 
ENDBRANCH   4   6
ENDBRANCH   1   3
BRANCH   1  12
ATOM     12  O   UNL     1       7.320   6.230  18.661  0.00  0.00    +0.000 OA
BRANCH  12  13
ATOM     13  C   UNL     1       7.630   7.277  17.864  0.00  0.00    +0.000 C 
ATOM     14  O   UNL     1       7.275   7.422  16.703  0.00  0.00    +0.000 OA
BRANCH  13  15
ATOM     15  C   UNL     1       8.462   8.227  18.624  0.00  0.00    +0.000 C 
ATOM     16  C   UNL     1       8.524   9.507  18.224  0.00  0.00    +0.000 C 
BRANCH  16  17
ATOM     17  C   UNL     1       9.314  10.481  18.901  0.00  0.00    +0.000 A 
ATOM     18  C   UNL     1       9.455  10.759  20.252  0.00  0.00    +0.000 A 
ATOM     19  C   UNL     1      10.356  11.832  20.517  0.00  0.00    +0.000 A 
ATOM     20  C   UNL     1      10.889  12.350  19.362  0.00  0.00    +0.000 A 
ATOM     21  S   UNL     1      10.307  11.547  17.974  0.00  0.00    +0.000 S 
ENDBRANCH  16  17
ENDBRANCH  13  15
ENDBRANCH  12  13
ENDBRANCH   1  12
TORSDOF 6
ENDMDL
MODEL 5
REMARK VINA RESULT:      -6.9      4.127      6.592
REMARK  Name = 
REMARK  6 active torsions:
REMARK  status: ('A' for Active; 'I' for Inactive)
REMARK    1  A    between atoms: C_2  and  C_3
REMARK    2  A    between atoms: C_3  and  O_4
REMARK    3  A    between atoms: O_4  and  C_5
REMARK    4  A    between atoms: C_5  and  C_7
REMARK    5  A    between atoms: C_8  and  C_9
REMARK    6  A    between atoms: N_14  and  C_15
REMARK                            x       y       z     vdW  Elec       q    Type
REMARK                         _______ _______ _______ _____ _____    ______ ____
ROOT
ATOM      1  C   UNL     1       3.217   2.439  19.284  0.00  0.00    +0.000 C 
ENDROOT
BRANCH   1   3
ATOM      2  O   UNL     1       2.409   2.919  17.050  0.00  0.00    +0.000 OA
ATOM      3  C   UNL     1       3.283   3.096  17.895  0.00  0.00    +0.000 C 
ATOM      4  N   UNL     1       4.411   3.855  17.681  0.00  0.00    +0.000 N 
ATOM      5  H   UNL     1       5.155   3.759  18.373  0.00  0.00    +0.000 HD
BRANCH   4   6
ATOM      6  C   UNL     1       4.750   4.521  16.424  0.00  0.00    +0.000 C 
ATOM      7  C   UNL     1       4.759   6.053  16.528  0.00  0.00    +0.000 C 
ATOM      8  C   UNL     1       5.807   6.537  17.526  0.00  0.00    +0.000 C 
ATOM      9  C   UNL     1       7.200   6.054  17.133  0.00  0.00    +0.000 C 
ATOM     10  C   UNL     1       7.253   4.545  16.890  0.00  0.00    +0.000 C 
ATOM     11  C   UNL     1       6.139   4.056  15.957  0.00  0.00    +0.000 C 
ENDBRANCH   4   6
ENDBRANCH   1   3
BRANCH   1  12
ATOM     12  O   UNL     1       3.356   3.324  20.398  0.00  0.00    +0.000 OA
BRANCH  12  13
ATOM     13  C   UNL     1       2.220   3.562  21.089  0.00  0.00    +0.000 C 
ATOM     14  O   UNL     1       1.741   2.836  21.950  0.00  0.00    +0.000 OA
BRANCH  13  15
ATOM     15  C   UNL     1       1.650   4.847  20.646  0.00  0.00    +0.000 C 
ATOM     16  C   UNL     1       2.430   5.940  20.640  0.00  0.00    +0.000 C 
BRANCH  16  17
ATOM     17  C   UNL     1       1.947   7.219  20.234  0.00  0.00    +0.000 A 
ATOM     18  C   UNL     1       1.299   8.215  20.948  0.00  0.00    +0.000 A 
ATOM     19  C   UNL     1       0.977   9.357  20.157  0.00  0.00    +0.000 A 
ATOM     20  C   UNL     1       1.388   9.212  18.855  0.00  0.00    +0.000 A 
ATOM     21  S   UNL     1       2.157   7.711  18.592  0.00  0.00    +0.000 S 
ENDBRANCH  16  17
ENDBRANCH  13  15
ENDBRANCH  12  13
ENDBRANCH   1  12
TORSDOF 6
ENDMDL
MODEL 6
REMARK VINA RESULT:      -6.9      1.263      1.620
REMARK  Name = 
REMARK  6 active torsions:
REMARK  status: ('A' for Active; 'I' for Inactive)
REMARK    1  A    between atoms: C_2  and  C_3
REMARK    2  A    between atoms: C_3  and  O_4
REMARK    3  A    between atoms: O_4  and  C_5
REMARK    4  A    between atoms: C_5  and  C_7
REMARK    5  A    between atoms: C_8  and  C_9
REMARK    6  A    between atoms: N_14  and  C_15
REMARK                            x       y       z     vdW  Elec       q    Type
REMARK                         _______ _______ _______ _____ _____    ______ ____
ROOT
ATOM      1  C   UNL     1       5.314   6.068  17.971  0.00  0.00    +0.000 C 
ENDROOT
BRANCH   1   3
ATOM      2  O   UNL     1       6.196   4.108  19.090  0.00  0.00    +0.000 OA
ATOM      3  C   UNL     1       5.223   4.661  18.584  0.00  0.00    +0.000 C 
ATOM      4  N   UNL     1       3.981   4.076  18.478  0.00  0.00    +0.000 N 
ATOM      5  H   UNL     1       3.316   4.543  17.860  0.00  0.00    +0.000 HD
BRANCH   4   6
ATOM      6  C   UNL     1       3.651   2.719  18.911  0.00  0.00    +0.000 C 
ATOM      7  C   UNL     1       3.348   2.613  20.413  0.00  0.00    +0.000 C 
ATOM      8  C   UNL     1       2.135   3.456  20.795  0.00  0.00    +0.000 C 
ATOM      9  C   UNL     1       0.902   3.028  20.005  0.00  0.00    +0.000 C 
ATOM     10  C   UNL     1       1.154   2.988  18.497  0.00  0.00    +0.000 C 
ATOM     11  C   UNL     1       2.427   2.216  18.130  0.00  0.00    +0.000 C 
ENDBRANCH   4   6
ENDBRANCH   1   3
BRANCH   1  12
ATOM     12  O   UNL     1       6.501   6.803  18.276  0.00  0.00    +0.000 OA
BRANCH  12  13
ATOM     13  C   UNL     1       7.316   7.042  17.224  0.00  0.00    +0.000 C 
ATOM     14  O   UNL     1       7.547   6.267  16.307  0.00  0.00    +0.000 OA
BRANCH  13  15
ATOM     15  C   UNL     1       7.880   8.398  17.355  0.00  0.00    +0.000 C 
ATOM     16  C   UNL     1       8.418   8.771  18.527  0.00  0.00    +0.000 C 
BRANCH  16  17
ATOM     17  C   UNL     1       8.974  10.068  18.733  0.00  0.00    +0.000 A 
ATOM     18  C   UNL     1       9.303  11.070  17.833  0.00  0.00    +0.000 A 
ATOM     19  C   UNL     1       9.847  12.231  18.456  0.00  0.00    +0.000 A 
ATOM     20  C   UNL     1       9.919  12.095  19.820  0.00  0.00    +0.000 A 
ATOM     21  S   UNL     1       9.335  10.579  20.342  0.00  0.00    +0.000 S 
ENDBRANCH  16  17
ENDBRANCH  13  15
ENDBRANCH  12  13
ENDBRANCH   1  12
TORSDOF 6
ENDMDL
MODEL 7
REMARK VINA RESULT:      -6.8      1.019      1.249
REMARK  Name = 
REMARK  6 active torsions:
REMARK  status: ('A' for Active; 'I' for Inactive)
REMARK    1  A    between atoms: C_2  and  C_3
REMARK    2  A    between atoms: C_3  and  O_4
REMARK    3  A    between atoms: O_4  and  C_5
REMARK    4  A    between atoms: C_5  and  C_7
REMARK    5  A    between atoms: C_8  and  C_9
REMARK    6  A    between atoms: N_14  and  C_15
REMARK                            x       y       z     vdW  Elec       q    Type
REMARK                         _______ _______ _______ _____ _____    ______ ____
ROOT
ATOM      1  C   UNL     1       5.765   5.716  18.264  0.00  0.00    +0.000 C 
ENDROOT
BRANCH   1   3
ATOM      2  O   UNL     1       3.941   4.981  16.849  0.00  0.00    +0.000 OA
ATOM      3  C   UNL     1       4.335   5.225  17.986  0.00  0.00    +0.000 C 
ATOM      4  N   UNL     1       3.543   5.124  19.108  0.00  0.00    +0.000 N 
ATOM      5  H   UNL     1       3.915   5.547  19.959  0.00  0.00    +0.000 HD
BRANCH   4   6
ATOM      6  C   UNL     1       2.129   4.754  19.108  0.00  0.00    +0.000 C 
ATOM      7  C   UNL     1       1.880   3.286  18.732  0.00  0.00    +0.000 C 
ATOM      8  C   UNL     1       2.536   2.338  19.732  0.00  0.00    +0.000 C 
ATOM      9  C   UNL     1       2.015   2.588  21.144  0.00  0.00    +0.000 C 
ATOM     10  C   UNL     1       2.113   4.057  21.556  0.00  0.00    +0.000 C 
ATOM     11  C   UNL     1       1.534   5.008  20.502  0.00  0.00    +0.000 C 
ENDBRANCH   4   6
ENDBRANCH   1   3
BRANCH   1  12
ATOM     12  O   UNL     1       6.086   7.014  17.758  0.00  0.00    +0.000 OA
BRANCH  12  13
ATOM     13  C   UNL     1       7.344   7.153  17.284  0.00  0.00    +0.000 C 
ATOM     14  O   UNL     1       7.803   6.593  16.298  0.00  0.00    +0.000 OA
BRANCH  13  15
ATOM     15  C   UNL     1       8.078   8.098  18.145  0.00  0.00    +0.000 C 
ATOM     16  C   UNL     1       8.216   9.372  17.747  0.00  0.00    +0.000 C 
BRANCH  16  17
ATOM     17  C   UNL     1       8.920  10.341  18.520  0.00  0.00    +0.000 A 
ATOM     18  C   UNL     1       9.566  10.235  19.743  0.00  0.00    +0.000 A 
ATOM     19  C   UNL     1      10.152  11.459  20.179  0.00  0.00    +0.000 A 
ATOM     20  C   UNL     1       9.946  12.476  19.279  0.00  0.00    +0.000 A 
ATOM     21  S   UNL     1       9.054  11.955  17.921  0.00  0.00    +0.000 S 
ENDBRANCH  16  17
ENDBRANCH  13  15
ENDBRANCH  12  13
ENDBRANCH   1  12
TORSDOF 6
ENDMDL
MODEL 8
REMARK VINA RESULT:      -6.7      3.731      5.490
REMARK  Name = 
REMARK  6 active torsions:
REMARK  status: ('A' for Active; 'I' for Inactive)
REMARK    1  A    between atoms: C_2  and  C_3
REMARK    2  A    between atoms: C_3  and  O_4
REMARK    3  A    between atoms: O_4  and  C_5
REMARK    4  A    between atoms: C_5  and  C_7
REMARK    5  A    between atoms: C_8  and  C_9
REMARK    6  A    between atoms: N_14  and  C_15
REMARK                            x       y       z     vdW  Elec       q    Type
REMARK                         _______ _______ _______ _____ _____    ______ ____
ROOT
ATOM      1  C   UNL     1       5.839   5.111  19.365  0.00  0.00    +0.000 C 
ENDROOT
BRANCH   1   3
ATOM      2  O   UNL     1       4.213   6.071  17.846  0.00  0.00    +0.000 OA
ATOM      3  C   UNL     1       4.419   5.382  18.842  0.00  0.00    +0.000 C 
ATOM      4  N   UNL     1       3.418   4.823  19.605  0.00  0.00    +0.000 N 
ATOM      5  H   UNL     1       3.700   4.452  20.513  0.00  0.00    +0.000 HD
BRANCH   4   6
ATOM      6  C   UNL     1       1.985   4.994  19.368  0.00  0.00    +0.000 C 
ATOM      7  C   UNL     1       1.521   4.449  18.010  0.00  0.00    +0.000 C 
ATOM      8  C   UNL     1       1.762   2.946  17.903  0.00  0.00    +0.000 C 
ATOM      9  C   UNL     1       1.038   2.195  19.017  0.00  0.00    +0.000 C 
ATOM     10  C   UNL     1       1.352   2.757  20.404  0.00  0.00    +0.000 C 
ATOM     11  C   UNL     1       1.195   4.280  20.476  0.00  0.00    +0.000 C 
ENDBRANCH   4   6
ENDBRANCH   1   3
BRANCH   1  12
ATOM     12  O   UNL     1       6.799   4.721  18.381  0.00  0.00    +0.000 OA
BRANCH  12  13
ATOM     13  C   UNL     1       7.424   5.741  17.751  0.00  0.00    +0.000 C 
ATOM     14  O   UNL     1       7.939   6.709  18.293  0.00  0.00    +0.000 OA
BRANCH  13  15
ATOM     15  C   UNL     1       7.393   5.497  16.298  0.00  0.00    +0.000 C 
ATOM     16  C   UNL     1       6.580   4.545  15.813  0.00  0.00    +0.000 C 
BRANCH  16  17
ATOM     17  C   UNL     1       6.503   4.245  14.421  0.00  0.00    +0.000 A 
ATOM     18  C   UNL     1       5.593   3.482  13.703  0.00  0.00    +0.000 A 
ATOM     19  C   UNL     1       5.879   3.429  12.308  0.00  0.00    +0.000 A 
ATOM     20  C   UNL     1       6.999   4.156  11.985  0.00  0.00    +0.000 A 
ATOM     21  S   UNL     1       7.697   4.894  13.356  0.00  0.00    +0.000 S 
ENDBRANCH  16  17
ENDBRANCH  13  15
ENDBRANCH  12  13
ENDBRANCH   1  12
TORSDOF 6
ENDMDL
MODEL 9
REMARK VINA RESULT:      -6.7      4.023      4.882
REMARK  Name = 
REMARK  6 active torsions:
REMARK  status: ('A' for Active; 'I' for Inactive)
REMARK    1  A    between atoms: C_2  and  C_3
REMARK    2  A    between atoms: C_3  and  O_4
REMARK    3  A    between atoms: O_4  and  C_5
REMARK    4  A    between atoms: C_5  and  C_7
REMARK    5  A    between atoms: C_8  and  C_9
REMARK    6  A    between atoms: N_14  and  C_15
REMARK                            x       y       z     vdW  Elec       q    Type
REMARK                         _______ _______ _______ _____ _____    ______ ____
ROOT
ATOM      1  C   UNL     1       5.132   4.278  16.814  0.00  0.00    +0.000 C 
ENDROOT
BRANCH   1   3
ATOM      2  O   UNL     1       5.707   3.799  19.118  0.00  0.00    +0.000 OA
ATOM      3  C   UNL     1       4.873   3.714  18.220  0.00  0.00    +0.000 C 
ATOM      4  N   UNL     1       3.658   3.083  18.363  0.00  0.00    +0.000 N 
ATOM      5  H   UNL     1       3.145   2.897  17.500  0.00  0.00    +0.000 HD
BRANCH   4   6
ATOM      6  C   UNL     1       3.202   2.399  19.572  0.00  0.00    +0.000 C 
ATOM      7  C   UNL     1       3.118   3.318  20.800  0.00  0.00    +0.000 C 
ATOM      8  C   UNL     1       2.113   4.446  20.581  0.00  0.00    +0.000 C 
ATOM      9  C   UNL     1       0.725   3.890  20.276  0.00  0.00    +0.000 C 
ATOM     10  C   UNL     1       0.737   2.868  19.140  0.00  0.00    +0.000 C 
ATOM     11  C   UNL     1       1.813   1.791  19.323  0.00  0.00    +0.000 C 
ENDBRANCH   4   6
ENDBRANCH   1   3
BRANCH   1  12
ATOM     12  O   UNL     1       4.393   5.452  16.469  0.00  0.00    +0.000 OA
BRANCH  12  13
ATOM     13  C   UNL     1       5.055   6.618  16.634  0.00  0.00    +0.000 C 
ATOM     14  O   UNL     1       6.186   6.862  16.235  0.00  0.00    +0.000 OA
BRANCH  13  15
ATOM     15  C   UNL     1       4.191   7.559  17.370  0.00  0.00    +0.000 C 
ATOM     16  C   UNL     1       3.166   7.078  18.091  0.00  0.00    +0.000 C 
BRANCH  16  17
ATOM     17  C   UNL     1       2.282   7.926  18.820  0.00  0.00    +0.000 A 
ATOM     18  C   UNL     1       1.835   7.863  20.131  0.00  0.00    +0.000 A 
ATOM     19  C   UNL     1       0.940   8.918  20.474  0.00  0.00    +0.000 A 
ATOM     20  C   UNL     1       0.725   9.771  19.418  0.00  0.00    +0.000 A 
ATOM     21  S   UNL     1       1.595   9.299  18.029  0.00  0.00    +0.000 S 
ENDBRANCH  16  17
ENDBRANCH  13  15
ENDBRANCH  12  13
ENDBRANCH   1  12
TORSDOF 6
ENDMDL
