MODEL 1
REMARK VINA RESULT:      -7.8      0.000      0.000
REMARK  Name = 
REMARK  9 active torsions:
REMARK  status: ('A' for Active; 'I' for Inactive)
REMARK    1  A    between atoms: C_1  and  C_2
REMARK    2  A    between atoms: C_6  and  N_7
REMARK    3  A    between atoms: N_7  and  C_8
REMARK    4  A    between atoms: C_11  and  N_12
REMARK    5  A    between atoms: N_12  and  S_13
REMARK    6  A    between atoms: S_13  and  C_14
REMARK    7  A    between atoms: C_18  and  N_19
REMARK    8  A    between atoms: N_19  and  C_20
REMARK    9  A    between atoms: N_19  and  C_21
REMARK                            x       y       z     vdW  Elec       q    Type
REMARK                         _______ _______ _______ _____ _____    ______ ____
ROOT
ATOM      1  N   UNL     1       2.912   7.166  19.846  0.00  0.00    +0.000 N 
ATOM      2  H   UNL     1       3.775   7.701  19.937  0.00  0.00    +0.000 HD
ENDROOT
BRANCH   1   8
ATOM      3  C   UNL     1       6.156   5.244  14.404  0.00  0.00    +0.000 C 
ATOM      4  C   UNL     1       5.502   5.404  15.742  0.00  0.00    +0.000 A 
ATOM      5  C   UNL     1       5.603   6.598  16.441  0.00  0.00    +0.000 A 
ATOM      6  C   UNL     1       4.929   6.742  17.650  0.00  0.00    +0.000 A 
ATOM      7  C   UNL     1       4.095   5.721  18.174  0.00  0.00    +0.000 A 
ATOM      8  C   UNL     1       3.206   5.871  19.280  0.00  0.00    +0.000 A 
ATOM      9  C   UNL     1       2.606   4.713  19.850  0.00  0.00    +0.000 A 
ATOM     10  C   UNL     1       1.832   4.710  21.035  0.00  0.00    +0.000 A 
ATOM     11  C   UNL     1       1.294   3.530  21.547  0.00  0.00    +0.000 A 
ATOM     12  C   UNL     1       1.505   2.335  20.876  0.00  0.00    +0.000 A 
ATOM     13  C   UNL     1       2.246   2.333  19.698  0.00  0.00    +0.000 A 
ATOM     14  C   UNL     1       2.801   3.494  19.172  0.00  0.00    +0.000 A 
ATOM     15  N   UNL     1       3.486   3.395  18.028  0.00  0.00    +0.000 NA
ATOM     16  C   UNL     1       4.117   4.471  17.535  0.00  0.00    +0.000 A 
ATOM     17  C   UNL     1       4.795   4.342  16.326  0.00  0.00    +0.000 A 
ENDBRANCH   1   8
BRANCH   1  18
ATOM     18  C   UNL     1       1.883   8.051  19.362  0.00  0.00    +0.000 A 
ATOM     19  C   UNL     1       1.780   8.256  17.964  0.00  0.00    +0.000 A 
ATOM     20  C   UNL     1       1.021   9.298  17.441  0.00  0.00    +0.000 A 
ATOM     21  C   UNL     1       0.259  10.069  18.301  0.00  0.00    +0.000 A 
ATOM     22  C   UNL     1       0.240   9.786  19.673  0.00  0.00    +0.000 A 
ATOM     23  C   UNL     1       1.031   8.765  20.256  0.00  0.00    +0.000 A 
BRANCH  23  24
ATOM     24  N   UNL     1       1.024   8.547  21.638  0.00  0.00    +0.000 N 
ATOM     25  C   UNL     1      -0.211   8.169  22.327  0.00  0.00    +0.000 C 
ATOM     26  C   UNL     1       2.049   9.113  22.518  0.00  0.00    +0.000 C 
ENDBRANCH  23  24
BRANCH  21  27
ATOM     27  N   UNL     1      -0.506  11.164  17.797  0.00  0.00    +0.000 N 
ATOM     28  H   UNL     1      -0.407  12.029  18.333  0.00  0.00    +0.000 HD
BRANCH  27  29
ATOM     29  S   UNL     1      -2.157  10.913  17.496  0.00  0.00    +0.000 S 
ATOM     30  C   UNL     1      -2.901  11.878  18.791  0.00  0.00    +0.000 C 
ATOM     31  O   UNL     1      -2.531  11.468  16.214  0.00  0.00    +0.000 OA
ATOM     32  O   UNL     1      -2.391   9.516  17.807  0.00  0.00    +0.000 OA
ENDBRANCH  27  29
ENDBRANCH  21  27
ENDBRANCH   1  18
TORSDOF 5
ENDMDL
MODEL 2
REMARK VINA RESULT:      -7.5      2.021      2.105
REMARK  Name = 
REMARK  9 active torsions:
REMARK  status: ('A' for Active; 'I' for Inactive)
REMARK    1  A    between atoms: C_1  and  C_2
REMARK    2  A    between atoms: C_6  and  N_7
REMARK    3  A    between atoms: N_7  and  C_8
REMARK    4  A    between atoms: C_11  and  N_12
REMARK    5  A    between atoms: N_12  and  S_13
REMARK    6  A    between atoms: S_13  and  C_14
REMARK    7  A    between atoms: C_18  and  N_19
REMARK    8  A    between atoms: N_19  and  C_20
REMARK    9  A    between atoms: N_19  and  C_21
REMARK                            x       y       z     vdW  Elec       q    Type
REMARK                         _______ _______ _______ _____ _____    ______ ____
ROOT
ATOM      1  N   UNL     1       2.926   6.978  19.755  0.00  0.00    +0.000 N 
ATOM      2  H   UNL     1       3.827   7.296  20.112  0.00  0.00    +0.000 HD
ENDROOT
BRANCH   1   8
ATOM      3  C   UNL     1       6.828   5.479  14.621  0.00  0.00    +0.000 C 
ATOM      4  C   UNL     1       5.957   5.518  15.839  0.00  0.00    +0.000 A 
ATOM      5  C   UNL     1       6.110   6.520  16.786  0.00  0.00    +0.000 A 
ATOM      6  C   UNL     1       5.242   6.572  17.873  0.00  0.00    +0.000 A 
ATOM      7  C   UNL     1       4.168   5.657  18.024  0.00  0.00    +0.000 A 
ATOM      8  C   UNL     1       3.113   5.776  18.978  0.00  0.00    +0.000 A 
ATOM      9  C   UNL     1       2.235   4.675  19.181  0.00  0.00    +0.000 A 
ATOM     10  C   UNL     1       1.252   4.608  20.197  0.00  0.00    +0.000 A 
ATOM     11  C   UNL     1       0.440   3.484  20.350  0.00  0.00    +0.000 A 
ATOM     12  C   UNL     1       0.584   2.415  19.480  0.00  0.00    +0.000 A 
ATOM     13  C   UNL     1       1.533   2.482  18.464  0.00  0.00    +0.000 A 
ATOM     14  C   UNL     1       2.361   3.586  18.297  0.00  0.00    +0.000 A 
ATOM     15  N   UNL     1       3.233   3.564  17.284  0.00  0.00    +0.000 NA
ATOM     16  C   UNL     1       4.114   4.565  17.142  0.00  0.00    +0.000 A 
ATOM     17  C   UNL     1       4.987   4.528  16.059  0.00  0.00    +0.000 A 
ENDBRANCH   1   8
BRANCH   1  18
ATOM     18  C   UNL     1       2.187   8.130  19.306  0.00  0.00    +0.000 A 
ATOM     19  C   UNL     1       2.402   8.588  17.982  0.00  0.00    +0.000 A 
ATOM     20  C   UNL     1       1.959   9.841  17.570  0.00  0.00    +0.000 A 
ATOM     21  C   UNL     1       1.191  10.597  18.437  0.00  0.00    +0.000 A 
ATOM     22  C   UNL     1       0.849  10.095  19.699  0.00  0.00    +0.000 A 
ATOM     23  C   UNL     1       1.315   8.845  20.178  0.00  0.00    +0.000 A 
BRANCH  23  24
ATOM     24  N   UNL     1       0.995   8.401  21.466  0.00  0.00    +0.000 N 
ATOM     25  C   UNL     1      -0.300   7.775  21.739  0.00  0.00    +0.000 C 
ATOM     26  C   UNL     1       1.667   8.926  22.658  0.00  0.00    +0.000 C 
ENDBRANCH  23  24
BRANCH  21  27
ATOM     27  N   UNL     1       0.747  11.900  18.054  0.00  0.00    +0.000 N 
ATOM     28  H   UNL     1       0.715  12.053  17.043  0.00  0.00    +0.000 HD
BRANCH  27  29
ATOM     29  S   UNL     1       1.497  13.242  18.771  0.00  0.00    +0.000 S 
ATOM     30  C   UNL     1       0.154  14.406  18.827  0.00  0.00    +0.000 C 
ATOM     31  O   UNL     1       1.915  12.931  20.120  0.00  0.00    +0.000 OA
ATOM     32  O   UNL     1       2.444  13.720  17.782  0.00  0.00    +0.000 OA
ENDBRANCH  27  29
ENDBRANCH  21  27
ENDBRANCH   1  18
TORSDOF 5
ENDMDL
MODEL 3
REMARK VINA RESULT:      -7.4      3.486      7.898
REMARK  Name = 
REMARK  9 active torsions:
REMARK  status: ('A' for Active; 'I' for Inactive)
REMARK    1  A    between atoms: C_1  and  C_2
REMARK    2  A    between atoms: C_6  and  N_7
REMARK    3  A    between atoms: N_7  and  C_8
REMARK    4  A    between atoms: C_11  and  N_12
REMARK    5  A    between atoms: N_12  and  S_13
REMARK    6  A    between atoms: S_13  and  C_14
REMARK    7  A    between atoms: C_18  and  N_19
REMARK    8  A    between atoms: N_19  and  C_20
REMARK    9  A    between atoms: N_19  and  C_21
REMARK                            x       y       z     vdW  Elec       q    Type
REMARK                         _______ _______ _______ _____ _____    ______ ____
ROOT
ATOM      1  N   UNL     1       0.735  11.258  19.578  0.00  0.00    +0.000 N 
ATOM      2  H   UNL     1       1.151  11.672  20.412  0.00  0.00    +0.000 HD
ENDROOT
BRANCH   1   8
ATOM      3  C   UNL     1      -4.043  10.222  15.114  0.00  0.00    +0.000 C 
ATOM      4  C   UNL     1      -3.188  10.422  16.327  0.00  0.00    +0.000 A 
ATOM      5  C   UNL     1      -1.933   9.837  16.412  0.00  0.00    +0.000 A 
ATOM      6  C   UNL     1      -1.131  10.095  17.520  0.00  0.00    +0.000 A 
ATOM      7  C   UNL     1      -1.535  10.980  18.553  0.00  0.00    +0.000 A 
ATOM      8  C   UNL     1      -0.693  11.464  19.598  0.00  0.00    +0.000 A 
ATOM      9  C   UNL     1      -1.279  12.153  20.697  0.00  0.00    +0.000 A 
ATOM     10  C   UNL     1      -0.580  12.547  21.863  0.00  0.00    +0.000 A 
ATOM     11  C   UNL     1      -1.227  13.201  22.912  0.00  0.00    +0.000 A 
ATOM     12  C   UNL     1      -2.579  13.489  22.806  0.00  0.00    +0.000 A 
ATOM     13  C   UNL     1      -3.268  13.125  21.654  0.00  0.00    +0.000 A 
ATOM     14  C   UNL     1      -2.649  12.464  20.600  0.00  0.00    +0.000 A 
ATOM     15  N   UNL     1      -3.391  12.167  19.528  0.00  0.00    +0.000 NA
ATOM     16  C   UNL     1      -2.859  11.448  18.528  0.00  0.00    +0.000 A 
ATOM     17  C   UNL     1      -3.648  11.183  17.412  0.00  0.00    +0.000 A 
ENDBRANCH   1   8
BRANCH   1  18
ATOM     18  C   UNL     1       1.370   9.987  19.342  0.00  0.00    +0.000 A 
ATOM     19  C   UNL     1       2.026   9.787  18.102  0.00  0.00    +0.000 A 
ATOM     20  C   UNL     1       2.406   8.515  17.682  0.00  0.00    +0.000 A 
ATOM     21  C   UNL     1       2.245   7.449  18.548  0.00  0.00    +0.000 A 
ATOM     22  C   UNL     1       1.728   7.656  19.834  0.00  0.00    +0.000 A 
ATOM     23  C   UNL     1       1.287   8.923  20.288  0.00  0.00    +0.000 A 
BRANCH  23  24
ATOM     24  N   UNL     1       0.729   9.079  21.561  0.00  0.00    +0.000 N 
ATOM     25  C   UNL     1       1.580   9.343  22.723  0.00  0.00    +0.000 C 
ATOM     26  C   UNL     1      -0.593   8.544  21.900  0.00  0.00    +0.000 C 
ENDBRANCH  23  24
BRANCH  21  27
ATOM     27  N   UNL     1       2.597   6.128  18.134  0.00  0.00    +0.000 N 
ATOM     28  H   UNL     1       2.062   5.387  18.592  0.00  0.00    +0.000 HD
BRANCH  27  29
ATOM     29  S   UNL     1       4.236   5.693  18.161  0.00  0.00    +0.000 S 
ATOM     30  C   UNL     1       4.188   4.096  17.380  0.00  0.00    +0.000 C 
ATOM     31  O   UNL     1       5.016   6.598  17.346  0.00  0.00    +0.000 OA
ATOM     32  O   UNL     1       4.549   5.482  19.561  0.00  0.00    +0.000 OA
ENDBRANCH  27  29
ENDBRANCH  21  27
ENDBRANCH   1  18
TORSDOF 5
ENDMDL
MODEL 4
REMARK VINA RESULT:      -7.3      5.113      8.715
REMARK  Name = 
REMARK  9 active torsions:
REMARK  status: ('A' for Active; 'I' for Inactive)
REMARK    1  A    between atoms: C_1  and  C_2
REMARK    2  A    between atoms: C_6  and  N_7
REMARK    3  A    between atoms: N_7  and  C_8
REMARK    4  A    between atoms: C_11  and  N_12
REMARK    5  A    between atoms: N_12  and  S_13
REMARK    6  A    between atoms: S_13  and  C_14
REMARK    7  A    between atoms: C_18  and  N_19
REMARK    8  A    between atoms: N_19  and  C_20
REMARK    9  A    between atoms: N_19  and  C_21
REMARK                            x       y       z     vdW  Elec       q    Type
REMARK                         _______ _______ _______ _____ _____    ______ ____
ROOT
ATOM      1  N   UNL     1      -1.459  11.748  20.176  0.00  0.00    +0.000 N 
ATOM      2  H   UNL     1      -1.242  10.771  20.370  0.00  0.00    +0.000 HD
ENDROOT
BRANCH   1   8
ATOM      3  C   UNL     1      -3.506  10.034  14.118  0.00  0.00    +0.000 C 
ATOM      4  C   UNL     1      -3.336  10.381  15.565  0.00  0.00    +0.000 A 
ATOM      5  C   UNL     1      -2.246   9.910  16.282  0.00  0.00    +0.000 A 
ATOM      6  C   UNL     1      -2.076  10.304  17.606  0.00  0.00    +0.000 A 
ATOM      7  C   UNL     1      -2.959  11.215  18.241  0.00  0.00    +0.000 A 
ATOM      8  C   UNL     1      -2.734  11.834  19.506  0.00  0.00    +0.000 A 
ATOM      9  C   UNL     1      -3.800  12.540  20.132  0.00  0.00    +0.000 A 
ATOM     10  C   UNL     1      -3.754  13.064  21.446  0.00  0.00    +0.000 A 
ATOM     11  C   UNL     1      -4.848  13.726  22.003  0.00  0.00    +0.000 A 
ATOM     12  C   UNL     1      -6.001  13.891  21.251  0.00  0.00    +0.000 A 
ATOM     13  C   UNL     1      -6.046  13.398  19.950  0.00  0.00    +0.000 A 
ATOM     14  C   UNL     1      -4.974  12.727  19.376  0.00  0.00    +0.000 A 
ATOM     15  N   UNL     1      -5.106  12.301  18.116  0.00  0.00    +0.000 NA
ATOM     16  C   UNL     1      -4.133  11.568  17.555  0.00  0.00    +0.000 A 
ATOM     17  C   UNL     1      -4.288  11.168  16.230  0.00  0.00    +0.000 A 
ENDBRANCH   1   8
BRANCH   1  18
ATOM     18  C   UNL     1      -0.255  12.394  19.720  0.00  0.00    +0.000 A 
ATOM     19  C   UNL     1      -0.261  13.806  19.590  0.00  0.00    +0.000 A 
ATOM     20  C   UNL     1       0.741  14.472  18.892  0.00  0.00    +0.000 A 
ATOM     21  C   UNL     1       1.823  13.749  18.423  0.00  0.00    +0.000 A 
ATOM     22  C   UNL     1       1.913  12.373  18.668  0.00  0.00    +0.000 A 
ATOM     23  C   UNL     1       0.896  11.645  19.334  0.00  0.00    +0.000 A 
BRANCH  23  24
ATOM     24  N   UNL     1       0.998  10.262  19.514  0.00  0.00    +0.000 N 
ATOM     25  C   UNL     1       1.068   9.687  20.860  0.00  0.00    +0.000 C 
ATOM     26  C   UNL     1       1.502   9.376  18.461  0.00  0.00    +0.000 C 
ENDBRANCH  23  24
BRANCH  21  27
ATOM     27  N   UNL     1       2.852  14.400  17.677  0.00  0.00    +0.000 N 
ATOM     28  H   UNL     1       3.387  13.778  17.066  0.00  0.00    +0.000 HD
BRANCH  27  29
ATOM     29  S   UNL     1       3.946  15.387  18.519  0.00  0.00    +0.000 S 
ATOM     30  C   UNL     1       5.500  14.831  17.856  0.00  0.00    +0.000 C 
ATOM     31  O   UNL     1       3.750  16.776  18.171  0.00  0.00    +0.000 OA
ATOM     32  O   UNL     1       3.877  14.939  19.896  0.00  0.00    +0.000 OA
ENDBRANCH  27  29
ENDBRANCH  21  27
ENDBRANCH   1  18
TORSDOF 5
ENDMDL
MODEL 5
REMARK VINA RESULT:      -7.1      1.289      1.419
REMARK  Name = 
REMARK  9 active torsions:
REMARK  status: ('A' for Active; 'I' for Inactive)
REMARK    1  A    between atoms: C_1  and  C_2
REMARK    2  A    between atoms: C_6  and  N_7
REMARK    3  A    between atoms: N_7  and  C_8
REMARK    4  A    between atoms: C_11  and  N_12
REMARK    5  A    between atoms: N_12  and  S_13
REMARK    6  A    between atoms: S_13  and  C_14
REMARK    7  A    between atoms: C_18  and  N_19
REMARK    8  A    between atoms: N_19  and  C_20
REMARK    9  A    between atoms: N_19  and  C_21
REMARK                            x       y       z     vdW  Elec       q    Type
REMARK                         _______ _______ _______ _____ _____    ______ ____
ROOT
ATOM      1  N   UNL     1       2.998   7.161  19.741  0.00  0.00    +0.000 N 
ATOM      2  H   UNL     1       3.881   7.668  19.808  0.00  0.00    +0.000 HD
ENDROOT
BRANCH   1   8
ATOM      3  C   UNL     1       6.329   5.162  14.380  0.00  0.00    +0.000 C 
ATOM      4  C   UNL     1       5.633   5.332  15.695  0.00  0.00    +0.000 A 
ATOM      5  C   UNL     1       5.782   6.500  16.429  0.00  0.00    +0.000 A 
ATOM      6  C   UNL     1       5.071   6.659  17.614  0.00  0.00    +0.000 A 
ATOM      7  C   UNL     1       4.153   5.682  18.079  0.00  0.00    +0.000 A 
ATOM      8  C   UNL     1       3.231   5.864  19.153  0.00  0.00    +0.000 A 
ATOM      9  C   UNL     1       2.536   4.734  19.669  0.00  0.00    +0.000 A 
ATOM     10  C   UNL     1       1.717   4.753  20.822  0.00  0.00    +0.000 A 
ATOM     11  C   UNL     1       1.084   3.598  21.283  0.00  0.00    +0.000 A 
ATOM     12  C   UNL     1       1.244   2.409  20.589  0.00  0.00    +0.000 A 
ATOM     13  C   UNL     1       2.031   2.387  19.441  0.00  0.00    +0.000 A 
ATOM     14  C   UNL     1       2.680   3.521  18.968  0.00  0.00    +0.000 A 
ATOM     15  N   UNL     1       3.403   3.405  17.849  0.00  0.00    +0.000 NA
ATOM     16  C   UNL     1       4.120   4.449  17.409  0.00  0.00    +0.000 A 
ATOM     17  C   UNL     1       4.836   4.305  16.223  0.00  0.00    +0.000 A 
ENDBRANCH   1   8
BRANCH   1  18
ATOM     18  C   UNL     1       1.982   8.083  19.302  0.00  0.00    +0.000 A 
ATOM     19  C   UNL     1       1.894   8.372  17.917  0.00  0.00    +0.000 A 
ATOM     20  C   UNL     1       1.150   9.451  17.450  0.00  0.00    +0.000 A 
ATOM     21  C   UNL     1       0.387  10.176  18.348  0.00  0.00    +0.000 A 
ATOM     22  C   UNL     1       0.352   9.812  19.700  0.00  0.00    +0.000 A 
ATOM     23  C   UNL     1       1.128   8.751  20.229  0.00  0.00    +0.000 A 
BRANCH  23  24
ATOM     24  N   UNL     1       1.106   8.451  21.595  0.00  0.00    +0.000 N 
ATOM     25  C   UNL     1      -0.155   8.131  22.268  0.00  0.00    +0.000 C 
ATOM     26  C   UNL     1       2.174   8.880  22.502  0.00  0.00    +0.000 C 
ENDBRANCH  23  24
BRANCH  21  27
ATOM     27  N   UNL     1      -0.364  11.307  17.903  0.00  0.00    +0.000 N 
ATOM     28  H   UNL     1      -0.238  11.533  16.913  0.00  0.00    +0.000 HD
BRANCH  27  29
ATOM     29  S   UNL     1      -0.245  12.745  18.795  0.00  0.00    +0.000 S 
ATOM     30  C   UNL     1      -1.729  12.675  19.772  0.00  0.00    +0.000 C 
ATOM     31  O   UNL     1       0.904  12.706  19.671  0.00  0.00    +0.000 OA
ATOM     32  O   UNL     1      -0.415  13.809  17.824  0.00  0.00    +0.000 OA
ENDBRANCH  27  29
ENDBRANCH  21  27
ENDBRANCH   1  18
TORSDOF 5
ENDMDL
MODEL 6
REMARK VINA RESULT:      -7.1      1.384      1.385
REMARK  Name = 
REMARK  9 active torsions:
REMARK  status: ('A' for Active; 'I' for Inactive)
REMARK    1  A    between atoms: C_1  and  C_2
REMARK    2  A    between atoms: C_6  and  N_7
REMARK    3  A    between atoms: N_7  and  C_8
REMARK    4  A    between atoms: C_11  and  N_12
REMARK    5  A    between atoms: N_12  and  S_13
REMARK    6  A    between atoms: S_13  and  C_14
REMARK    7  A    between atoms: C_18  and  N_19
REMARK    8  A    between atoms: N_19  and  C_20
REMARK    9  A    between atoms: N_19  and  C_21
REMARK                            x       y       z     vdW  Elec       q    Type
REMARK                         _______ _______ _______ _____ _____    ______ ____
ROOT
ATOM      1  N   UNL     1       2.872   6.894  19.808  0.00  0.00    +0.000 N 
ATOM      2  H   UNL     1       3.758   7.181  20.223  0.00  0.00    +0.000 HD
ENDROOT
BRANCH   1   8
ATOM      3  C   UNL     1       6.808   5.532  14.662  0.00  0.00    +0.000 C 
ATOM      4  C   UNL     1       5.933   5.539  15.877  0.00  0.00    +0.000 A 
ATOM      5  C   UNL     1       6.071   6.526  16.842  0.00  0.00    +0.000 A 
ATOM      6  C   UNL     1       5.199   6.548  17.927  0.00  0.00    +0.000 A 
ATOM      7  C   UNL     1       4.135   5.619  18.058  0.00  0.00    +0.000 A 
ATOM      8  C   UNL     1       3.076   5.708  19.010  0.00  0.00    +0.000 A 
ATOM      9  C   UNL     1       2.209   4.594  19.190  0.00  0.00    +0.000 A 
ATOM     10  C   UNL     1       1.224   4.498  20.201  0.00  0.00    +0.000 A 
ATOM     11  C   UNL     1       0.424   3.362  20.331  0.00  0.00    +0.000 A 
ATOM     12  C   UNL     1       0.584   2.311  19.443  0.00  0.00    +0.000 A 
ATOM     13  C   UNL     1       1.535   2.406  18.432  0.00  0.00    +0.000 A 
ATOM     14  C   UNL     1       2.351   3.522  18.287  0.00  0.00    +0.000 A 
ATOM     15  N   UNL     1       3.227   3.529  17.277  0.00  0.00    +0.000 NA
ATOM     16  C   UNL     1       4.096   4.543  17.157  0.00  0.00    +0.000 A 
ATOM     17  C   UNL     1       4.974   4.535  16.076  0.00  0.00    +0.000 A 
ENDBRANCH   1   8
BRANCH   1  18
ATOM     18  C   UNL     1       2.185   8.075  19.349  0.00  0.00    +0.000 A 
ATOM     19  C   UNL     1       2.408   8.503  18.017  0.00  0.00    +0.000 A 
ATOM     20  C   UNL     1       2.022   9.771  17.591  0.00  0.00    +0.000 A 
ATOM     21  C   UNL     1       1.302  10.575  18.455  0.00  0.00    +0.000 A 
ATOM     22  C   UNL     1       0.951  10.108  19.728  0.00  0.00    +0.000 A 
ATOM     23  C   UNL     1       1.360   8.844  20.221  0.00  0.00    +0.000 A 
BRANCH  23  24
ATOM     24  N   UNL     1       1.033   8.435  21.518  0.00  0.00    +0.000 N 
ATOM     25  C   UNL     1      -0.300   7.910  21.821  0.00  0.00    +0.000 C 
ATOM     26  C   UNL     1       1.765   8.916  22.692  0.00  0.00    +0.000 C 
ENDBRANCH  23  24
BRANCH  21  27
ATOM     27  N   UNL     1       0.918  11.893  18.058  0.00  0.00    +0.000 N 
ATOM     28  H   UNL     1       1.638  12.604  18.208  0.00  0.00    +0.000 HD
BRANCH  27  29
ATOM     29  S   UNL     1      -0.558  12.502  18.632  0.00  0.00    +0.000 S 
ATOM     30  C   UNL     1      -0.302  14.254  18.465  0.00  0.00    +0.000 C 
ATOM     31  O   UNL     1      -1.645  12.096  17.770  0.00  0.00    +0.000 OA
ATOM     32  O   UNL     1      -0.567  12.198  20.050  0.00  0.00    +0.000 OA
ENDBRANCH  27  29
ENDBRANCH  21  27
ENDBRANCH   1  18
TORSDOF 5
ENDMDL
MODEL 7
REMARK VINA RESULT:      -6.9      3.954      7.732
REMARK  Name = 
REMARK  9 active torsions:
REMARK  status: ('A' for Active; 'I' for Inactive)
REMARK    1  A    between atoms: C_1  and  C_2
REMARK    2  A    between atoms: C_6  and  N_7
REMARK    3  A    between atoms: N_7  and  C_8
REMARK    4  A    between atoms: C_11  and  N_12
REMARK    5  A    between atoms: N_12  and  S_13
REMARK    6  A    between atoms: S_13  and  C_14
REMARK    7  A    between atoms: C_18  and  N_19
REMARK    8  A    between atoms: N_19  and  C_20
REMARK    9  A    between atoms: N_19  and  C_21
REMARK                            x       y       z     vdW  Elec       q    Type
REMARK                         _______ _______ _______ _____ _____    ______ ____
ROOT
ATOM      1  N   UNL     1       0.219  10.759  19.238  0.00  0.00    +0.000 N 
ATOM      2  H   UNL     1      -0.122  10.951  18.296  0.00  0.00    +0.000 HD
ENDROOT
BRANCH   1   8
ATOM      3  C   UNL     1       5.038  15.265  18.689  0.00  0.00    +0.000 C 
ATOM      4  C   UNL     1       3.782  14.482  18.916  0.00  0.00    +0.000 A 
ATOM      5  C   UNL     1       3.355  13.544  17.987  0.00  0.00    +0.000 A 
ATOM      6  C   UNL     1       2.223  12.781  18.255  0.00  0.00    +0.000 A 
ATOM      7  C   UNL     1       1.509  12.895  19.476  0.00  0.00    +0.000 A 
ATOM      8  C   UNL     1       0.484  12.005  19.917  0.00  0.00    +0.000 A 
ATOM      9  C   UNL     1      -0.308  12.364  21.043  0.00  0.00    +0.000 A 
ATOM     10  C   UNL     1      -1.447  11.649  21.484  0.00  0.00    +0.000 A 
ATOM     11  C   UNL     1      -2.190  12.074  22.586  0.00  0.00    +0.000 A 
ATOM     12  C   UNL     1      -1.798  13.210  23.276  0.00  0.00    +0.000 A 
ATOM     13  C   UNL     1      -0.666  13.907  22.862  0.00  0.00    +0.000 A 
ATOM     14  C   UNL     1       0.085  13.509  21.762  0.00  0.00    +0.000 A 
ATOM     15  N   UNL     1       1.164  14.234  21.448  0.00  0.00    +0.000 NA
ATOM     16  C   UNL     1       1.863  13.943  20.342  0.00  0.00    +0.000 A 
ATOM     17  C   UNL     1       2.999  14.696  20.060  0.00  0.00    +0.000 A 
ENDBRANCH   1   8
BRANCH   1  18
ATOM     18  C   UNL     1       1.145   9.658  19.167  0.00  0.00    +0.000 A 
ATOM     19  C   UNL     1       1.849   9.453  17.954  0.00  0.00    +0.000 A 
ATOM     20  C   UNL     1       2.530   8.265  17.705  0.00  0.00    +0.000 A 
ATOM     21  C   UNL     1       2.617   7.322  18.712  0.00  0.00    +0.000 A 
ATOM     22  C   UNL     1       2.047   7.572  19.967  0.00  0.00    +0.000 A 
ATOM     23  C   UNL     1       1.306   8.746  20.251  0.00  0.00    +0.000 A 
BRANCH  23  24
ATOM     24  N   UNL     1       0.707   8.937  21.501  0.00  0.00    +0.000 N 
ATOM     25  C   UNL     1       1.507   9.344  22.658  0.00  0.00    +0.000 C 
ATOM     26  C   UNL     1      -0.574   8.318  21.850  0.00  0.00    +0.000 C 
ENDBRANCH  23  24
BRANCH  21  27
ATOM     27  N   UNL     1       3.283   6.080  18.477  0.00  0.00    +0.000 N 
ATOM     28  H   UNL     1       3.902   6.082  17.662  0.00  0.00    +0.000 HD
BRANCH  27  29
ATOM     29  S   UNL     1       2.345   4.667  18.427  0.00  0.00    +0.000 S 
ATOM     30  C   UNL     1       3.439   3.550  17.581  0.00  0.00    +0.000 C 
ATOM     31  O   UNL     1       2.099   4.172  19.763  0.00  0.00    +0.000 OA
ATOM     32  O   UNL     1       1.251   4.971  17.524  0.00  0.00    +0.000 OA
ENDBRANCH  27  29
ENDBRANCH  21  27
ENDBRANCH   1  18
TORSDOF 5
ENDMDL
MODEL 8
REMARK VINA RESULT:      -6.9      2.747      5.204
REMARK  Name = 
REMARK  9 active torsions:
REMARK  status: ('A' for Active; 'I' for Inactive)
REMARK    1  A    between atoms: C_1  and  C_2
REMARK    2  A    between atoms: C_6  and  N_7
REMARK    3  A    between atoms: N_7  and  C_8
REMARK    4  A    between atoms: C_11  and  N_12
REMARK    5  A    between atoms: N_12  and  S_13
REMARK    6  A    between atoms: S_13  and  C_14
REMARK    7  A    between atoms: C_18  and  N_19
REMARK    8  A    between atoms: N_19  and  C_20
REMARK    9  A    between atoms: N_19  and  C_21
REMARK                            x       y       z     vdW  Elec       q    Type
REMARK                         _______ _______ _______ _____ _____    ______ ____
ROOT
ATOM      1  N   UNL     1       0.063  10.562  18.398  0.00  0.00    +0.000 N 
ATOM      2  H   UNL     1       0.426  10.364  17.466  0.00  0.00    +0.000 HD
ENDROOT
BRANCH   1   8
ATOM      3  C   UNL     1       4.022   5.293  17.762  0.00  0.00    +0.000 C 
ATOM      4  C   UNL     1       3.258   6.511  18.181  0.00  0.00    +0.000 A 
ATOM      5  C   UNL     1       3.044   7.553  17.290  0.00  0.00    +0.000 A 
ATOM      6  C   UNL     1       2.272   8.642  17.684  0.00  0.00    +0.000 A 
ATOM      7  C   UNL     1       1.651   8.705  18.958  0.00  0.00    +0.000 A 
ATOM      8  C   UNL     1       0.675   9.668  19.353  0.00  0.00    +0.000 A 
ATOM      9  C   UNL     1       0.309   9.763  20.725  0.00  0.00    +0.000 A 
ATOM     10  C   UNL     1      -0.525  10.770  21.266  0.00  0.00    +0.000 A 
ATOM     11  C   UNL     1      -0.823  10.812  22.628  0.00  0.00    +0.000 A 
ATOM     12  C   UNL     1      -0.307   9.839  23.470  0.00  0.00    +0.000 A 
ATOM     13  C   UNL     1       0.496   8.833  22.942  0.00  0.00    +0.000 A 
ATOM     14  C   UNL     1       0.816   8.774  21.591  0.00  0.00    +0.000 A 
ATOM     15  N   UNL     1       1.583   7.762  21.174  0.00  0.00    +0.000 NA
ATOM     16  C   UNL     1       1.993   7.718  19.898  0.00  0.00    +0.000 A 
ATOM     17  C   UNL     1       2.765   6.634  19.488  0.00  0.00    +0.000 A 
ENDBRANCH   1   8
BRANCH   1  18
ATOM     18  C   UNL     1      -1.355  10.790  18.290  0.00  0.00    +0.000 A 
ATOM     19  C   UNL     1      -2.170   9.728  17.827  0.00  0.00    +0.000 A 
ATOM     20  C   UNL     1      -3.483   9.948  17.422  0.00  0.00    +0.000 A 
ATOM     21  C   UNL     1      -4.033  11.205  17.592  0.00  0.00    +0.000 A 
ATOM     22  C   UNL     1      -3.283  12.230  18.183  0.00  0.00    +0.000 A 
ATOM     23  C   UNL     1      -1.930  12.065  18.568  0.00  0.00    +0.000 A 
BRANCH  23  24
ATOM     24  N   UNL     1      -1.198  13.129  19.106  0.00  0.00    +0.000 N 
ATOM     25  C   UNL     1      -1.710  13.884  20.252  0.00  0.00    +0.000 C 
ATOM     26  C   UNL     1      -0.178  13.841  18.332  0.00  0.00    +0.000 C 
ENDBRANCH  23  24
BRANCH  21  27
ATOM     27  N   UNL     1      -5.369  11.469  17.159  0.00  0.00    +0.000 N 
ATOM     28  H   UNL     1      -5.465  12.306  16.579  0.00  0.00    +0.000 HD
BRANCH  27  29
ATOM     29  S   UNL     1      -6.598  11.490  18.328  0.00  0.00    +0.000 S 
ATOM     30  C   UNL     1      -5.702  12.024  19.769  0.00  0.00    +0.000 C 
ATOM     31  O   UNL     1      -7.599  12.479  17.997  0.00  0.00    +0.000 OA
ATOM     32  O   UNL     1      -6.953  10.098  18.530  0.00  0.00    +0.000 OA
ENDBRANCH  27  29
ENDBRANCH  21  27
ENDBRANCH   1  18
TORSDOF 5
ENDMDL
MODEL 9
REMARK VINA RESULT:      -6.9      4.208      7.184
REMARK  Name = 
REMARK  9 active torsions:
REMARK  status: ('A' for Active; 'I' for Inactive)
REMARK    1  A    between atoms: C_1  and  C_2
REMARK    2  A    between atoms: C_6  and  N_7
REMARK    3  A    between atoms: N_7  and  C_8
REMARK    4  A    between atoms: C_11  and  N_12
REMARK    5  A    between atoms: N_12  and  S_13
REMARK    6  A    between atoms: S_13  and  C_14
REMARK    7  A    between atoms: C_18  and  N_19
REMARK    8  A    between atoms: N_19  and  C_20
REMARK    9  A    between atoms: N_19  and  C_21
REMARK                            x       y       z     vdW  Elec       q    Type
REMARK                         _______ _______ _______ _____ _____    ______ ____
ROOT
ATOM      1  N   UNL     1       5.114   5.393  18.853  0.00  0.00    +0.000 N 
ATOM      2  H   UNL     1       5.614   4.778  19.495  0.00  0.00    +0.000 HD
ENDROOT
BRANCH   1   8
ATOM      3  C   UNL     1       0.825  10.432  18.650  0.00  0.00    +0.000 C 
ATOM      4  C   UNL     1       1.543   9.119  18.699  0.00  0.00    +0.000 A 
ATOM      5  C   UNL     1       2.664   8.897  17.912  0.00  0.00    +0.000 A 
ATOM      6  C   UNL     1       3.352   7.692  18.027  0.00  0.00    +0.000 A 
ATOM      7  C   UNL     1       2.975   6.694  18.962  0.00  0.00    +0.000 A 
ATOM      8  C   UNL     1       3.748   5.542  19.295  0.00  0.00    +0.000 A 
ATOM      9  C   UNL     1       3.152   4.506  20.067  0.00  0.00    +0.000 A 
ATOM     10  C   UNL     1       3.755   3.254  20.334  0.00  0.00    +0.000 A 
ATOM     11  C   UNL     1       3.099   2.276  21.081  0.00  0.00    +0.000 A 
ATOM     12  C   UNL     1       1.837   2.539  21.591  0.00  0.00    +0.000 A 
ATOM     13  C   UNL     1       1.246   3.776  21.352  0.00  0.00    +0.000 A 
ATOM     14  C   UNL     1       1.874   4.763  20.602  0.00  0.00    +0.000 A 
ATOM     15  N   UNL     1       1.233   5.925  20.438  0.00  0.00    +0.000 NA
ATOM     16  C   UNL     1       1.760   6.869  19.645  0.00  0.00    +0.000 A 
ATOM     17  C   UNL     1       1.083   8.080  19.521  0.00  0.00    +0.000 A 
ENDBRANCH   1   8
BRANCH   1  18
ATOM     18  C   UNL     1       5.501   5.052  17.508  0.00  0.00    +0.000 A 
ATOM     19  C   UNL     1       4.665   4.175  16.773  0.00  0.00    +0.000 A 
ATOM     20  C   UNL     1       5.104   3.574  15.598  0.00  0.00    +0.000 A 
ATOM     21  C   UNL     1       6.334   3.937  15.080  0.00  0.00    +0.000 A 
ATOM     22  C   UNL     1       7.111   4.910  15.721  0.00  0.00    +0.000 A 
ATOM     23  C   UNL     1       6.726   5.516  16.943  0.00  0.00    +0.000 A 
BRANCH  23  24
ATOM     24  N   UNL     1       7.553   6.446  17.580  0.00  0.00    +0.000 N 
ATOM     25  C   UNL     1       8.149   6.146  18.884  0.00  0.00    +0.000 C 
ATOM     26  C   UNL     1       7.504   7.876  17.263  0.00  0.00    +0.000 C 
ENDBRANCH  23  24
BRANCH  21  27
ATOM     27  N   UNL     1       6.825   3.314  13.892  0.00  0.00    +0.000 N 
ATOM     28  H   UNL     1       7.835   3.402  13.756  0.00  0.00    +0.000 HD
BRANCH  27  29
ATOM     29  S   UNL     1       6.058   3.683  12.423  0.00  0.00    +0.000 S 
ATOM     30  C   UNL     1       6.029   2.089  11.635  0.00  0.00    +0.000 C 
ATOM     31  O   UNL     1       4.702   4.125  12.654  0.00  0.00    +0.000 OA
ATOM     32  O   UNL     1       7.005   4.508  11.698  0.00  0.00    +0.000 OA
ENDBRANCH  27  29
ENDBRANCH  21  27
ENDBRANCH   1  18
TORSDOF 5
ENDMDL
