MODEL 1
REMARK VINA RESULT:      -3.5      0.000      0.000
REMARK  Name = 
REMARK  5 active torsions:
REMARK  status: ('A' for Active; 'I' for Inactive)
REMARK    1  A    between atoms: O_1  and  C_2
REMARK    2  A    between atoms: C_2  and  C_3
REMARK    3  A    between atoms: C_3  and  N_4
REMARK    4  A    between atoms: N_4  and  C_5
REMARK    5  A    between atoms: C_5  and  O_6
REMARK                            x       y       z     vdW  Elec       q    Type
REMARK                         _______ _______ _______ _____ _____    ______ ____
ROOT
ATOM      1  N   UNL     1       5.949   3.919  18.980  0.00  0.00    +0.000 NA
ATOM      2  H   UNL     1       6.138   4.643  19.680  0.00  0.00    +0.000 HD
ENDROOT
BRANCH   1   3
ATOM      3  C   UNL     1       5.886   4.609  17.679  0.00  0.00    +0.000 C 
BRANCH   3   4
ATOM      4  C   UNL     1       7.202   4.587  16.887  0.00  0.00    +0.000 C 
BRANCH   4   5
ATOM      5  O   UNL     1       8.243   4.047  17.696  0.00  0.00    +0.000 OA
ATOM      6  H   UNL     1       8.774   4.797  18.016  0.00  0.00    +0.000 HD
ENDBRANCH   4   5
ENDBRANCH   3   4
ENDBRANCH   1   3
BRANCH   1   7
ATOM      7  C   UNL     1       4.691   3.311  19.332  0.00  0.00    +0.000 C 
BRANCH   7   8
ATOM      8  O   UNL     1       4.973   2.024  19.822  0.00  0.00    +0.000 OA
ATOM      9  H   UNL     1       4.896   2.135  20.786  0.00  0.00    +0.000 HD
ENDBRANCH   7   8
ENDBRANCH   1   7
TORSDOF 5
ENDMDL
MODEL 2
REMARK VINA RESULT:      -3.4      0.650      3.443
REMARK  Name = 
REMARK  5 active torsions:
REMARK  status: ('A' for Active; 'I' for Inactive)
REMARK    1  A    between atoms: O_1  and  C_2
REMARK    2  A    between atoms: C_2  and  C_3
REMARK    3  A    between atoms: C_3  and  N_4
REMARK    4  A    between atoms: N_4  and  C_5
REMARK    5  A    between atoms: C_5  and  O_6
REMARK                            x       y       z     vdW  Elec       q    Type
REMARK                         _______ _______ _______ _____ _____    ______ ____
ROOT
ATOM      1  N   UNL     1       6.286   3.976  18.685  0.00  0.00    +0.000 NA
ATOM      2  H   UNL     1       6.601   3.005  18.589  0.00  0.00    +0.000 HD
ENDROOT
BRANCH   1   3
ATOM      3  C   UNL     1       4.815   3.944  18.600  0.00  0.00    +0.000 C 
BRANCH   3   4
ATOM      4  C   UNL     1       4.153   2.890  19.500  0.00  0.00    +0.000 C 
BRANCH   4   5
ATOM      5  O   UNL     1       5.129   1.951  19.942  0.00  0.00    +0.000 OA
ATOM      6  H   UNL     1       5.951   2.147  19.460  0.00  0.00    +0.000 HD
ENDBRANCH   4   5
ENDBRANCH   3   4
ENDBRANCH   1   3
BRANCH   1   7
ATOM      7  C   UNL     1       6.875   4.718  17.597  0.00  0.00    +0.000 C 
BRANCH   7   8
ATOM      8  O   UNL     1       8.116   4.123  17.312  0.00  0.00    +0.000 OA
ATOM      9  H   UNL     1       8.267   3.549  18.084  0.00  0.00    +0.000 HD
ENDBRANCH   7   8
ENDBRANCH   1   7
TORSDOF 5
ENDMDL
MODEL 3
REMARK VINA RESULT:      -3.4      1.756      3.375
REMARK  Name = 
REMARK  5 active torsions:
REMARK  status: ('A' for Active; 'I' for Inactive)
REMARK    1  A    between atoms: O_1  and  C_2
REMARK    2  A    between atoms: C_2  and  C_3
REMARK    3  A    between atoms: C_3  and  N_4
REMARK    4  A    between atoms: N_4  and  C_5
REMARK    5  A    between atoms: C_5  and  O_6
REMARK                            x       y       z     vdW  Elec       q    Type
REMARK                         _______ _______ _______ _____ _____    ______ ____
ROOT
ATOM      1  N   UNL     1       6.586   4.366  18.837  0.00  0.00    +0.000 NA
ATOM      2  H   UNL     1       6.692   4.159  17.839  0.00  0.00    +0.000 HD
ENDROOT
BRANCH   1   3
ATOM      3  C   UNL     1       5.145   4.568  19.067  0.00  0.00    +0.000 C 
BRANCH   3   4
ATOM      4  C   UNL     1       4.353   3.273  19.298  0.00  0.00    +0.000 C 
BRANCH   4   5
ATOM      5  O   UNL     1       5.212   2.274  19.841  0.00  0.00    +0.000 OA
ATOM      6  H   UNL     1       5.812   1.995  19.128  0.00  0.00    +0.000 HD
ENDBRANCH   4   5
ENDBRANCH   3   4
ENDBRANCH   1   3
BRANCH   1   7
ATOM      7  C   UNL     1       7.350   5.561  19.100  0.00  0.00    +0.000 C 
BRANCH   7   8
ATOM      8  O   UNL     1       7.893   5.432  20.390  0.00  0.00    +0.000 OA
ATOM      9  H   UNL     1       7.144   5.092  20.910  0.00  0.00    +0.000 HD
ENDBRANCH   7   8
ENDBRANCH   1   7
TORSDOF 5
ENDMDL
MODEL 4
REMARK VINA RESULT:      -3.3      9.469      9.770
REMARK  Name = 
REMARK  5 active torsions:
REMARK  status: ('A' for Active; 'I' for Inactive)
REMARK    1  A    between atoms: O_1  and  C_2
REMARK    2  A    between atoms: C_2  and  C_3
REMARK    3  A    between atoms: C_3  and  N_4
REMARK    4  A    between atoms: N_4  and  C_5
REMARK    5  A    between atoms: C_5  and  O_6
REMARK                            x       y       z     vdW  Elec       q    Type
REMARK                         _______ _______ _______ _____ _____    ______ ____
ROOT
ATOM      1  N   UNL     1       7.284   4.099  27.264  0.00  0.00    +0.000 NA
ATOM      2  H   UNL     1       6.976   3.220  27.691  0.00  0.00    +0.000 HD
ENDROOT
BRANCH   1   3
ATOM      3  C   UNL     1       8.753   4.025  27.182  0.00  0.00    +0.000 C 
BRANCH   3   4
ATOM      4  C   UNL     1       9.488   5.084  28.017  0.00  0.00    +0.000 C 
BRANCH   4   5
ATOM      5  O   UNL     1      10.884   4.798  28.037  0.00  0.00    +0.000 OA
ATOM      6  H   UNL     1      10.981   3.867  28.304  0.00  0.00    +0.000 HD
ENDBRANCH   4   5
ENDBRANCH   3   4
ENDBRANCH   1   3
BRANCH   1   7
ATOM      7  C   UNL     1       6.843   5.163  28.130  0.00  0.00    +0.000 C 
BRANCH   7   8
ATOM      8  O   UNL     1       5.652   5.675  27.587  0.00  0.00    +0.000 OA
ATOM      9  H   UNL     1       5.555   6.532  28.038  0.00  0.00    +0.000 HD
ENDBRANCH   7   8
ENDBRANCH   1   7
TORSDOF 5
ENDMDL
MODEL 5
REMARK VINA RESULT:      -3.3      9.677     10.504
REMARK  Name = 
REMARK  5 active torsions:
REMARK  status: ('A' for Active; 'I' for Inactive)
REMARK    1  A    between atoms: O_1  and  C_2
REMARK    2  A    between atoms: C_2  and  C_3
REMARK    3  A    between atoms: C_3  and  N_4
REMARK    4  A    between atoms: N_4  and  C_5
REMARK    5  A    between atoms: C_5  and  O_6
REMARK                            x       y       z     vdW  Elec       q    Type
REMARK                         _______ _______ _______ _____ _____    ______ ____
ROOT
ATOM      1  N   UNL     1       9.935   5.150  28.114  0.00  0.00    +0.000 NA
ATOM      2  H   UNL     1       9.713   5.108  29.114  0.00  0.00    +0.000 HD
ENDROOT
BRANCH   1   3
ATOM      3  C   UNL     1       8.969   4.268  27.437  0.00  0.00    +0.000 C 
BRANCH   3   4
ATOM      4  C   UNL     1       7.510   4.741  27.526  0.00  0.00    +0.000 C 
BRANCH   4   5
ATOM      5  O   UNL     1       6.636   3.616  27.495  0.00  0.00    +0.000 OA
ATOM      6  H   UNL     1       5.948   3.808  26.835  0.00  0.00    +0.000 HD
ENDBRANCH   4   5
ENDBRANCH   3   4
ENDBRANCH   1   3
BRANCH   1   7
ATOM      7  C   UNL     1      11.291   4.684  27.965  0.00  0.00    +0.000 C 
BRANCH   7   8
ATOM      8  O   UNL     1      12.066   5.782  27.554  0.00  0.00    +0.000 OA
ATOM      9  H   UNL     1      12.362   5.521  26.664  0.00  0.00    +0.000 HD
ENDBRANCH   7   8
ENDBRANCH   1   7
TORSDOF 5
ENDMDL
MODEL 6
REMARK VINA RESULT:      -3.2      3.556      4.366
REMARK  Name = 
REMARK  5 active torsions:
REMARK  status: ('A' for Active; 'I' for Inactive)
REMARK    1  A    between atoms: O_1  and  C_2
REMARK    2  A    between atoms: C_2  and  C_3
REMARK    3  A    between atoms: C_3  and  N_4
REMARK    4  A    between atoms: N_4  and  C_5
REMARK    5  A    between atoms: C_5  and  O_6
REMARK                            x       y       z     vdW  Elec       q    Type
REMARK                         _______ _______ _______ _____ _____    ______ ____
ROOT
ATOM      1  N   UNL     1       1.863   1.567  18.901  0.00  0.00    +0.000 NA
ATOM      2  H   UNL     1       1.890   1.313  19.894  0.00  0.00    +0.000 HD
ENDROOT
BRANCH   1   3
ATOM      3  C   UNL     1       3.261   1.789  18.492  0.00  0.00    +0.000 C 
BRANCH   3   4
ATOM      4  C   UNL     1       4.114   2.530  19.531  0.00  0.00    +0.000 C 
BRANCH   4   5
ATOM      5  O   UNL     1       5.129   1.662  20.028  0.00  0.00    +0.000 OA
ATOM      6  H   UNL     1       5.183   1.807  20.989  0.00  0.00    +0.000 HD
ENDBRANCH   4   5
ENDBRANCH   3   4
ENDBRANCH   1   3
BRANCH   1   7
ATOM      7  C   UNL     1       1.071   2.767  18.796  0.00  0.00    +0.000 C 
BRANCH   7   8
ATOM      8  O   UNL     1       0.452   2.968  20.042  0.00  0.00    +0.000 OA
ATOM      9  H   UNL     1      -0.420   3.326  19.799  0.00  0.00    +0.000 HD
ENDBRANCH   7   8
ENDBRANCH   1   7
TORSDOF 5
ENDMDL
MODEL 7
REMARK VINA RESULT:      -3.2      2.775      2.992
REMARK  Name = 
REMARK  5 active torsions:
REMARK  status: ('A' for Active; 'I' for Inactive)
REMARK    1  A    between atoms: O_1  and  C_2
REMARK    2  A    between atoms: C_2  and  C_3
REMARK    3  A    between atoms: C_3  and  N_4
REMARK    4  A    between atoms: N_4  and  C_5
REMARK    5  A    between atoms: C_5  and  O_6
REMARK                            x       y       z     vdW  Elec       q    Type
REMARK                         _______ _______ _______ _____ _____    ______ ____
ROOT
ATOM      1  N   UNL     1       7.728   4.586  18.468  0.00  0.00    +0.000 NA
ATOM      2  H   UNL     1       8.593   4.484  17.928  0.00  0.00    +0.000 HD
ENDROOT
BRANCH   1   3
ATOM      3  C   UNL     1       6.634   4.662  17.485  0.00  0.00    +0.000 C 
BRANCH   3   4
ATOM      4  C   UNL     1       7.086   4.534  16.023  0.00  0.00    +0.000 C 
BRANCH   4   5
ATOM      5  O   UNL     1       6.857   5.763  15.339  0.00  0.00    +0.000 OA
ATOM      6  H   UNL     1       7.686   6.272  15.383  0.00  0.00    +0.000 HD
ENDBRANCH   4   5
ENDBRANCH   3   4
ENDBRANCH   1   3
BRANCH   1   7
ATOM      7  C   UNL     1       7.853   5.801  19.234  0.00  0.00    +0.000 C 
BRANCH   7   8
ATOM      8  O   UNL     1       8.087   5.428  20.569  0.00  0.00    +0.000 OA
ATOM      9  H   UNL     1       7.189   5.324  20.929  0.00  0.00    +0.000 HD
ENDBRANCH   7   8
ENDBRANCH   1   7
TORSDOF 5
ENDMDL
MODEL 8
REMARK VINA RESULT:      -3.2      1.522      3.576
REMARK  Name = 
REMARK  5 active torsions:
REMARK  status: ('A' for Active; 'I' for Inactive)
REMARK    1  A    between atoms: O_1  and  C_2
REMARK    2  A    between atoms: C_2  and  C_3
REMARK    3  A    between atoms: C_3  and  N_4
REMARK    4  A    between atoms: N_4  and  C_5
REMARK    5  A    between atoms: C_5  and  O_6
REMARK                            x       y       z     vdW  Elec       q    Type
REMARK                         _______ _______ _______ _____ _____    ______ ____
ROOT
ATOM      1  N   UNL     1       7.423   4.368  17.842  0.00  0.00    +0.000 NA
ATOM      2  H   UNL     1       7.459   3.361  18.032  0.00  0.00    +0.000 HD
ENDROOT
BRANCH   1   3
ATOM      3  C   UNL     1       6.362   4.914  18.705  0.00  0.00    +0.000 C 
BRANCH   3   4
ATOM      4  C   UNL     1       5.048   4.120  18.674  0.00  0.00    +0.000 C 
BRANCH   4   5
ATOM      5  O   UNL     1       5.219   2.880  19.354  0.00  0.00    +0.000 OA
ATOM      6  H   UNL     1       6.133   2.589  19.191  0.00  0.00    +0.000 HD
ENDBRANCH   4   5
ENDBRANCH   3   4
ENDBRANCH   1   3
BRANCH   1   7
ATOM      7  C   UNL     1       7.114   4.520  16.442  0.00  0.00    +0.000 C 
BRANCH   7   8
ATOM      8  O   UNL     1       7.455   5.835  16.081  0.00  0.00    +0.000 OA
ATOM      9  H   UNL     1       7.939   6.158  16.861  0.00  0.00    +0.000 HD
ENDBRANCH   7   8
ENDBRANCH   1   7
TORSDOF 5
ENDMDL
MODEL 9
REMARK VINA RESULT:      -3.2      2.654      3.686
REMARK  Name = 
REMARK  5 active torsions:
REMARK  status: ('A' for Active; 'I' for Inactive)
REMARK    1  A    between atoms: O_1  and  C_2
REMARK    2  A    between atoms: C_2  and  C_3
REMARK    3  A    between atoms: C_3  and  N_4
REMARK    4  A    between atoms: N_4  and  C_5
REMARK    5  A    between atoms: C_5  and  O_6
REMARK                            x       y       z     vdW  Elec       q    Type
REMARK                         _______ _______ _______ _____ _____    ______ ____
ROOT
ATOM      1  N   UNL     1       6.589   4.053  16.732  0.00  0.00    +0.000 NA
ATOM      2  H   UNL     1       5.614   4.264  16.971  0.00  0.00    +0.000 HD
ENDROOT
BRANCH   1   3
ATOM      3  C   UNL     1       7.420   4.810  17.685  0.00  0.00    +0.000 C 
BRANCH   3   4
ATOM      4  C   UNL     1       6.637   5.447  18.842  0.00  0.00    +0.000 C 
BRANCH   4   5
ATOM      5  O   UNL     1       7.400   5.367  20.042  0.00  0.00    +0.000 OA
ATOM      6  H   UNL     1       6.773   5.214  20.770  0.00  0.00    +0.000 HD
ENDBRANCH   4   5
ENDBRANCH   3   4
ENDBRANCH   1   3
BRANCH   1   7
ATOM      7  C   UNL     1       6.792   4.486  15.373  0.00  0.00    +0.000 C 
BRANCH   7   8
ATOM      8  O   UNL     1       7.599   5.636  15.419  0.00  0.00    +0.000 OA
ATOM      9  H   UNL     1       7.355   6.042  16.269  0.00  0.00    +0.000 HD
ENDBRANCH   7   8
ENDBRANCH   1   7
TORSDOF 5
ENDMDL
