MODEL 1
REMARK VINA RESULT:      -7.9      0.000      0.000
REMARK  Name = 
REMARK  9 active torsions:
REMARK  status: ('A' for Active; 'I' for Inactive)
REMARK    1  A    between atoms: C_1  and  C_2
REMARK    2  A    between atoms: C_2  and  O_3
REMARK    3  A    between atoms: O_3  and  C_4
REMARK    4  A    between atoms: C_9  and  C_10
REMARK    5  A    between atoms: C_10  and  N_11
REMARK    6  A    between atoms: C_12  and  C_14
REMARK    7  A    between atoms: C_19  and  C_20
REMARK    8  A    between atoms: C_23  and  C_24
REMARK    9  A    between atoms: C_26  and  C_27
REMARK                            x       y       z     vdW  Elec       q    Type
REMARK                         _______ _______ _______ _____ _____    ______ ____
ROOT
ATOM      1  N   UNL     1       0.562   9.618  17.911  0.00  0.00    +0.000 N 
ATOM      2  C   UNL     1       0.043  10.827  18.321  0.00  0.00    +0.000 C 
ATOM      3  O   UNL     1       0.728  11.701  18.836  0.00  0.00    +0.000 OA
ATOM      4  H   UNL     1      -0.007   8.922  17.455  0.00  0.00    +0.000 HD
ENDROOT
BRANCH   2   5
ATOM      5  C   UNL     1      -1.428  11.005  18.097  0.00  0.00    +0.000 A 
ATOM      6  C   UNL     1      -2.078  10.536  16.829  0.00  0.00    +0.000 A 
ATOM      7  N   UNL     1      -3.317  10.669  16.481  0.00  0.00    +0.000 NA
ATOM      8  C   UNL     1      -4.114  11.278  17.402  0.00  0.00    +0.000 A 
ATOM      9  C   UNL     1      -5.452  11.578  17.358  0.00  0.00    +0.000 A 
ATOM     10  C   UNL     1      -5.744  12.158  18.603  0.00  0.00    +0.000 A 
ATOM     11  C   UNL     1      -7.075  12.619  19.073  0.00  0.00    +0.000 C 
ATOM     12  N   UNL     1      -4.661  12.247  19.384  0.00  0.00    +0.000 NA
ATOM     13  N   UNL     1      -3.644  11.701  18.653  0.00  0.00    +0.000 N 
ATOM     14  C   UNL     1      -2.280  11.560  18.997  0.00  0.00    +0.000 A 
ATOM     15  C   UNL     1      -1.852  12.064  20.349  0.00  0.00    +0.000 C 
ENDBRANCH   2   5
BRANCH   1  16
ATOM     16  C   UNL     1       1.960   9.260  18.092  0.00  0.00    +0.000 C 
BRANCH  16  22
ATOM     17  C   UNL     1       1.775   7.623  20.082  0.00  0.00    +0.000 A 
ATOM     18  C   UNL     1       1.824   6.298  20.566  0.00  0.00    +0.000 A 
ATOM     19  C   UNL     1       2.175   5.281  19.694  0.00  0.00    +0.000 A 
ATOM     20  C   UNL     1       2.521   5.567  18.387  0.00  0.00    +0.000 A 
ATOM     21  C   UNL     1       2.535   6.846  17.893  0.00  0.00    +0.000 A 
ATOM     22  C   UNL     1       2.127   7.900  18.732  0.00  0.00    +0.000 A 
ATOM     23  O   UNL     1       2.774   4.460  17.624  0.00  0.00    +0.000 OA
ATOM     24  C   UNL     1       2.169   3.402  18.406  0.00  0.00    +0.000 C 
ATOM     25  C   UNL     1       2.857   2.098  18.048  0.00  0.00    +0.000 C 
ATOM     26  C   UNL     1       2.248   3.809  19.887  0.00  0.00    +0.000 C 
BRANCH  17  27
ATOM     27  O   UNL     1       1.380   8.703  20.846  0.00  0.00    +0.000 OA
BRANCH  27  29
ATOM     28  C   UNL     1       0.028   9.467  22.691  0.00  0.00    +0.000 C 
ATOM     29  C   UNL     1       0.069   8.643  21.414  0.00  0.00    +0.000 C 
ENDBRANCH  27  29
ENDBRANCH  17  27
ENDBRANCH  16  22
ENDBRANCH   1  16
TORSDOF 5
ENDMDL
MODEL 2
REMARK VINA RESULT:      -7.7      4.033      9.208
REMARK  Name = 
REMARK  9 active torsions:
REMARK  status: ('A' for Active; 'I' for Inactive)
REMARK    1  A    between atoms: C_1  and  C_2
REMARK    2  A    between atoms: C_2  and  O_3
REMARK    3  A    between atoms: O_3  and  C_4
REMARK    4  A    between atoms: C_9  and  C_10
REMARK    5  A    between atoms: C_10  and  N_11
REMARK    6  A    between atoms: C_12  and  C_14
REMARK    7  A    between atoms: C_19  and  C_20
REMARK    8  A    between atoms: C_23  and  C_24
REMARK    9  A    between atoms: C_26  and  C_27
REMARK                            x       y       z     vdW  Elec       q    Type
REMARK                         _______ _______ _______ _____ _____    ______ ____
ROOT
ATOM      1  N   UNL     1       2.320   6.611  20.272  0.00  0.00    +0.000 N 
ATOM      2  C   UNL     1       2.830   5.331  20.235  0.00  0.00    +0.000 C 
ATOM      3  O   UNL     1       2.460   4.450  20.999  0.00  0.00    +0.000 OA
ATOM      4  H   UNL     1       2.608   7.317  19.612  0.00  0.00    +0.000 HD
ENDROOT
BRANCH   2   5
ATOM      5  C   UNL     1       3.877   5.085  19.192  0.00  0.00    +0.000 A 
ATOM      6  C   UNL     1       5.333   5.276  19.499  0.00  0.00    +0.000 A 
ATOM      7  N   UNL     1       6.334   5.151  18.688  0.00  0.00    +0.000 NA
ATOM      8  C   UNL     1       6.008   4.769  17.422  0.00  0.00    +0.000 A 
ATOM      9  C   UNL     1       6.806   4.550  16.328  0.00  0.00    +0.000 A 
ATOM     10  C   UNL     1       5.936   4.127  15.311  0.00  0.00    +0.000 A 
ATOM     11  C   UNL     1       6.315   3.721  13.935  0.00  0.00    +0.000 C 
ATOM     12  N   UNL     1       4.661   4.101  15.718  0.00  0.00    +0.000 NA
ATOM     13  N   UNL     1       4.692   4.493  17.027  0.00  0.00    +0.000 N 
ATOM     14  C   UNL     1       3.617   4.657  17.930  0.00  0.00    +0.000 A 
ATOM     15  C   UNL     1       2.232   4.365  17.417  0.00  0.00    +0.000 C 
ENDBRANCH   2   5
BRANCH   1  16
ATOM     16  C   UNL     1       1.330   7.036  21.248  0.00  0.00    +0.000 C 
BRANCH  16  22
ATOM     17  C   UNL     1       0.931   9.177  19.859  0.00  0.00    +0.000 A 
ATOM     18  C   UNL     1       0.453  10.503  19.793  0.00  0.00    +0.000 A 
ATOM     19  C   UNL     1      -0.006  11.107  20.952  0.00  0.00    +0.000 A 
ATOM     20  C   UNL     1       0.052  10.438  22.161  0.00  0.00    +0.000 A 
ATOM     21  C   UNL     1       0.555   9.168  22.274  0.00  0.00    +0.000 A 
ATOM     22  C   UNL     1       0.977   8.500  21.110  0.00  0.00    +0.000 A 
ATOM     23  O   UNL     1      -0.502  11.128  23.204  0.00  0.00    +0.000 OA
ATOM     24  C   UNL     1      -1.301  12.126  22.525  0.00  0.00    +0.000 C 
ATOM     25  C   UNL     1      -1.480  13.305  23.462  0.00  0.00    +0.000 C 
ATOM     26  C   UNL     1      -0.618  12.442  21.184  0.00  0.00    +0.000 C 
BRANCH  17  27
ATOM     27  O   UNL     1       1.354   8.460  18.758  0.00  0.00    +0.000 OA
BRANCH  27  29
ATOM     28  C   UNL     1       3.327   8.195  17.398  0.00  0.00    +0.000 C 
ATOM     29  C   UNL     1       2.222   9.138  17.846  0.00  0.00    +0.000 C 
ENDBRANCH  27  29
ENDBRANCH  17  27
ENDBRANCH  16  22
ENDBRANCH   1  16
TORSDOF 5
ENDMDL
MODEL 3
REMARK VINA RESULT:      -7.7      3.305      5.806
REMARK  Name = 
REMARK  9 active torsions:
REMARK  status: ('A' for Active; 'I' for Inactive)
REMARK    1  A    between atoms: C_1  and  C_2
REMARK    2  A    between atoms: C_2  and  O_3
REMARK    3  A    between atoms: O_3  and  C_4
REMARK    4  A    between atoms: C_9  and  C_10
REMARK    5  A    between atoms: C_10  and  N_11
REMARK    6  A    between atoms: C_12  and  C_14
REMARK    7  A    between atoms: C_19  and  C_20
REMARK    8  A    between atoms: C_23  and  C_24
REMARK    9  A    between atoms: C_26  and  C_27
REMARK                            x       y       z     vdW  Elec       q    Type
REMARK                         _______ _______ _______ _____ _____    ______ ____
ROOT
ATOM      1  N   UNL     1       4.050   6.498  19.352  0.00  0.00    +0.000 N 
ATOM      2  C   UNL     1       2.680   6.572  19.484  0.00  0.00    +0.000 C 
ATOM      3  O   UNL     1       1.989   5.601  19.757  0.00  0.00    +0.000 OA
ATOM      4  H   UNL     1       4.612   7.314  19.163  0.00  0.00    +0.000 HD
ENDROOT
BRANCH   2   5
ATOM      5  C   UNL     1       2.086   7.931  19.268  0.00  0.00    +0.000 A 
ATOM      6  C   UNL     1       2.228   8.635  17.952  0.00  0.00    +0.000 A 
ATOM      7  N   UNL     1       1.814   9.822  17.643  0.00  0.00    +0.000 NA
ATOM      8  C   UNL     1       1.145  10.477  18.632  0.00  0.00    +0.000 A 
ATOM      9  C   UNL     1       0.585  11.729  18.647  0.00  0.00    +0.000 A 
ATOM     10  C   UNL     1      -0.013  11.855  19.911  0.00  0.00    +0.000 A 
ATOM     11  C   UNL     1      -0.792  13.016  20.409  0.00  0.00    +0.000 C 
ATOM     12  N   UNL     1       0.174  10.766  20.667  0.00  0.00    +0.000 NA
ATOM     13  N   UNL     1       0.887   9.902  19.884  0.00  0.00    +0.000 N 
ATOM     14  C   UNL     1       1.369   8.611  20.199  0.00  0.00    +0.000 A 
ATOM     15  C   UNL     1       1.070   8.078  21.575  0.00  0.00    +0.000 C 
ENDBRANCH   2   5
BRANCH   1  16
ATOM     16  C   UNL     1       4.787   5.251  19.484  0.00  0.00    +0.000 C 
BRANCH  16  22
ATOM     17  C   UNL     1       4.489   3.588  17.529  0.00  0.00    +0.000 A 
ATOM     18  C   UNL     1       4.821   3.195  16.216  0.00  0.00    +0.000 A 
ATOM     19  C   UNL     1       5.793   3.906  15.531  0.00  0.00    +0.000 A 
ATOM     20  C   UNL     1       6.460   4.950  16.145  0.00  0.00    +0.000 A 
ATOM     21  C   UNL     1       6.201   5.330  17.437  0.00  0.00    +0.000 A 
ATOM     22  C   UNL     1       5.179   4.670  18.144  0.00  0.00    +0.000 A 
ATOM     23  O   UNL     1       7.339   5.605  15.326  0.00  0.00    +0.000 OA
ATOM     24  C   UNL     1       6.906   5.185  14.009  0.00  0.00    +0.000 C 
ATOM     25  C   UNL     1       8.085   5.307  13.064  0.00  0.00    +0.000 C 
ATOM     26  C   UNL     1       6.302   3.776  14.141  0.00  0.00    +0.000 C 
BRANCH  17  27
ATOM     27  O   UNL     1       3.495   2.990  18.280  0.00  0.00    +0.000 OA
BRANCH  27  29
ATOM     28  C   UNL     1       1.207   2.329  18.654  0.00  0.00    +0.000 C 
ATOM     29  C   UNL     1       2.235   2.792  17.634  0.00  0.00    +0.000 C 
ENDBRANCH  27  29
ENDBRANCH  17  27
ENDBRANCH  16  22
ENDBRANCH   1  16
TORSDOF 5
ENDMDL
MODEL 4
REMARK VINA RESULT:      -7.7      3.794      6.204
REMARK  Name = 
REMARK  9 active torsions:
REMARK  status: ('A' for Active; 'I' for Inactive)
REMARK    1  A    between atoms: C_1  and  C_2
REMARK    2  A    between atoms: C_2  and  O_3
REMARK    3  A    between atoms: O_3  and  C_4
REMARK    4  A    between atoms: C_9  and  C_10
REMARK    5  A    between atoms: C_10  and  N_11
REMARK    6  A    between atoms: C_12  and  C_14
REMARK    7  A    between atoms: C_19  and  C_20
REMARK    8  A    between atoms: C_23  and  C_24
REMARK    9  A    between atoms: C_26  and  C_27
REMARK                            x       y       z     vdW  Elec       q    Type
REMARK                         _______ _______ _______ _____ _____    ______ ____
ROOT
ATOM      1  N   UNL     1       3.877   5.996  19.513  0.00  0.00    +0.000 N 
ATOM      2  C   UNL     1       2.525   6.152  19.292  0.00  0.00    +0.000 C 
ATOM      3  O   UNL     1       1.844   5.303  18.733  0.00  0.00    +0.000 OA
ATOM      4  H   UNL     1       4.418   6.688  20.008  0.00  0.00    +0.000 HD
ENDROOT
BRANCH   2   5
ATOM      5  C   UNL     1       1.937   7.440  19.783  0.00  0.00    +0.000 A 
ATOM      6  C   UNL     1       1.417   7.567  21.183  0.00  0.00    +0.000 A 
ATOM      7  N   UNL     1       0.841   8.594  21.721  0.00  0.00    +0.000 NA
ATOM      8  C   UNL     1       0.736   9.687  20.915  0.00  0.00    +0.000 A 
ATOM      9  C   UNL     1       0.188  10.920  21.160  0.00  0.00    +0.000 A 
ATOM     10  C   UNL     1       0.406  11.663  19.988  0.00  0.00    +0.000 A 
ATOM     11  C   UNL     1       0.036  13.082  19.759  0.00  0.00    +0.000 C 
ATOM     12  N   UNL     1       1.029  10.945  19.046  0.00  0.00    +0.000 NA
ATOM     13  N   UNL     1       1.244   9.719  19.610  0.00  0.00    +0.000 N 
ATOM     14  C   UNL     1       1.851   8.575  19.042  0.00  0.00    +0.000 A 
ATOM     15  C   UNL     1       2.346   8.686  17.624  0.00  0.00    +0.000 C 
ENDBRANCH   2   5
BRANCH   1  16
ATOM     16  C   UNL     1       4.617   4.828  19.064  0.00  0.00    +0.000 C 
BRANCH  16  22
ATOM     17  C   UNL     1       6.430   5.820  17.513  0.00  0.00    +0.000 A 
ATOM     18  C   UNL     1       7.051   5.852  16.246  0.00  0.00    +0.000 A 
ATOM     19  C   UNL     1       6.526   5.079  15.224  0.00  0.00    +0.000 A 
ATOM     20  C   UNL     1       5.382   4.330  15.429  0.00  0.00    +0.000 A 
ATOM     21  C   UNL     1       4.720   4.312  16.631  0.00  0.00    +0.000 A 
ATOM     22  C   UNL     1       5.257   5.038  17.710  0.00  0.00    +0.000 A 
ATOM     23  O   UNL     1       5.020   3.563  14.356  0.00  0.00    +0.000 OA
ATOM     24  C   UNL     1       6.236   3.540  13.570  0.00  0.00    +0.000 C 
ATOM     25  C   UNL     1       5.859   3.275  12.125  0.00  0.00    +0.000 C 
ATOM     26  C   UNL     1       6.988   4.856  13.829  0.00  0.00    +0.000 C 
BRANCH  17  27
ATOM     27  O   UNL     1       6.904   6.502  18.616  0.00  0.00    +0.000 OA
BRANCH  27  29
ATOM     28  C   UNL     1       8.129   8.511  18.089  0.00  0.00    +0.000 C 
ATOM     29  C   UNL     1       8.219   7.054  18.513  0.00  0.00    +0.000 C 
ENDBRANCH  27  29
ENDBRANCH  17  27
ENDBRANCH  16  22
ENDBRANCH   1  16
TORSDOF 5
ENDMDL
MODEL 5
REMARK VINA RESULT:      -7.7      1.107      1.324
REMARK  Name = 
REMARK  9 active torsions:
REMARK  status: ('A' for Active; 'I' for Inactive)
REMARK    1  A    between atoms: C_1  and  C_2
REMARK    2  A    between atoms: C_2  and  O_3
REMARK    3  A    between atoms: O_3  and  C_4
REMARK    4  A    between atoms: C_9  and  C_10
REMARK    5  A    between atoms: C_10  and  N_11
REMARK    6  A    between atoms: C_12  and  C_14
REMARK    7  A    between atoms: C_19  and  C_20
REMARK    8  A    between atoms: C_23  and  C_24
REMARK    9  A    between atoms: C_26  and  C_27
REMARK                            x       y       z     vdW  Elec       q    Type
REMARK                         _______ _______ _______ _____ _____    ______ ____
ROOT
ATOM      1  N   UNL     1      -0.031  10.534  18.364  0.00  0.00    +0.000 N 
ATOM      2  C   UNL     1      -0.574  11.799  18.425  0.00  0.00    +0.000 C 
ATOM      3  O   UNL     1       0.105  12.814  18.346  0.00  0.00    +0.000 OA
ATOM      4  H   UNL     1      -0.607   9.706  18.393  0.00  0.00    +0.000 HD
ENDROOT
BRANCH   2   5
ATOM      5  C   UNL     1      -2.061  11.854  18.597  0.00  0.00    +0.000 A 
ATOM      6  C   UNL     1      -2.982  11.481  17.474  0.00  0.00    +0.000 A 
ATOM      7  N   UNL     1      -4.276  11.530  17.464  0.00  0.00    +0.000 NA
ATOM      8  C   UNL     1      -4.848  11.938  18.631  0.00  0.00    +0.000 A 
ATOM      9  C   UNL     1      -6.169  12.105  18.961  0.00  0.00    +0.000 A 
ATOM     10  C   UNL     1      -6.169  12.495  20.310  0.00  0.00    +0.000 A 
ATOM     11  C   UNL     1      -7.361  12.758  21.154  0.00  0.00    +0.000 C 
ATOM     12  N   UNL     1      -4.930  12.596  20.805  0.00  0.00    +0.000 NA
ATOM     13  N   UNL     1      -4.100  12.249  19.775  0.00  0.00    +0.000 N 
ATOM     14  C   UNL     1      -2.688  12.205  19.749  0.00  0.00    +0.000 A 
ATOM     15  C   UNL     1      -1.961  12.580  21.013  0.00  0.00    +0.000 C 
ENDBRANCH   2   5
BRANCH   1  16
ATOM     16  C   UNL     1       1.398  10.296  18.243  0.00  0.00    +0.000 C 
BRANCH  16  22
ATOM     17  C   UNL     1       1.426   8.535  20.133  0.00  0.00    +0.000 A 
ATOM     18  C   UNL     1       1.728   7.224  20.560  0.00  0.00    +0.000 A 
ATOM     19  C   UNL     1       2.362   6.364  19.679  0.00  0.00    +0.000 A 
ATOM     20  C   UNL     1       2.737   6.800  18.421  0.00  0.00    +0.000 A 
ATOM     21  C   UNL     1       2.506   8.081  17.988  0.00  0.00    +0.000 A 
ATOM     22  C   UNL     1       1.812   8.966  18.833  0.00  0.00    +0.000 A 
ATOM     23  O   UNL     1       3.287   5.824  17.636  0.00  0.00    +0.000 OA
ATOM     24  C   UNL     1       2.872   4.613  18.312  0.00  0.00    +0.000 C 
ATOM     25  C   UNL     1       3.856   3.515  17.959  0.00  0.00    +0.000 C 
ATOM     26  C   UNL     1       2.744   4.934  19.811  0.00  0.00    +0.000 C 
BRANCH  17  27
ATOM     27  O   UNL     1       0.744   9.453  20.907  0.00  0.00    +0.000 OA
BRANCH  27  29
ATOM     28  C   UNL     1      -0.275   9.729  23.074  0.00  0.00    +0.000 C 
ATOM     29  C   UNL     1      -0.265   8.936  21.777  0.00  0.00    +0.000 C 
ENDBRANCH  27  29
ENDBRANCH  17  27
ENDBRANCH  16  22
ENDBRANCH   1  16
TORSDOF 5
ENDMDL
MODEL 6
REMARK VINA RESULT:      -7.6      2.802      8.134
REMARK  Name = 
REMARK  9 active torsions:
REMARK  status: ('A' for Active; 'I' for Inactive)
REMARK    1  A    between atoms: C_1  and  C_2
REMARK    2  A    between atoms: C_2  and  O_3
REMARK    3  A    between atoms: O_3  and  C_4
REMARK    4  A    between atoms: C_9  and  C_10
REMARK    5  A    between atoms: C_10  and  N_11
REMARK    6  A    between atoms: C_12  and  C_14
REMARK    7  A    between atoms: C_19  and  C_20
REMARK    8  A    between atoms: C_23  and  C_24
REMARK    9  A    between atoms: C_26  and  C_27
REMARK                            x       y       z     vdW  Elec       q    Type
REMARK                         _______ _______ _______ _____ _____    ______ ____
ROOT
ATOM      1  N   UNL     1       1.425   9.141  19.655  0.00  0.00    +0.000 N 
ATOM      2  C   UNL     1       1.509   7.991  20.411  0.00  0.00    +0.000 C 
ATOM      3  O   UNL     1       1.025   7.899  21.531  0.00  0.00    +0.000 OA
ATOM      4  H   UNL     1       1.796   9.190  18.719  0.00  0.00    +0.000 HD
ENDROOT
BRANCH   2   5
ATOM      5  C   UNL     1       2.240   6.852  19.770  0.00  0.00    +0.000 A 
ATOM      6  C   UNL     1       2.281   5.499  20.416  0.00  0.00    +0.000 A 
ATOM      7  N   UNL     1       2.912   4.446  20.005  0.00  0.00    +0.000 NA
ATOM      8  C   UNL     1       3.582   4.596  18.830  0.00  0.00    +0.000 A 
ATOM      9  C   UNL     1       4.344   3.701  18.122  0.00  0.00    +0.000 A 
ATOM     10  C   UNL     1       4.746   4.387  16.965  0.00  0.00    +0.000 A 
ATOM     11  C   UNL     1       5.556   3.839  15.848  0.00  0.00    +0.000 C 
ATOM     12  N   UNL     1       4.293   5.647  16.944  0.00  0.00    +0.000 NA
ATOM     13  N   UNL     1       3.566   5.788  18.093  0.00  0.00    +0.000 N 
ATOM     14  C   UNL     1       2.884   6.927  18.577  0.00  0.00    +0.000 A 
ATOM     15  C   UNL     1       2.939   8.176  17.737  0.00  0.00    +0.000 C 
ENDBRANCH   2   5
BRANCH   1  16
ATOM     16  C   UNL     1       0.789  10.356  20.139  0.00  0.00    +0.000 C 
BRANCH  16  22
ATOM     17  C   UNL     1      -1.429  11.649  19.854  0.00  0.00    +0.000 A 
ATOM     18  C   UNL     1      -2.554  11.959  19.062  0.00  0.00    +0.000 A 
ATOM     19  C   UNL     1      -2.722  11.302  17.854  0.00  0.00    +0.000 A 
ATOM     20  C   UNL     1      -1.829  10.323  17.459  0.00  0.00    +0.000 A 
ATOM     21  C   UNL     1      -0.751   9.959  18.225  0.00  0.00    +0.000 A 
ATOM     22  C   UNL     1      -0.515  10.645  19.430  0.00  0.00    +0.000 A 
ATOM     23  O   UNL     1      -2.078   9.813  16.214  0.00  0.00    +0.000 OA
ATOM     24  C   UNL     1      -2.955  10.813  15.641  0.00  0.00    +0.000 C 
ATOM     25  C   UNL     1      -3.787  10.148  14.561  0.00  0.00    +0.000 C 
ATOM     26  C   UNL     1      -3.749  11.456  16.790  0.00  0.00    +0.000 C 
BRANCH  17  27
ATOM     27  O   UNL     1      -1.132  12.285  21.044  0.00  0.00    +0.000 OA
BRANCH  27  29
ATOM     28  C   UNL     1      -1.341  11.079  23.121  0.00  0.00    +0.000 C 
ATOM     29  C   UNL     1      -2.010  12.031  22.144  0.00  0.00    +0.000 C 
ENDBRANCH  27  29
ENDBRANCH  17  27
ENDBRANCH  16  22
ENDBRANCH   1  16
TORSDOF 5
ENDMDL
MODEL 7
REMARK VINA RESULT:      -7.6      2.788      8.216
REMARK  Name = 
REMARK  9 active torsions:
REMARK  status: ('A' for Active; 'I' for Inactive)
REMARK    1  A    between atoms: C_1  and  C_2
REMARK    2  A    between atoms: C_2  and  O_3
REMARK    3  A    between atoms: O_3  and  C_4
REMARK    4  A    between atoms: C_9  and  C_10
REMARK    5  A    between atoms: C_10  and  N_11
REMARK    6  A    between atoms: C_12  and  C_14
REMARK    7  A    between atoms: C_19  and  C_20
REMARK    8  A    between atoms: C_23  and  C_24
REMARK    9  A    between atoms: C_26  and  C_27
REMARK                            x       y       z     vdW  Elec       q    Type
REMARK                         _______ _______ _______ _____ _____    ______ ____
ROOT
ATOM      1  N   UNL     1       1.417   9.046  19.072  0.00  0.00    +0.000 N 
ATOM      2  C   UNL     1       1.813   8.046  19.934  0.00  0.00    +0.000 C 
ATOM      3  O   UNL     1       1.646   8.112  21.144  0.00  0.00    +0.000 OA
ATOM      4  H   UNL     1       1.527   8.962  18.073  0.00  0.00    +0.000 HD
ENDROOT
BRANCH   2   5
ATOM      5  C   UNL     1       2.470   6.864  19.289  0.00  0.00    +0.000 A 
ATOM      6  C   UNL     1       3.398   7.036  18.124  0.00  0.00    +0.000 A 
ATOM      7  N   UNL     1       3.990   6.109  17.442  0.00  0.00    +0.000 NA
ATOM      8  C   UNL     1       3.755   4.837  17.869  0.00  0.00    +0.000 A 
ATOM      9  C   UNL     1       4.211   3.639  17.382  0.00  0.00    +0.000 A 
ATOM     10  C   UNL     1       3.687   2.663  18.245  0.00  0.00    +0.000 A 
ATOM     11  C   UNL     1       3.925   1.199  18.173  0.00  0.00    +0.000 C 
ATOM     12  N   UNL     1       2.924   3.198  19.206  0.00  0.00    +0.000 NA
ATOM     13  N   UNL     1       2.961   4.546  18.987  0.00  0.00    +0.000 N 
ATOM     14  C   UNL     1       2.312   5.580  19.701  0.00  0.00    +0.000 A 
ATOM     15  C   UNL     1       1.457   5.179  20.874  0.00  0.00    +0.000 C 
ENDBRANCH   2   5
BRANCH   1  16
ATOM     16  C   UNL     1       0.804  10.283  19.530  0.00  0.00    +0.000 C 
BRANCH  16  22
ATOM     17  C   UNL     1      -1.521  11.405  19.458  0.00  0.00    +0.000 A 
ATOM     18  C   UNL     1      -2.711  11.679  18.750  0.00  0.00    +0.000 A 
ATOM     19  C   UNL     1      -2.894  11.100  17.504  0.00  0.00    +0.000 A 
ATOM     20  C   UNL     1      -1.950  10.230  16.990  0.00  0.00    +0.000 A 
ATOM     21  C   UNL     1      -0.806   9.901  17.671  0.00  0.00    +0.000 A 
ATOM     22  C   UNL     1      -0.557  10.514  18.912  0.00  0.00    +0.000 A 
ATOM     23  O   UNL     1      -2.229   9.794  15.724  0.00  0.00    +0.000 OA
ATOM     24  C   UNL     1      -3.212  10.757  15.274  0.00  0.00    +0.000 C 
ATOM     25  C   UNL     1      -4.049  10.107  14.190  0.00  0.00    +0.000 C 
ATOM     26  C   UNL     1      -3.988  11.247  16.509  0.00  0.00    +0.000 C 
BRANCH  17  27
ATOM     27  O   UNL     1      -1.209  11.975  20.677  0.00  0.00    +0.000 OA
BRANCH  27  29
ATOM     28  C   UNL     1      -2.352  12.237  22.783  0.00  0.00    +0.000 C 
ATOM     29  C   UNL     1      -2.255  12.693  21.337  0.00  0.00    +0.000 C 
ENDBRANCH  27  29
ENDBRANCH  17  27
ENDBRANCH  16  22
ENDBRANCH   1  16
TORSDOF 5
ENDMDL
MODEL 8
REMARK VINA RESULT:      -7.5      2.350      3.994
REMARK  Name = 
REMARK  9 active torsions:
REMARK  status: ('A' for Active; 'I' for Inactive)
REMARK    1  A    between atoms: C_1  and  C_2
REMARK    2  A    between atoms: C_2  and  O_3
REMARK    3  A    between atoms: O_3  and  C_4
REMARK    4  A    between atoms: C_9  and  C_10
REMARK    5  A    between atoms: C_10  and  N_11
REMARK    6  A    between atoms: C_12  and  C_14
REMARK    7  A    between atoms: C_19  and  C_20
REMARK    8  A    between atoms: C_23  and  C_24
REMARK    9  A    between atoms: C_26  and  C_27
REMARK                            x       y       z     vdW  Elec       q    Type
REMARK                         _______ _______ _______ _____ _____    ______ ____
ROOT
ATOM      1  N   UNL     1       1.565   9.135  18.712  0.00  0.00    +0.000 N 
ATOM      2  C   UNL     1       1.440  10.505  18.800  0.00  0.00    +0.000 C 
ATOM      3  O   UNL     1       2.096  11.274  18.110  0.00  0.00    +0.000 OA
ATOM      4  H   UNL     1       0.990   8.512  19.260  0.00  0.00    +0.000 HD
ENDROOT
BRANCH   2   5
ATOM      5  C   UNL     1       0.443  10.997  19.804  0.00  0.00    +0.000 A 
ATOM      6  C   UNL     1       0.740  10.952  21.273  0.00  0.00    +0.000 A 
ATOM      7  N   UNL     1      -0.041  11.292  22.247  0.00  0.00    +0.000 NA
ATOM      8  C   UNL     1      -1.257  11.777  21.871  0.00  0.00    +0.000 A 
ATOM      9  C   UNL     1      -2.310  12.219  22.631  0.00  0.00    +0.000 A 
ATOM     10  C   UNL     1      -3.279  12.648  21.710  0.00  0.00    +0.000 A 
ATOM     11  C   UNL     1      -4.596  13.255  22.031  0.00  0.00    +0.000 C 
ATOM     12  N   UNL     1      -2.885  12.469  20.444  0.00  0.00    +0.000 NA
ATOM     13  N   UNL     1      -1.630  11.934  20.529  0.00  0.00    +0.000 N 
ATOM     14  C   UNL     1      -0.763  11.535  19.487  0.00  0.00    +0.000 A 
ATOM     15  C   UNL     1      -1.251  11.713  18.074  0.00  0.00    +0.000 C 
ENDBRANCH   2   5
BRANCH   1  16
ATOM     16  C   UNL     1       2.515   8.486  17.823  0.00  0.00    +0.000 C 
BRANCH  16  22
ATOM     17  C   UNL     1       3.997   6.371  17.888  0.00  0.00    +0.000 A 
ATOM     18  C   UNL     1       4.252   5.090  18.421  0.00  0.00    +0.000 A 
ATOM     19  C   UNL     1       3.338   4.540  19.305  0.00  0.00    +0.000 A 
ATOM     20  C   UNL     1       2.172   5.215  19.618  0.00  0.00    +0.000 A 
ATOM     21  C   UNL     1       1.865   6.439  19.082  0.00  0.00    +0.000 A 
ATOM     22  C   UNL     1       2.797   7.056  18.226  0.00  0.00    +0.000 A 
ATOM     23  O   UNL     1       1.402   4.586  20.557  0.00  0.00    +0.000 OA
ATOM     24  C   UNL     1       2.336   3.652  21.149  0.00  0.00    +0.000 C 
ATOM     25  C   UNL     1       1.544   2.503  21.742  0.00  0.00    +0.000 C 
ATOM     26  C   UNL     1       3.360   3.265  20.068  0.00  0.00    +0.000 C 
BRANCH  17  27
ATOM     27  O   UNL     1       4.867   7.038  17.048  0.00  0.00    +0.000 OA
BRANCH  27  29
ATOM     28  C   UNL     1       7.234   7.257  17.449  0.00  0.00    +0.000 C 
ATOM     29  C   UNL     1       6.136   6.419  16.816  0.00  0.00    +0.000 C 
ENDBRANCH  27  29
ENDBRANCH  17  27
ENDBRANCH  16  22
ENDBRANCH   1  16
TORSDOF 5
ENDMDL
MODEL 9
REMARK VINA RESULT:      -7.5      0.869      1.692
REMARK  Name = 
REMARK  9 active torsions:
REMARK  status: ('A' for Active; 'I' for Inactive)
REMARK    1  A    between atoms: C_1  and  C_2
REMARK    2  A    between atoms: C_2  and  O_3
REMARK    3  A    between atoms: O_3  and  C_4
REMARK    4  A    between atoms: C_9  and  C_10
REMARK    5  A    between atoms: C_10  and  N_11
REMARK    6  A    between atoms: C_12  and  C_14
REMARK    7  A    between atoms: C_19  and  C_20
REMARK    8  A    between atoms: C_23  and  C_24
REMARK    9  A    between atoms: C_26  and  C_27
REMARK                            x       y       z     vdW  Elec       q    Type
REMARK                         _______ _______ _______ _____ _____    ______ ____
ROOT
ATOM      1  N   UNL     1       0.428  10.046  18.721  0.00  0.00    +0.000 N 
ATOM      2  C   UNL     1       0.160  11.384  18.913  0.00  0.00    +0.000 C 
ATOM      3  O   UNL     1       1.021  12.250  18.829  0.00  0.00    +0.000 OA
ATOM      4  H   UNL     1      -0.299   9.348  18.756  0.00  0.00    +0.000 HD
ENDROOT
BRANCH   2   5
ATOM      5  C   UNL     1      -1.265  11.716  19.236  0.00  0.00    +0.000 A 
ATOM      6  C   UNL     1      -1.643  12.278  20.574  0.00  0.00    +0.000 A 
ATOM      7  N   UNL     1      -2.830  12.560  21.006  0.00  0.00    +0.000 NA
ATOM      8  C   UNL     1      -3.836  12.345  20.113  0.00  0.00    +0.000 A 
ATOM      9  C   UNL     1      -5.189  12.530  20.239  0.00  0.00    +0.000 A 
ATOM     10  C   UNL     1      -5.729  12.193  18.988  0.00  0.00    +0.000 A 
ATOM     11  C   UNL     1      -7.159  12.267  18.593  0.00  0.00    +0.000 C 
ATOM     12  N   UNL     1      -4.788  11.793  18.125  0.00  0.00    +0.000 NA
ATOM     13  N   UNL     1      -3.608  11.887  18.808  0.00  0.00    +0.000 N 
ATOM     14  C   UNL     1      -2.302  11.569  18.372  0.00  0.00    +0.000 A 
ATOM     15  C   UNL     1      -2.148  11.058  16.963  0.00  0.00    +0.000 C 
ENDBRANCH   2   5
BRANCH   1  16
ATOM     16  C   UNL     1       1.763   9.543  18.443  0.00  0.00    +0.000 C 
BRANCH  16  22
ATOM     17  C   UNL     1       1.610   7.766  20.312  0.00  0.00    +0.000 A 
ATOM     18  C   UNL     1       1.709   6.415  20.707  0.00  0.00    +0.000 A 
ATOM     19  C   UNL     1       2.128   5.477  19.778  0.00  0.00    +0.000 A 
ATOM     20  C   UNL     1       2.491   5.868  18.502  0.00  0.00    +0.000 A 
ATOM     21  C   UNL     1       2.456   7.177  18.096  0.00  0.00    +0.000 A 
ATOM     22  C   UNL     1       1.980   8.151  18.993  0.00  0.00    +0.000 A 
ATOM     23  O   UNL     1       2.814   4.828  17.674  0.00  0.00    +0.000 OA
ATOM     24  C   UNL     1       2.242   3.692  18.366  0.00  0.00    +0.000 C 
ATOM     25  C   UNL     1       2.998   2.449  17.939  0.00  0.00    +0.000 C 
ATOM     26  C   UNL     1       2.267   4.000  19.873  0.00  0.00    +0.000 C 
BRANCH  17  27
ATOM     27  O   UNL     1       1.146   8.773  21.137  0.00  0.00    +0.000 OA
BRANCH  27  29
ATOM     28  C   UNL     1      -0.339   9.567  22.861  0.00  0.00    +0.000 C 
ATOM     29  C   UNL     1      -0.144   8.579  21.723  0.00  0.00    +0.000 C 
ENDBRANCH  27  29
ENDBRANCH  17  27
ENDBRANCH  16  22
ENDBRANCH   1  16
TORSDOF 5
ENDMDL
