MODEL 1
REMARK VINA RESULT:      -7.2      0.000      0.000
REMARK  Name = 
REMARK  9 active torsions:
REMARK  status: ('A' for Active; 'I' for Inactive)
REMARK    1  A    between atoms: C_1  and  N_2
REMARK    2  A    between atoms: N_2  and  C_3
REMARK    3  A    between atoms: C_4  and  C_6
REMARK    4  A    between atoms: C_6  and  S_7
REMARK    5  A    between atoms: S_7  and  C_8
REMARK    6  A    between atoms: C_11  and  C_12
REMARK    7  A    between atoms: C_12  and  N_13
REMARK    8  A    between atoms: C_12  and  C_14
REMARK    9  A    between atoms: C_14  and  C_15
REMARK                            x       y       z     vdW  Elec       q    Type
REMARK                         _______ _______ _______ _____ _____    ______ ____
ROOT
ATOM      1  C   UNL     1       2.189   5.352  19.519  0.00  0.00    +0.000 C 
ENDROOT
BRANCH   1   5
ATOM      2  C   UNL     1       5.743   5.091  19.297  0.00  0.00    +0.000 A 
ATOM      3  N   UNL     1       5.416   3.787  19.267  0.00  0.00    +0.000 NA
ATOM      4  N   UNL     1       4.097   3.728  19.331  0.00  0.00    +0.000 NA
ATOM      5  C   UNL     1       3.658   5.000  19.395  0.00  0.00    +0.000 A 
ATOM      6  O   UNL     1       4.669   5.849  19.373  0.00  0.00    +0.000 OA
BRANCH   2   7
ATOM      7  S   UNL     1       7.455   5.643  19.244  0.00  0.00    +0.000 S 
BRANCH   7   8
ATOM      8  C   UNL     1       7.429   6.458  17.615  0.00  0.00    +0.000 C 
BRANCH   8  12
ATOM      9  C   UNL     1       5.732   4.389  14.814  0.00  0.00    +0.000 C 
ATOM     10  N   UNL     1       5.973   5.458  15.778  0.00  0.00    +0.000 N 
ATOM     11  C   UNL     1       5.015   6.547  15.884  0.00  0.00    +0.000 C 
ATOM     12  C   UNL     1       7.094   5.408  16.571  0.00  0.00    +0.000 C 
ATOM     13  O   UNL     1       7.871   4.471  16.455  0.00  0.00    +0.000 OA
ENDBRANCH   8  12
ENDBRANCH   7   8
ENDBRANCH   2   7
ENDBRANCH   1   5
BRANCH   1  14
ATOM     14  N   UNL     1       1.407   4.120  19.668  0.00  0.00    +0.000 NA
ATOM     15  H   UNL     1       1.044   3.817  18.734  0.00  0.00    +0.000 HD
ATOM     16  H   UNL     1       0.589   4.299  20.297  0.00  0.00    +0.000 HD
ENDBRANCH   1  14
BRANCH   1  17
ATOM     17  C   UNL     1       1.914   6.297  20.705  0.00  0.00    +0.000 C 
BRANCH  17  18
ATOM     18  C   UNL     1       1.568   7.712  20.286  0.00  0.00    +0.000 A 
ATOM     19  C   UNL     1       1.876   8.255  19.041  0.00  0.00    +0.000 A 
ATOM     20  N   UNL     1       1.430   9.528  18.953  0.00  0.00    +0.000 N 
ATOM     21  C   UNL     1       0.837   9.804  20.124  0.00  0.00    +0.000 A 
ATOM     22  C   UNL     1       0.222  11.002  20.486  0.00  0.00    +0.000 A 
ATOM     23  C   UNL     1      -0.346  11.089  21.767  0.00  0.00    +0.000 A 
ATOM     24  C   UNL     1      -0.291   9.985  22.646  0.00  0.00    +0.000 A 
ATOM     25  C   UNL     1       0.336   8.783  22.255  0.00  0.00    +0.000 A 
ATOM     26  C   UNL     1       0.898   8.723  20.974  0.00  0.00    +0.000 A 
ATOM     27  H   UNL     1       1.526  10.165  18.132  0.00  0.00    +0.000 HD
ENDBRANCH  17  18
ENDBRANCH   1  17
TORSDOF 7
ENDMDL
MODEL 2
REMARK VINA RESULT:      -7.2      4.136      6.377
REMARK  Name = 
REMARK  9 active torsions:
REMARK  status: ('A' for Active; 'I' for Inactive)
REMARK    1  A    between atoms: C_1  and  N_2
REMARK    2  A    between atoms: N_2  and  C_3
REMARK    3  A    between atoms: C_4  and  C_6
REMARK    4  A    between atoms: C_6  and  S_7
REMARK    5  A    between atoms: S_7  and  C_8
REMARK    6  A    between atoms: C_11  and  C_12
REMARK    7  A    between atoms: C_12  and  N_13
REMARK    8  A    between atoms: C_12  and  C_14
REMARK    9  A    between atoms: C_14  and  C_15
REMARK                            x       y       z     vdW  Elec       q    Type
REMARK                         _______ _______ _______ _____ _____    ______ ____
ROOT
ATOM      1  C   UNL     1       6.251   5.138  17.000  0.00  0.00    +0.000 C 
ENDROOT
BRANCH   1   5
ATOM      2  C   UNL     1       7.884   8.189  17.879  0.00  0.00    +0.000 A 
ATOM      3  N   UNL     1       8.367   7.386  18.843  0.00  0.00    +0.000 NA
ATOM      4  N   UNL     1       7.846   6.190  18.632  0.00  0.00    +0.000 NA
ATOM      5  C   UNL     1       7.061   6.298  17.543  0.00  0.00    +0.000 A 
ATOM      6  O   UNL     1       7.080   7.531  17.070  0.00  0.00    +0.000 OA
BRANCH   2   7
ATOM      7  S   UNL     1       8.325   9.932  17.785  0.00  0.00    +0.000 S 
BRANCH   7   8
ATOM      8  C   UNL     1       9.368  10.031  19.275  0.00  0.00    +0.000 C 
BRANCH   8  12
ATOM      9  C   UNL     1      10.829  13.617  19.404  0.00  0.00    +0.000 C 
ATOM     10  N   UNL     1      10.665  12.213  19.041  0.00  0.00    +0.000 N 
ATOM     11  C   UNL     1      11.619  11.599  18.131  0.00  0.00    +0.000 C 
ATOM     12  C   UNL     1       9.619  11.497  19.574  0.00  0.00    +0.000 C 
ATOM     13  O   UNL     1       8.843  12.050  20.341  0.00  0.00    +0.000 OA
ENDBRANCH   8  12
ENDBRANCH   7   8
ENDBRANCH   2   7
ENDBRANCH   1   5
BRANCH   1  14
ATOM     14  N   UNL     1       6.353   4.003  17.923  0.00  0.00    +0.000 NA
ATOM     15  H   UNL     1       7.360   3.756  18.070  0.00  0.00    +0.000 HD
ATOM     16  H   UNL     1       5.867   3.172  17.511  0.00  0.00    +0.000 HD
ENDBRANCH   1  14
BRANCH   1  17
ATOM     17  C   UNL     1       4.771   5.510  16.785  0.00  0.00    +0.000 C 
BRANCH  17  18
ATOM     18  C   UNL     1       3.916   5.347  18.025  0.00  0.00    +0.000 A 
ATOM     19  C   UNL     1       3.952   6.210  19.117  0.00  0.00    +0.000 A 
ATOM     20  N   UNL     1       3.070   5.819  20.063  0.00  0.00    +0.000 N 
ATOM     21  C   UNL     1       2.467   4.719  19.588  0.00  0.00    +0.000 A 
ATOM     22  C   UNL     1       1.473   3.973  20.220  0.00  0.00    +0.000 A 
ATOM     23  C   UNL     1       0.967   2.850  19.549  0.00  0.00    +0.000 A 
ATOM     24  C   UNL     1       1.457   2.503  18.271  0.00  0.00    +0.000 A 
ATOM     25  C   UNL     1       2.462   3.276  17.651  0.00  0.00    +0.000 A 
ATOM     26  C   UNL     1       2.953   4.390  18.343  0.00  0.00    +0.000 A 
ATOM     27  H   UNL     1       2.892   6.287  20.980  0.00  0.00    +0.000 HD
ENDBRANCH  17  18
ENDBRANCH   1  17
TORSDOF 7
ENDMDL
MODEL 3
REMARK VINA RESULT:      -7.1      2.622      8.444
REMARK  Name = 
REMARK  9 active torsions:
REMARK  status: ('A' for Active; 'I' for Inactive)
REMARK    1  A    between atoms: C_1  and  N_2
REMARK    2  A    between atoms: N_2  and  C_3
REMARK    3  A    between atoms: C_4  and  C_6
REMARK    4  A    between atoms: C_6  and  S_7
REMARK    5  A    between atoms: S_7  and  C_8
REMARK    6  A    between atoms: C_11  and  C_12
REMARK    7  A    between atoms: C_12  and  N_13
REMARK    8  A    between atoms: C_12  and  C_14
REMARK    9  A    between atoms: C_14  and  C_15
REMARK                            x       y       z     vdW  Elec       q    Type
REMARK                         _______ _______ _______ _____ _____    ______ ____
ROOT
ATOM      1  C   UNL     1       5.131   4.506  18.125  0.00  0.00    +0.000 C 
ENDROOT
BRANCH   1   5
ATOM      2  C   UNL     1       2.865   7.251  18.402  0.00  0.00    +0.000 A 
ATOM      3  N   UNL     1       2.505   6.547  19.489  0.00  0.00    +0.000 NA
ATOM      4  N   UNL     1       3.287   5.483  19.524  0.00  0.00    +0.000 NA
ATOM      5  C   UNL     1       4.104   5.570  18.458  0.00  0.00    +0.000 A 
ATOM      6  O   UNL     1       3.851   6.661  17.759  0.00  0.00    +0.000 OA
BRANCH   2   7
ATOM      7  S   UNL     1       2.046   8.789  17.952  0.00  0.00    +0.000 S 
BRANCH   7   8
ATOM      8  C   UNL     1       1.268   9.165  19.556  0.00  0.00    +0.000 C 
BRANCH   8  12
ATOM      9  C   UNL     1      -1.636  11.705  19.901  0.00  0.00    +0.000 C 
ATOM     10  N   UNL     1      -0.472  10.895  20.245  0.00  0.00    +0.000 N 
ATOM     11  C   UNL     1       0.083  10.984  21.586  0.00  0.00    +0.000 C 
ATOM     12  C   UNL     1       0.070  10.060  19.298  0.00  0.00    +0.000 C 
ATOM     13  O   UNL     1      -0.431  10.011  18.182  0.00  0.00    +0.000 OA
ENDBRANCH   8  12
ENDBRANCH   7   8
ENDBRANCH   2   7
ENDBRANCH   1   5
BRANCH   1  14
ATOM     14  N   UNL     1       5.052   3.430  19.118  0.00  0.00    +0.000 NA
ATOM     15  H   UNL     1       4.250   2.797  18.891  0.00  0.00    +0.000 HD
ATOM     16  H   UNL     1       4.889   3.842  20.067  0.00  0.00    +0.000 HD
ENDBRANCH   1  14
BRANCH   1  17
ATOM     17  C   UNL     1       4.936   3.930  16.708  0.00  0.00    +0.000 C 
BRANCH  17  18
ATOM     18  C   UNL     1       5.938   4.451  15.698  0.00  0.00    +0.000 A 
ATOM     19  C   UNL     1       6.960   5.346  16.002  0.00  0.00    +0.000 A 
ATOM     20  N   UNL     1       7.701   5.615  14.905  0.00  0.00    +0.000 N 
ATOM     21  C   UNL     1       7.169   4.899  13.903  0.00  0.00    +0.000 A 
ATOM     22  C   UNL     1       7.612   4.854  12.582  0.00  0.00    +0.000 A 
ATOM     23  C   UNL     1       6.914   4.034  11.681  0.00  0.00    +0.000 A 
ATOM     24  C   UNL     1       5.802   3.282  12.119  0.00  0.00    +0.000 A 
ATOM     25  C   UNL     1       5.375   3.343  13.463  0.00  0.00    +0.000 A 
ATOM     26  C   UNL     1       6.085   4.171  14.340  0.00  0.00    +0.000 A 
ATOM     27  H   UNL     1       8.527   6.251  14.852  0.00  0.00    +0.000 HD
ENDBRANCH  17  18
ENDBRANCH   1  17
TORSDOF 7
ENDMDL
MODEL 4
REMARK VINA RESULT:      -7.1      3.590      8.179
REMARK  Name = 
REMARK  9 active torsions:
REMARK  status: ('A' for Active; 'I' for Inactive)
REMARK    1  A    between atoms: C_1  and  N_2
REMARK    2  A    between atoms: N_2  and  C_3
REMARK    3  A    between atoms: C_4  and  C_6
REMARK    4  A    between atoms: C_6  and  S_7
REMARK    5  A    between atoms: S_7  and  C_8
REMARK    6  A    between atoms: C_11  and  C_12
REMARK    7  A    between atoms: C_12  and  N_13
REMARK    8  A    between atoms: C_12  and  C_14
REMARK    9  A    between atoms: C_14  and  C_15
REMARK                            x       y       z     vdW  Elec       q    Type
REMARK                         _______ _______ _______ _____ _____    ______ ____
ROOT
ATOM      1  C   UNL     1       2.668   6.705  19.605  0.00  0.00    +0.000 C 
ENDROOT
BRANCH   1   5
ATOM      2  C   UNL     1       1.176   9.796  18.617  0.00  0.00    +0.000 A 
ATOM      3  N   UNL     1       1.960   9.568  17.548  0.00  0.00    +0.000 NA
ATOM      4  N   UNL     1       2.579   8.423  17.772  0.00  0.00    +0.000 NA
ATOM      5  C   UNL     1       2.153   7.983  18.972  0.00  0.00    +0.000 A 
ATOM      6  O   UNL     1       1.284   8.825  19.500  0.00  0.00    +0.000 OA
BRANCH   2   7
ATOM      7  S   UNL     1       0.149  11.268  18.746  0.00  0.00    +0.000 S 
BRANCH   7   8
ATOM      8  C   UNL     1      -1.451  10.458  19.068  0.00  0.00    +0.000 C 
BRANCH   8  12
ATOM      9  C   UNL     1      -4.194  11.240  16.446  0.00  0.00    +0.000 C 
ATOM     10  N   UNL     1      -3.462  11.236  17.709  0.00  0.00    +0.000 N 
ATOM     11  C   UNL     1      -4.006  11.961  18.847  0.00  0.00    +0.000 C 
ATOM     12  C   UNL     1      -2.280  10.540  17.800  0.00  0.00    +0.000 C 
ATOM     13  O   UNL     1      -1.861   9.939  16.820  0.00  0.00    +0.000 OA
ENDBRANCH   8  12
ENDBRANCH   7   8
ENDBRANCH   2   7
ENDBRANCH   1   5
BRANCH   1  14
ATOM     14  N   UNL     1       1.804   6.342  20.732  0.00  0.00    +0.000 NA
ATOM     15  H   UNL     1       1.399   5.389  20.575  0.00  0.00    +0.000 HD
ATOM     16  H   UNL     1       1.016   7.028  20.805  0.00  0.00    +0.000 HD
ENDBRANCH   1  14
BRANCH   1  17
ATOM     17  C   UNL     1       2.737   5.542  18.597  0.00  0.00    +0.000 C 
BRANCH  17  18
ATOM     18  C   UNL     1       4.141   5.025  18.361  0.00  0.00    +0.000 A 
ATOM     19  C   UNL     1       4.873   4.297  19.296  0.00  0.00    +0.000 A 
ATOM     20  N   UNL     1       6.084   3.961  18.797  0.00  0.00    +0.000 N 
ATOM     21  C   UNL     1       6.134   4.461  17.553  0.00  0.00    +0.000 A 
ATOM     22  C   UNL     1       7.192   4.353  16.652  0.00  0.00    +0.000 A 
ATOM     23  C   UNL     1       7.044   4.948  15.389  0.00  0.00    +0.000 A 
ATOM     24  C   UNL     1       5.851   5.629  15.058  0.00  0.00    +0.000 A 
ATOM     25  C   UNL     1       4.794   5.722  15.988  0.00  0.00    +0.000 A 
ATOM     26  C   UNL     1       4.967   5.123  17.241  0.00  0.00    +0.000 A 
ATOM     27  H   UNL     1       6.828   3.416  19.285  0.00  0.00    +0.000 HD
ENDBRANCH  17  18
ENDBRANCH   1  17
TORSDOF 7
ENDMDL
MODEL 5
REMARK VINA RESULT:      -7.0      4.714      7.048
REMARK  Name = 
REMARK  9 active torsions:
REMARK  status: ('A' for Active; 'I' for Inactive)
REMARK    1  A    between atoms: C_1  and  N_2
REMARK    2  A    between atoms: N_2  and  C_3
REMARK    3  A    between atoms: C_4  and  C_6
REMARK    4  A    between atoms: C_6  and  S_7
REMARK    5  A    between atoms: S_7  and  C_8
REMARK    6  A    between atoms: C_11  and  C_12
REMARK    7  A    between atoms: C_12  and  N_13
REMARK    8  A    between atoms: C_12  and  C_14
REMARK    9  A    between atoms: C_14  and  C_15
REMARK                            x       y       z     vdW  Elec       q    Type
REMARK                         _______ _______ _______ _____ _____    ______ ____
ROOT
ATOM      1  C   UNL     1       6.631   6.126  16.755  0.00  0.00    +0.000 C 
ENDROOT
BRANCH   1   5
ATOM      2  C   UNL     1       8.230   9.070  17.990  0.00  0.00    +0.000 A 
ATOM      3  N   UNL     1       8.656   8.179  18.903  0.00  0.00    +0.000 NA
ATOM      4  N   UNL     1       8.141   7.012  18.558  0.00  0.00    +0.000 NA
ATOM      5  C   UNL     1       7.417   7.225  17.442  0.00  0.00    +0.000 A 
ATOM      6  O   UNL     1       7.468   8.495  17.083  0.00  0.00    +0.000 OA
BRANCH   2   7
ATOM      7  S   UNL     1       8.684  10.809  18.077  0.00  0.00    +0.000 S 
BRANCH   7   8
ATOM      8  C   UNL     1       9.864  10.715  19.463  0.00  0.00    +0.000 C 
BRANCH   8  12
ATOM      9  C   UNL     1      12.192  13.809  19.574  0.00  0.00    +0.000 C 
ATOM     10  N   UNL     1      11.103  12.897  19.908  0.00  0.00    +0.000 N 
ATOM     11  C   UNL     1      10.177  13.256  20.972  0.00  0.00    +0.000 C 
ATOM     12  C   UNL     1      10.969  11.723  19.207  0.00  0.00    +0.000 C 
ATOM     13  O   UNL     1      11.765  11.462  18.316  0.00  0.00    +0.000 OA
ENDBRANCH   8  12
ENDBRANCH   7   8
ENDBRANCH   2   7
ENDBRANCH   1   5
BRANCH   1  14
ATOM     14  N   UNL     1       7.476   5.489  15.741  0.00  0.00    +0.000 NA
ATOM     15  H   UNL     1       7.544   6.106  14.897  0.00  0.00    +0.000 HD
ATOM     16  H   UNL     1       7.048   4.579  15.449  0.00  0.00    +0.000 HD
ENDBRANCH   1  14
BRANCH   1  17
ATOM     17  C   UNL     1       6.113   5.069  17.749  0.00  0.00    +0.000 C 
BRANCH  17  18
ATOM     18  C   UNL     1       4.608   5.087  17.926  0.00  0.00    +0.000 A 
ATOM     19  C   UNL     1       3.834   6.245  17.911  0.00  0.00    +0.000 A 
ATOM     20  N   UNL     1       2.527   5.946  18.077  0.00  0.00    +0.000 N 
ATOM     21  C   UNL     1       2.454   4.611  18.194  0.00  0.00    +0.000 A 
ATOM     22  C   UNL     1       1.299   3.851  18.372  0.00  0.00    +0.000 A 
ATOM     23  C   UNL     1       1.438   2.457  18.468  0.00  0.00    +0.000 A 
ATOM     24  C   UNL     1       2.716   1.861  18.381  0.00  0.00    +0.000 A 
ATOM     25  C   UNL     1       3.869   2.654  18.198  0.00  0.00    +0.000 A 
ATOM     26  C   UNL     1       3.704   4.041  18.109  0.00  0.00    +0.000 A 
ATOM     27  H   UNL     1       1.732   6.623  18.105  0.00  0.00    +0.000 HD
ENDBRANCH  17  18
ENDBRANCH   1  17
TORSDOF 7
ENDMDL
MODEL 6
REMARK VINA RESULT:      -7.0      4.408      6.845
REMARK  Name = 
REMARK  9 active torsions:
REMARK  status: ('A' for Active; 'I' for Inactive)
REMARK    1  A    between atoms: C_1  and  N_2
REMARK    2  A    between atoms: N_2  and  C_3
REMARK    3  A    between atoms: C_4  and  C_6
REMARK    4  A    between atoms: C_6  and  S_7
REMARK    5  A    between atoms: S_7  and  C_8
REMARK    6  A    between atoms: C_11  and  C_12
REMARK    7  A    between atoms: C_12  and  N_13
REMARK    8  A    between atoms: C_12  and  C_14
REMARK    9  A    between atoms: C_14  and  C_15
REMARK                            x       y       z     vdW  Elec       q    Type
REMARK                         _______ _______ _______ _____ _____    ______ ____
ROOT
ATOM      1  C   UNL     1       7.178   5.164  17.940  0.00  0.00    +0.000 C 
ENDROOT
BRANCH   1   5
ATOM      2  C   UNL     1       8.363   8.511  18.323  0.00  0.00    +0.000 A 
ATOM      3  N   UNL     1       7.817   8.601  17.097  0.00  0.00    +0.000 NA
ATOM      4  N   UNL     1       7.315   7.410  16.821  0.00  0.00    +0.000 NA
ATOM      5  C   UNL     1       7.567   6.629  17.888  0.00  0.00    +0.000 A 
ATOM      6  O   UNL     1       8.213   7.302  18.822  0.00  0.00    +0.000 OA
BRANCH   2   7
ATOM      7  S   UNL     1       9.181   9.911  19.103  0.00  0.00    +0.000 S 
BRANCH   7   8
ATOM      8  C   UNL     1       8.851  11.167  17.825  0.00  0.00    +0.000 C 
BRANCH   8  12
ATOM      9  C   UNL     1      10.915  14.311  18.757  0.00  0.00    +0.000 C 
ATOM     10  N   UNL     1      10.572  13.012  18.186  0.00  0.00    +0.000 N 
ATOM     11  C   UNL     1      11.584  12.272  17.448  0.00  0.00    +0.000 C 
ATOM     12  C   UNL     1       9.305  12.512  18.363  0.00  0.00    +0.000 C 
ATOM     13  O   UNL     1       8.485  13.164  18.996  0.00  0.00    +0.000 OA
ENDBRANCH   8  12
ENDBRANCH   7   8
ENDBRANCH   2   7
ENDBRANCH   1   5
BRANCH   1  14
ATOM     14  N   UNL     1       6.706   4.837  19.289  0.00  0.00    +0.000 NA
ATOM     15  H   UNL     1       7.076   5.538  19.973  0.00  0.00    +0.000 HD
ATOM     16  H   UNL     1       7.059   3.890  19.563  0.00  0.00    +0.000 HD
ENDBRANCH   1  14
BRANCH   1  17
ATOM     17  C   UNL     1       6.094   4.811  16.902  0.00  0.00    +0.000 C 
BRANCH  17  18
ATOM     18  C   UNL     1       4.680   4.963  17.424  0.00  0.00    +0.000 A 
ATOM     19  C   UNL     1       4.043   6.189  17.605  0.00  0.00    +0.000 A 
ATOM     20  N   UNL     1       2.786   6.008  18.067  0.00  0.00    +0.000 N 
ATOM     21  C   UNL     1       2.609   4.682  18.179  0.00  0.00    +0.000 A 
ATOM     22  C   UNL     1       1.457   4.027  18.611  0.00  0.00    +0.000 A 
ATOM     23  C   UNL     1       1.475   2.625  18.655  0.00  0.00    +0.000 A 
ATOM     24  C   UNL     1       2.632   1.915  18.265  0.00  0.00    +0.000 A 
ATOM     25  C   UNL     1       3.785   2.602  17.830  0.00  0.00    +0.000 A 
ATOM     26  C   UNL     1       3.743   4.001  17.799  0.00  0.00    +0.000 A 
ATOM     27  H   UNL     1       2.090   6.755  18.288  0.00  0.00    +0.000 HD
ENDBRANCH  17  18
ENDBRANCH   1  17
TORSDOF 7
ENDMDL
MODEL 7
REMARK VINA RESULT:      -7.0      4.176      6.526
REMARK  Name = 
REMARK  9 active torsions:
REMARK  status: ('A' for Active; 'I' for Inactive)
REMARK    1  A    between atoms: C_1  and  N_2
REMARK    2  A    between atoms: N_2  and  C_3
REMARK    3  A    between atoms: C_4  and  C_6
REMARK    4  A    between atoms: C_6  and  S_7
REMARK    5  A    between atoms: S_7  and  C_8
REMARK    6  A    between atoms: C_11  and  C_12
REMARK    7  A    between atoms: C_12  and  N_13
REMARK    8  A    between atoms: C_12  and  C_14
REMARK    9  A    between atoms: C_14  and  C_15
REMARK                            x       y       z     vdW  Elec       q    Type
REMARK                         _______ _______ _______ _____ _____    ______ ____
ROOT
ATOM      1  C   UNL     1       5.962   5.372  16.716  0.00  0.00    +0.000 C 
ENDROOT
BRANCH   1   5
ATOM      2  C   UNL     1       7.838   8.228  17.755  0.00  0.00    +0.000 A 
ATOM      3  N   UNL     1       8.315   7.314  18.618  0.00  0.00    +0.000 NA
ATOM      4  N   UNL     1       7.706   6.176  18.337  0.00  0.00    +0.000 NA
ATOM      5  C   UNL     1       6.875   6.428  17.308  0.00  0.00    +0.000 A 
ATOM      6  O   UNL     1       6.951   7.694  16.940  0.00  0.00    +0.000 OA
BRANCH   2   7
ATOM      7  S   UNL     1       8.388   9.941  17.784  0.00  0.00    +0.000 S 
BRANCH   7   8
ATOM      8  C   UNL     1       9.256   9.922  19.386  0.00  0.00    +0.000 C 
BRANCH   8  12
ATOM      9  C   UNL     1      10.683  13.341  20.520  0.00  0.00    +0.000 C 
ATOM     10  N   UNL     1       9.875  12.126  20.508  0.00  0.00    +0.000 N 
ATOM     11  C   UNL     1       8.890  11.917  21.558  0.00  0.00    +0.000 C 
ATOM     12  C   UNL     1      10.054  11.208  19.500  0.00  0.00    +0.000 C 
ATOM     13  O   UNL     1      10.889  11.425  18.633  0.00  0.00    +0.000 OA
ENDBRANCH   8  12
ENDBRANCH   7   8
ENDBRANCH   2   7
ENDBRANCH   1   5
BRANCH   1  14
ATOM     14  N   UNL     1       6.572   4.834  15.496  0.00  0.00    +0.000 NA
ATOM     15  H   UNL     1       7.498   5.295  15.330  0.00  0.00    +0.000 HD
ATOM     16  H   UNL     1       5.953   5.036  14.676  0.00  0.00    +0.000 HD
ENDBRANCH   1  14
BRANCH   1  17
ATOM     17  C   UNL     1       5.671   4.230  17.708  0.00  0.00    +0.000 C 
BRANCH  17  18
ATOM     18  C   UNL     1       4.466   4.484  18.590  0.00  0.00    +0.000 A 
ATOM     19  C   UNL     1       4.346   5.570  19.454  0.00  0.00    +0.000 A 
ATOM     20  N   UNL     1       3.157   5.539  20.097  0.00  0.00    +0.000 N 
ATOM     21  C   UNL     1       2.513   4.449  19.652  0.00  0.00    +0.000 A 
ATOM     22  C   UNL     1       1.243   4.017  20.031  0.00  0.00    +0.000 A 
ATOM     23  C   UNL     1       0.745   2.845  19.442  0.00  0.00    +0.000 A 
ATOM     24  C   UNL     1       1.518   2.140  18.493  0.00  0.00    +0.000 A 
ATOM     25  C   UNL     1       2.800   2.600  18.124  0.00  0.00    +0.000 A 
ATOM     26  C   UNL     1       3.276   3.770  18.729  0.00  0.00    +0.000 A 
ATOM     27  H   UNL     1       2.810   6.231  20.797  0.00  0.00    +0.000 HD
ENDBRANCH  17  18
ENDBRANCH   1  17
TORSDOF 7
ENDMDL
MODEL 8
REMARK VINA RESULT:      -6.9      4.200      6.413
REMARK  Name = 
REMARK  9 active torsions:
REMARK  status: ('A' for Active; 'I' for Inactive)
REMARK    1  A    between atoms: C_1  and  N_2
REMARK    2  A    between atoms: N_2  and  C_3
REMARK    3  A    between atoms: C_4  and  C_6
REMARK    4  A    between atoms: C_6  and  S_7
REMARK    5  A    between atoms: S_7  and  C_8
REMARK    6  A    between atoms: C_11  and  C_12
REMARK    7  A    between atoms: C_12  and  N_13
REMARK    8  A    between atoms: C_12  and  C_14
REMARK    9  A    between atoms: C_14  and  C_15
REMARK                            x       y       z     vdW  Elec       q    Type
REMARK                         _______ _______ _______ _____ _____    ______ ____
ROOT
ATOM      1  C   UNL     1       6.382   5.438  16.446  0.00  0.00    +0.000 C 
ENDROOT
BRANCH   1   5
ATOM      2  C   UNL     1       7.957   8.351  17.780  0.00  0.00    +0.000 A 
ATOM      3  N   UNL     1       8.338   7.445  18.698  0.00  0.00    +0.000 NA
ATOM      4  N   UNL     1       7.826   6.287  18.318  0.00  0.00    +0.000 NA
ATOM      5  C   UNL     1       7.150   6.521  17.177  0.00  0.00    +0.000 A 
ATOM      6  O   UNL     1       7.227   7.794  16.836  0.00  0.00    +0.000 OA
BRANCH   2   7
ATOM      7  S   UNL     1       8.425  10.085  17.906  0.00  0.00    +0.000 S 
BRANCH   7   8
ATOM      8  C   UNL     1       9.325  10.011  19.488  0.00  0.00    +0.000 C 
BRANCH   8  12
ATOM      9  C   UNL     1      10.689  13.448  20.645  0.00  0.00    +0.000 C 
ATOM     10  N   UNL     1       9.874  12.238  20.600  0.00  0.00    +0.000 N 
ATOM     11  C   UNL     1       8.809  12.063  21.576  0.00  0.00    +0.000 C 
ATOM     12  C   UNL     1      10.122  11.294  19.632  0.00  0.00    +0.000 C 
ATOM     13  O   UNL     1      11.024  11.483  18.827  0.00  0.00    +0.000 OA
ENDBRANCH   8  12
ENDBRANCH   7   8
ENDBRANCH   2   7
ENDBRANCH   1   5
BRANCH   1  14
ATOM     14  N   UNL     1       7.275   4.770  15.494  0.00  0.00    +0.000 NA
ATOM     15  H   UNL     1       7.177   3.731  15.586  0.00  0.00    +0.000 HD
ATOM     16  H   UNL     1       8.267   5.027  15.706  0.00  0.00    +0.000 HD
ENDBRANCH   1  14
BRANCH   1  17
ATOM     17  C   UNL     1       5.771   4.403  17.410  0.00  0.00    +0.000 C 
BRANCH  17  18
ATOM     18  C   UNL     1       4.486   4.867  18.066  0.00  0.00    +0.000 A 
ATOM     19  C   UNL     1       3.806   6.030  17.713  0.00  0.00    +0.000 A 
ATOM     20  N   UNL     1       2.688   6.174  18.459  0.00  0.00    +0.000 N 
ATOM     21  C   UNL     1       2.643   5.115  19.282  0.00  0.00    +0.000 A 
ATOM     22  C   UNL     1       1.658   4.836  20.228  0.00  0.00    +0.000 A 
ATOM     23  C   UNL     1       1.794   3.667  20.993  0.00  0.00    +0.000 A 
ATOM     24  C   UNL     1       2.898   2.810  20.793  0.00  0.00    +0.000 A 
ATOM     25  C   UNL     1       3.881   3.114  19.827  0.00  0.00    +0.000 A 
ATOM     26  C   UNL     1       3.724   4.288  19.080  0.00  0.00    +0.000 A 
ATOM     27  H   UNL     1       1.996   6.954  18.400  0.00  0.00    +0.000 HD
ENDBRANCH  17  18
ENDBRANCH   1  17
TORSDOF 7
ENDMDL
MODEL 9
REMARK VINA RESULT:      -6.9      4.284      6.410
REMARK  Name = 
REMARK  9 active torsions:
REMARK  status: ('A' for Active; 'I' for Inactive)
REMARK    1  A    between atoms: C_1  and  N_2
REMARK    2  A    between atoms: N_2  and  C_3
REMARK    3  A    between atoms: C_4  and  C_6
REMARK    4  A    between atoms: C_6  and  S_7
REMARK    5  A    between atoms: S_7  and  C_8
REMARK    6  A    between atoms: C_11  and  C_12
REMARK    7  A    between atoms: C_12  and  N_13
REMARK    8  A    between atoms: C_12  and  C_14
REMARK    9  A    between atoms: C_14  and  C_15
REMARK                            x       y       z     vdW  Elec       q    Type
REMARK                         _______ _______ _______ _____ _____    ______ ____
ROOT
ATOM      1  C   UNL     1       5.951   5.477  17.002  0.00  0.00    +0.000 C 
ENDROOT
BRANCH   1   5
ATOM      2  C   UNL     1       7.923   8.327  17.861  0.00  0.00    +0.000 A 
ATOM      3  N   UNL     1       8.399   7.442  18.755  0.00  0.00    +0.000 NA
ATOM      4  N   UNL     1       7.754   6.309  18.542  0.00  0.00    +0.000 NA
ATOM      5  C   UNL     1       6.904   6.534  17.522  0.00  0.00    +0.000 A 
ATOM      6  O   UNL     1       7.003   7.779  17.093  0.00  0.00    +0.000 OA
BRANCH   2   7
ATOM      7  S   UNL     1       8.517  10.024  17.796  0.00  0.00    +0.000 S 
BRANCH   7   8
ATOM      8  C   UNL     1       9.277  10.112  19.449  0.00  0.00    +0.000 C 
BRANCH   8  12
ATOM      9  C   UNL     1      10.830  13.524  20.426  0.00  0.00    +0.000 C 
ATOM     10  N   UNL     1       9.973  12.343  20.466  0.00  0.00    +0.000 N 
ATOM     11  C   UNL     1       8.970  12.229  21.513  0.00  0.00    +0.000 C 
ATOM     12  C   UNL     1      10.125  11.369  19.508  0.00  0.00    +0.000 C 
ATOM     13  O   UNL     1      10.977  11.507  18.641  0.00  0.00    +0.000 OA
ENDBRANCH   8  12
ENDBRANCH   7   8
ENDBRANCH   2   7
ENDBRANCH   1   5
BRANCH   1  14
ATOM     14  N   UNL     1       6.224   4.205  17.679  0.00  0.00    +0.000 NA
ATOM     15  H   UNL     1       7.032   4.319  18.335  0.00  0.00    +0.000 HD
ATOM     16  H   UNL     1       6.476   3.478  16.969  0.00  0.00    +0.000 HD
ENDBRANCH   1  14
BRANCH   1  17
ATOM     17  C   UNL     1       4.475   5.873  17.201  0.00  0.00    +0.000 C 
BRANCH  17  18
ATOM     18  C   UNL     1       3.584   4.717  17.605  0.00  0.00    +0.000 A 
ATOM     19  C   UNL     1       3.356   3.593  16.813  0.00  0.00    +0.000 A 
ATOM     20  N   UNL     1       2.532   2.726  17.442  0.00  0.00    +0.000 N 
ATOM     21  C   UNL     1       2.234   3.278  18.628  0.00  0.00    +0.000 A 
ATOM     22  C   UNL     1       1.419   2.735  19.620  0.00  0.00    +0.000 A 
ATOM     23  C   UNL     1       1.234   3.475  20.798  0.00  0.00    +0.000 A 
ATOM     24  C   UNL     1       1.866   4.728  20.958  0.00  0.00    +0.000 A 
ATOM     25  C   UNL     1       2.688   5.255  19.939  0.00  0.00    +0.000 A 
ATOM     26  C   UNL     1       2.853   4.499  18.772  0.00  0.00    +0.000 A 
ATOM     27  H   UNL     1       2.200   1.807  17.076  0.00  0.00    +0.000 HD
ENDBRANCH  17  18
ENDBRANCH   1  17
TORSDOF 7
ENDMDL
