MODEL 1
REMARK VINA RESULT:      -9.3      0.000      0.000
REMARK  Name = 
REMARK  5 active torsions:
REMARK  status: ('A' for Active; 'I' for Inactive)
REMARK    1  A    between atoms: C_1  and  C_2
REMARK    2  A    between atoms: C_7  and  C_8
REMARK    3  A    between atoms: C_10  and  C_11
REMARK    4  A    between atoms: C_14  and  O_15
REMARK    5  A    between atoms: O_15  and  C_16
REMARK                            x       y       z     vdW  Elec       q    Type
REMARK                         _______ _______ _______ _____ _____    ______ ____
ROOT
ATOM      1  C   UNL     1       4.017   5.028  19.436  0.00  0.00    +0.000 A 
ATOM      2  N   UNL     1       3.762   6.238  19.022  0.00  0.00    +0.000 NA
ATOM      3  C   UNL     1       2.593   6.544  19.665  0.00  0.00    +0.000 A 
ATOM      4  N   UNL     1       2.141   5.556  20.460  0.00  0.00    +0.000 NA
ATOM      5  O   UNL     1       3.091   4.545  20.308  0.00  0.00    +0.000 OA
ENDROOT
BRANCH   1  12
ATOM      6  C   UNL     1       5.999   4.055  13.962  0.00  0.00    +0.000 C 
ATOM      7  C   UNL     1       6.542   4.868  15.110  0.00  0.00    +0.000 C 
ATOM      8  O   UNL     1       7.561   5.541  14.954  0.00  0.00    +0.000 OA
ATOM      9  N   UNL     1       5.846   4.825  16.308  0.00  0.00    +0.000 N 
ATOM     10  C   UNL     1       6.251   5.725  17.385  0.00  0.00    +0.000 C 
ATOM     11  C   UNL     1       6.393   4.968  18.705  0.00  0.00    +0.000 C 
ATOM     12  C   UNL     1       5.145   4.140  19.041  0.00  0.00    +0.000 C 
ATOM     13  C   UNL     1       4.739   3.262  17.847  0.00  0.00    +0.000 C 
ATOM     14  C   UNL     1       4.623   4.061  16.546  0.00  0.00    +0.000 C 
ENDBRANCH   1  12
BRANCH   3  15
ATOM     15  C   UNL     1       1.915   7.807  19.437  0.00  0.00    +0.000 A 
ATOM     16  C   UNL     1       1.977   8.428  18.177  0.00  0.00    +0.000 A 
ATOM     17  C   UNL     1       1.264   9.605  17.933  0.00  0.00    +0.000 A 
ATOM     18  C   UNL     1       0.499  10.177  18.947  0.00  0.00    +0.000 A 
ATOM     19  C   UNL     1       0.503   9.606  20.224  0.00  0.00    +0.000 A 
ATOM     20  C   UNL     1       1.179   8.410  20.459  0.00  0.00    +0.000 A 
BRANCH  18  21
ATOM     21  O   UNL     1      -0.197  11.316  18.616  0.00  0.00    +0.000 OA
BRANCH  21  22
ATOM     22  C   UNL     1      -1.557  11.249  18.409  0.00  0.00    +0.000 A 
ATOM     23  C   UNL     1      -1.983  10.326  17.450  0.00  0.00    +0.000 A 
ATOM     24  C   UNL     1      -3.343  10.202  17.156  0.00  0.00    +0.000 A 
ATOM     25  C   UNL     1      -4.262  11.006  17.821  0.00  0.00    +0.000 A 
ATOM     26  F   UNL     1      -5.564  10.906  17.520  0.00  0.00    +0.000 F 
ATOM     27  C   UNL     1      -3.856  11.905  18.798  0.00  0.00    +0.000 A 
ATOM     28  C   UNL     1      -2.503  12.003  19.116  0.00  0.00    +0.000 A 
ENDBRANCH  21  22
ENDBRANCH  18  21
ENDBRANCH   3  15
TORSDOF 4
ENDMDL
MODEL 2
REMARK VINA RESULT:      -9.1      0.426      1.003
REMARK  Name = 
REMARK  5 active torsions:
REMARK  status: ('A' for Active; 'I' for Inactive)
REMARK    1  A    between atoms: C_1  and  C_2
REMARK    2  A    between atoms: C_7  and  C_8
REMARK    3  A    between atoms: C_10  and  C_11
REMARK    4  A    between atoms: C_14  and  O_15
REMARK    5  A    between atoms: O_15  and  C_16
REMARK                            x       y       z     vdW  Elec       q    Type
REMARK                         _______ _______ _______ _____ _____    ______ ____
ROOT
ATOM      1  C   UNL     1       3.863   5.039  19.464  0.00  0.00    +0.000 A 
ATOM      2  N   UNL     1       3.685   6.274  19.086  0.00  0.00    +0.000 NA
ATOM      3  C   UNL     1       2.500   6.612  19.681  0.00  0.00    +0.000 A 
ATOM      4  N   UNL     1       1.964   5.619  20.414  0.00  0.00    +0.000 NA
ATOM      5  O   UNL     1       2.873   4.569  20.270  0.00  0.00    +0.000 OA
ENDROOT
BRANCH   1  12
ATOM      6  C   UNL     1       5.987   4.073  14.042  0.00  0.00    +0.000 C 
ATOM      7  C   UNL     1       6.523   4.846  15.221  0.00  0.00    +0.000 C 
ATOM      8  O   UNL     1       7.572   5.481  15.110  0.00  0.00    +0.000 OA
ATOM      9  N   UNL     1       5.786   4.812  16.395  0.00  0.00    +0.000 N 
ATOM     10  C   UNL     1       6.189   5.679  17.500  0.00  0.00    +0.000 C 
ATOM     11  C   UNL     1       6.258   4.896  18.811  0.00  0.00    +0.000 C 
ATOM     12  C   UNL     1       4.968   4.113  19.091  0.00  0.00    +0.000 C 
ATOM     13  C   UNL     1       4.568   3.271  17.871  0.00  0.00    +0.000 C 
ATOM     14  C   UNL     1       4.527   4.093  16.580  0.00  0.00    +0.000 C 
ENDBRANCH   1  12
BRANCH   3  15
ATOM     15  C   UNL     1       1.893   7.913  19.469  0.00  0.00    +0.000 A 
ATOM     16  C   UNL     1       1.972   8.536  18.211  0.00  0.00    +0.000 A 
ATOM     17  C   UNL     1       1.325   9.753  17.982  0.00  0.00    +0.000 A 
ATOM     18  C   UNL     1       0.609  10.363  19.011  0.00  0.00    +0.000 A 
ATOM     19  C   UNL     1       0.599   9.786  20.285  0.00  0.00    +0.000 A 
ATOM     20  C   UNL     1       1.208   8.552  20.505  0.00  0.00    +0.000 A 
BRANCH  18  21
ATOM     21  O   UNL     1      -0.024  11.542  18.695  0.00  0.00    +0.000 OA
BRANCH  21  22
ATOM     22  C   UNL     1      -1.395  11.568  18.572  0.00  0.00    +0.000 A 
ATOM     23  C   UNL     1      -2.085  12.264  19.569  0.00  0.00    +0.000 A 
ATOM     24  C   UNL     1      -3.480  12.327  19.540  0.00  0.00    +0.000 A 
ATOM     25  C   UNL     1      -4.172  11.689  18.517  0.00  0.00    +0.000 A 
ATOM     26  F   UNL     1      -5.511  11.727  18.504  0.00  0.00    +0.000 F 
ATOM     27  C   UNL     1      -3.499  11.020  17.503  0.00  0.00    +0.000 A 
ATOM     28  C   UNL     1      -2.106  10.988  17.512  0.00  0.00    +0.000 A 
ENDBRANCH  21  22
ENDBRANCH  18  21
ENDBRANCH   3  15
TORSDOF 4
ENDMDL
MODEL 3
REMARK VINA RESULT:      -9.0      0.622      1.176
REMARK  Name = 
REMARK  5 active torsions:
REMARK  status: ('A' for Active; 'I' for Inactive)
REMARK    1  A    between atoms: C_1  and  C_2
REMARK    2  A    between atoms: C_7  and  C_8
REMARK    3  A    between atoms: C_10  and  C_11
REMARK    4  A    between atoms: C_14  and  O_15
REMARK    5  A    between atoms: O_15  and  C_16
REMARK                            x       y       z     vdW  Elec       q    Type
REMARK                         _______ _______ _______ _____ _____    ______ ____
ROOT
ATOM      1  C   UNL     1       3.927   5.069  19.472  0.00  0.00    +0.000 A 
ATOM      2  N   UNL     1       3.703   6.287  19.065  0.00  0.00    +0.000 NA
ATOM      3  C   UNL     1       2.521   6.606  19.677  0.00  0.00    +0.000 A 
ATOM      4  N   UNL     1       2.032   5.617  20.448  0.00  0.00    +0.000 NA
ATOM      5  O   UNL     1       2.969   4.592  20.312  0.00  0.00    +0.000 OA
ENDROOT
BRANCH   1  12
ATOM      6  C   UNL     1       5.983   4.046  14.035  0.00  0.00    +0.000 C 
ATOM      7  C   UNL     1       6.517   4.859  15.186  0.00  0.00    +0.000 C 
ATOM      8  O   UNL     1       7.545   5.521  15.043  0.00  0.00    +0.000 OA
ATOM      9  N   UNL     1       5.802   4.830  16.374  0.00  0.00    +0.000 N 
ATOM     10  C   UNL     1       6.199   5.732  17.453  0.00  0.00    +0.000 C 
ATOM     11  C   UNL     1       6.313   4.980  18.778  0.00  0.00    +0.000 C 
ATOM     12  C   UNL     1       5.052   4.167  19.099  0.00  0.00    +0.000 C 
ATOM     13  C   UNL     1       4.655   3.287  17.904  0.00  0.00    +0.000 C 
ATOM     14  C   UNL     1       4.567   4.080  16.597  0.00  0.00    +0.000 C 
ENDBRANCH   1  12
BRANCH   3  15
ATOM     15  C   UNL     1       1.870   7.881  19.444  0.00  0.00    +0.000 A 
ATOM     16  C   UNL     1       1.183   8.528  20.487  0.00  0.00    +0.000 A 
ATOM     17  C   UNL     1       0.619   9.791  20.287  0.00  0.00    +0.000 A 
ATOM     18  C   UNL     1       0.724  10.408  19.042  0.00  0.00    +0.000 A 
ATOM     19  C   UNL     1       1.335   9.731  17.981  0.00  0.00    +0.000 A 
ATOM     20  C   UNL     1       1.934   8.491  18.189  0.00  0.00    +0.000 A 
BRANCH  18  21
ATOM     21  O   UNL     1       0.170  11.662  18.937  0.00  0.00    +0.000 OA
BRANCH  21  22
ATOM     22  C   UNL     1      -1.196  11.815  19.029  0.00  0.00    +0.000 A 
ATOM     23  C   UNL     1      -1.946  11.238  18.000  0.00  0.00    +0.000 A 
ATOM     24  C   UNL     1      -3.337  11.360  17.998  0.00  0.00    +0.000 A 
ATOM     25  C   UNL     1      -3.964  12.061  19.021  0.00  0.00    +0.000 A 
ATOM     26  F   UNL     1      -5.297  12.200  19.004  0.00  0.00    +0.000 F 
ATOM     27  C   UNL     1      -3.235  12.613  20.065  0.00  0.00    +0.000 A 
ATOM     28  C   UNL     1      -1.850  12.461  20.087  0.00  0.00    +0.000 A 
ENDBRANCH  21  22
ENDBRANCH  18  21
ENDBRANCH   3  15
TORSDOF 4
ENDMDL
MODEL 4
REMARK VINA RESULT:      -8.8      4.576     10.179
REMARK  Name = 
REMARK  5 active torsions:
REMARK  status: ('A' for Active; 'I' for Inactive)
REMARK    1  A    between atoms: C_1  and  C_2
REMARK    2  A    between atoms: C_7  and  C_8
REMARK    3  A    between atoms: C_10  and  C_11
REMARK    4  A    between atoms: C_14  and  O_15
REMARK    5  A    between atoms: O_15  and  C_16
REMARK                            x       y       z     vdW  Elec       q    Type
REMARK                         _______ _______ _______ _____ _____    ______ ____
ROOT
ATOM      1  C   UNL     1      -1.263  12.981  20.720  0.00  0.00    +0.000 A 
ATOM      2  N   UNL     1      -0.498  11.981  21.057  0.00  0.00    +0.000 NA
ATOM      3  C   UNL     1      -0.335  11.305  19.877  0.00  0.00    +0.000 A 
ATOM      4  N   UNL     1      -0.974  11.875  18.838  0.00  0.00    +0.000 NA
ATOM      5  O   UNL     1      -1.593  12.993  19.400  0.00  0.00    +0.000 OA
ENDROOT
BRANCH   1  12
ATOM      6  C   UNL     1      -6.261  12.710  23.849  0.00  0.00    +0.000 C 
ATOM      7  C   UNL     1      -4.808  12.621  24.244  0.00  0.00    +0.000 C 
ATOM      8  O   UNL     1      -4.506  12.391  25.415  0.00  0.00    +0.000 OA
ATOM      9  N   UNL     1      -3.863  12.796  23.245  0.00  0.00    +0.000 N 
ATOM     10  C   UNL     1      -2.457  12.555  23.561  0.00  0.00    +0.000 C 
ATOM     11  C   UNL     1      -1.582  13.711  23.076  0.00  0.00    +0.000 C 
ATOM     12  C   UNL     1      -1.825  14.045  21.598  0.00  0.00    +0.000 C 
ATOM     13  C   UNL     1      -3.325  14.227  21.321  0.00  0.00    +0.000 C 
ATOM     14  C   UNL     1      -4.161  13.053  21.837  0.00  0.00    +0.000 C 
ENDBRANCH   1  12
BRANCH   3  15
ATOM     15  C   UNL     1       0.419  10.068  19.814  0.00  0.00    +0.000 A 
ATOM     16  C   UNL     1       1.049   9.681  18.618  0.00  0.00    +0.000 A 
ATOM     17  C   UNL     1       1.838   8.528  18.574  0.00  0.00    +0.000 A 
ATOM     18  C   UNL     1       1.990   7.747  19.718  0.00  0.00    +0.000 A 
ATOM     19  C   UNL     1       1.298   8.085  20.885  0.00  0.00    +0.000 A 
ATOM     20  C   UNL     1       0.545   9.256  20.944  0.00  0.00    +0.000 A 
BRANCH  18  21
ATOM     21  O   UNL     1       2.808   6.648  19.599  0.00  0.00    +0.000 OA
BRANCH  21  22
ATOM     22  C   UNL     1       2.253   5.400  19.424  0.00  0.00    +0.000 A 
ATOM     23  C   UNL     1       2.257   4.908  18.115  0.00  0.00    +0.000 A 
ATOM     24  C   UNL     1       1.695   3.660  17.837  0.00  0.00    +0.000 A 
ATOM     25  C   UNL     1       1.131   2.918  18.869  0.00  0.00    +0.000 A 
ATOM     26  F   UNL     1       0.569   1.733  18.597  0.00  0.00    +0.000 F 
ATOM     27  C   UNL     1       1.147   3.381  20.178  0.00  0.00    +0.000 A 
ATOM     28  C   UNL     1       1.739   4.610  20.462  0.00  0.00    +0.000 A 
ENDBRANCH  21  22
ENDBRANCH  18  21
ENDBRANCH   3  15
TORSDOF 4
ENDMDL
MODEL 5
REMARK VINA RESULT:      -8.7      4.458     10.124
REMARK  Name = 
REMARK  5 active torsions:
REMARK  status: ('A' for Active; 'I' for Inactive)
REMARK    1  A    between atoms: C_1  and  C_2
REMARK    2  A    between atoms: C_7  and  C_8
REMARK    3  A    between atoms: C_10  and  C_11
REMARK    4  A    between atoms: C_14  and  O_15
REMARK    5  A    between atoms: O_15  and  C_16
REMARK                            x       y       z     vdW  Elec       q    Type
REMARK                         _______ _______ _______ _____ _____    ______ ____
ROOT
ATOM      1  C   UNL     1      -0.679  11.932  22.010  0.00  0.00    +0.000 A 
ATOM      2  N   UNL     1      -0.275  11.352  20.914  0.00  0.00    +0.000 NA
ATOM      3  C   UNL     1       0.313  10.204  21.372  0.00  0.00    +0.000 A 
ATOM      4  N   UNL     1       0.267  10.072  22.711  0.00  0.00    +0.000 NA
ATOM      5  O   UNL     1      -0.396  11.225  23.136  0.00  0.00    +0.000 OA
ENDROOT
BRANCH   1  12
ATOM      6  C   UNL     1      -6.407  13.082  21.168  0.00  0.00    +0.000 C 
ATOM      7  C   UNL     1      -5.571  12.946  22.415  0.00  0.00    +0.000 C 
ATOM      8  O   UNL     1      -6.107  13.014  23.522  0.00  0.00    +0.000 OA
ATOM      9  N   UNL     1      -4.210  12.735  22.251  0.00  0.00    +0.000 N 
ATOM     10  C   UNL     1      -3.401  12.437  23.431  0.00  0.00    +0.000 C 
ATOM     11  C   UNL     1      -2.148  13.311  23.468  0.00  0.00    +0.000 C 
ATOM     12  C   UNL     1      -1.355  13.251  22.156  0.00  0.00    +0.000 C 
ATOM     13  C   UNL     1      -2.274  13.514  20.953  0.00  0.00    +0.000 C 
ATOM     14  C   UNL     1      -3.522  12.627  20.966  0.00  0.00    +0.000 C 
ENDBRANCH   1  12
BRANCH   3  15
ATOM     15  C   UNL     1       0.959   9.274  20.465  0.00  0.00    +0.000 A 
ATOM     16  C   UNL     1       1.109   9.598  19.105  0.00  0.00    +0.000 A 
ATOM     17  C   UNL     1       1.797   8.737  18.244  0.00  0.00    +0.000 A 
ATOM     18  C   UNL     1       2.324   7.543  18.731  0.00  0.00    +0.000 A 
ATOM     19  C   UNL     1       2.104   7.181  20.064  0.00  0.00    +0.000 A 
ATOM     20  C   UNL     1       1.455   8.055  20.934  0.00  0.00    +0.000 A 
BRANCH  18  21
ATOM     21  O   UNL     1       3.013   6.769  17.828  0.00  0.00    +0.000 OA
BRANCH  21  22
ATOM     22  C   UNL     1       3.095   5.408  18.018  0.00  0.00    +0.000 A 
ATOM     23  C   UNL     1       1.911   4.691  17.818  0.00  0.00    +0.000 A 
ATOM     24  C   UNL     1       1.891   3.308  18.009  0.00  0.00    +0.000 A 
ATOM     25  C   UNL     1       3.054   2.655  18.402  0.00  0.00    +0.000 A 
ATOM     26  F   UNL     1       3.029   1.332  18.610  0.00  0.00    +0.000 F 
ATOM     27  C   UNL     1       4.244   3.349  18.575  0.00  0.00    +0.000 A 
ATOM     28  C   UNL     1       4.273   4.724  18.349  0.00  0.00    +0.000 A 
ENDBRANCH  21  22
ENDBRANCH  18  21
ENDBRANCH   3  15
TORSDOF 4
ENDMDL
MODEL 6
REMARK VINA RESULT:      -8.7      4.570     10.298
REMARK  Name = 
REMARK  5 active torsions:
REMARK  status: ('A' for Active; 'I' for Inactive)
REMARK    1  A    between atoms: C_1  and  C_2
REMARK    2  A    between atoms: C_7  and  C_8
REMARK    3  A    between atoms: C_10  and  C_11
REMARK    4  A    between atoms: C_14  and  O_15
REMARK    5  A    between atoms: O_15  and  C_16
REMARK                            x       y       z     vdW  Elec       q    Type
REMARK                         _______ _______ _______ _____ _____    ______ ____
ROOT
ATOM      1  C   UNL     1      -1.798  12.811  20.430  0.00  0.00    +0.000 A 
ATOM      2  N   UNL     1      -0.795  12.036  20.736  0.00  0.00    +0.000 NA
ATOM      3  C   UNL     1      -0.747  11.163  19.683  0.00  0.00    +0.000 A 
ATOM      4  N   UNL     1      -1.687  11.396  18.748  0.00  0.00    +0.000 NA
ATOM      5  O   UNL     1      -2.388  12.496  19.246  0.00  0.00    +0.000 OA
ENDROOT
BRANCH   1  12
ATOM      6  C   UNL     1      -6.457  12.573  24.046  0.00  0.00    +0.000 C 
ATOM      7  C   UNL     1      -4.973  12.642  24.304  0.00  0.00    +0.000 C 
ATOM      8  O   UNL     1      -4.550  12.585  25.459  0.00  0.00    +0.000 OA
ATOM      9  N   UNL     1      -4.139  12.758  23.203  0.00  0.00    +0.000 N 
ATOM     10  C   UNL     1      -2.694  12.663  23.406  0.00  0.00    +0.000 C 
ATOM     11  C   UNL     1      -1.968  13.809  22.702  0.00  0.00    +0.000 C 
ATOM     12  C   UNL     1      -2.368  13.934  21.226  0.00  0.00    +0.000 C 
ATOM     13  C   UNL     1      -3.897  13.968  21.078  0.00  0.00    +0.000 C 
ATOM     14  C   UNL     1      -4.581  12.811  21.811  0.00  0.00    +0.000 C 
ENDBRANCH   1  12
BRANCH   3  15
ATOM     15  C   UNL     1       0.210  10.073  19.649  0.00  0.00    +0.000 A 
ATOM     16  C   UNL     1       0.450   9.304  20.802  0.00  0.00    +0.000 A 
ATOM     17  C   UNL     1       1.316   8.207  20.753  0.00  0.00    +0.000 A 
ATOM     18  C   UNL     1       1.958   7.882  19.560  0.00  0.00    +0.000 A 
ATOM     19  C   UNL     1       1.784   8.695  18.435  0.00  0.00    +0.000 A 
ATOM     20  C   UNL     1       0.890   9.764  18.469  0.00  0.00    +0.000 A 
BRANCH  18  21
ATOM     21  O   UNL     1       2.767   6.771  19.588  0.00  0.00    +0.000 OA
BRANCH  21  22
ATOM     22  C   UNL     1       2.246   5.538  19.262  0.00  0.00    +0.000 A 
ATOM     23  C   UNL     1       1.644   4.834  20.310  0.00  0.00    +0.000 A 
ATOM     24  C   UNL     1       1.106   3.566  20.079  0.00  0.00    +0.000 A 
ATOM     25  C   UNL     1       1.179   3.013  18.806  0.00  0.00    +0.000 A 
ATOM     26  F   UNL     1       0.687   1.785  18.592  0.00  0.00    +0.000 F 
ATOM     27  C   UNL     1       1.746   3.713  17.750  0.00  0.00    +0.000 A 
ATOM     28  C   UNL     1       2.251   4.993  17.971  0.00  0.00    +0.000 A 
ENDBRANCH  21  22
ENDBRANCH  18  21
ENDBRANCH   3  15
TORSDOF 4
ENDMDL
MODEL 7
REMARK VINA RESULT:      -8.6      2.946      3.775
REMARK  Name = 
REMARK  5 active torsions:
REMARK  status: ('A' for Active; 'I' for Inactive)
REMARK    1  A    between atoms: C_1  and  C_2
REMARK    2  A    between atoms: C_7  and  C_8
REMARK    3  A    between atoms: C_10  and  C_11
REMARK    4  A    between atoms: C_14  and  O_15
REMARK    5  A    between atoms: O_15  and  C_16
REMARK                            x       y       z     vdW  Elec       q    Type
REMARK                         _______ _______ _______ _____ _____    ______ ____
ROOT
ATOM      1  C   UNL     1       3.779   4.872  19.404  0.00  0.00    +0.000 A 
ATOM      2  N   UNL     1       3.671   6.130  19.082  0.00  0.00    +0.000 NA
ATOM      3  C   UNL     1       2.484   6.496  19.658  0.00  0.00    +0.000 A 
ATOM      4  N   UNL     1       1.879   5.495  20.325  0.00  0.00    +0.000 NA
ATOM      5  O   UNL     1       2.744   4.412  20.157  0.00  0.00    +0.000 OA
ENDROOT
BRANCH   1  12
ATOM      6  C   UNL     1       6.007   4.043  14.002  0.00  0.00    +0.000 C 
ATOM      7  C   UNL     1       6.544   4.739  15.226  0.00  0.00    +0.000 C 
ATOM      8  O   UNL     1       7.623   5.330  15.170  0.00  0.00    +0.000 OA
ATOM      9  N   UNL     1       5.774   4.689  16.378  0.00  0.00    +0.000 N 
ATOM     10  C   UNL     1       6.185   5.489  17.530  0.00  0.00    +0.000 C 
ATOM     11  C   UNL     1       6.183   4.648  18.807  0.00  0.00    +0.000 C 
ATOM     12  C   UNL     1       4.852   3.914  19.019  0.00  0.00    +0.000 C 
ATOM     13  C   UNL     1       4.449   3.143  17.753  0.00  0.00    +0.000 C 
ATOM     14  C   UNL     1       4.480   4.021  16.499  0.00  0.00    +0.000 C 
ENDBRANCH   1  12
BRANCH   3  15
ATOM     15  C   UNL     1       1.944   7.832  19.492  0.00  0.00    +0.000 A 
ATOM     16  C   UNL     1       1.334   8.490  20.574  0.00  0.00    +0.000 A 
ATOM     17  C   UNL     1       0.880   9.806  20.438  0.00  0.00    +0.000 A 
ATOM     18  C   UNL     1       1.019  10.465  19.218  0.00  0.00    +0.000 A 
ATOM     19  C   UNL     1       1.551   9.784  18.118  0.00  0.00    +0.000 A 
ATOM     20  C   UNL     1       2.041   8.488  18.262  0.00  0.00    +0.000 A 
BRANCH  18  21
ATOM     21  O   UNL     1       0.577  11.767  19.177  0.00  0.00    +0.000 OA
BRANCH  21  22
ATOM     22  C   UNL     1       1.473  12.798  19.349  0.00  0.00    +0.000 A 
ATOM     23  C   UNL     1       2.026  13.327  18.178  0.00  0.00    +0.000 A 
ATOM     24  C   UNL     1       2.961  14.361  18.254  0.00  0.00    +0.000 A 
ATOM     25  C   UNL     1       3.338  14.853  19.499  0.00  0.00    +0.000 A 
ATOM     26  F   UNL     1       4.255  15.827  19.572  0.00  0.00    +0.000 F 
ATOM     27  C   UNL     1       2.775  14.358  20.667  0.00  0.00    +0.000 A 
ATOM     28  C   UNL     1       1.816  13.350  20.590  0.00  0.00    +0.000 A 
ENDBRANCH  21  22
ENDBRANCH  18  21
ENDBRANCH   3  15
TORSDOF 4
ENDMDL
MODEL 8
REMARK VINA RESULT:      -8.6      0.763      1.500
REMARK  Name = 
REMARK  5 active torsions:
REMARK  status: ('A' for Active; 'I' for Inactive)
REMARK    1  A    between atoms: C_1  and  C_2
REMARK    2  A    between atoms: C_7  and  C_8
REMARK    3  A    between atoms: C_10  and  C_11
REMARK    4  A    between atoms: C_14  and  O_15
REMARK    5  A    between atoms: O_15  and  C_16
REMARK                            x       y       z     vdW  Elec       q    Type
REMARK                         _______ _______ _______ _____ _____    ______ ____
ROOT
ATOM      1  C   UNL     1       4.732   4.863  18.841  0.00  0.00    +0.000 A 
ATOM      2  N   UNL     1       4.312   6.021  18.414  0.00  0.00    +0.000 NA
ATOM      3  C   UNL     1       3.240   6.279  19.226  0.00  0.00    +0.000 A 
ATOM      4  N   UNL     1       3.008   5.313  20.134  0.00  0.00    +0.000 NA
ATOM      5  O   UNL     1       4.004   4.369  19.879  0.00  0.00    +0.000 OA
ENDROOT
BRANCH   1  12
ATOM      6  C   UNL     1       6.130   4.034  13.167  0.00  0.00    +0.000 C 
ATOM      7  C   UNL     1       6.756   4.867  14.256  0.00  0.00    +0.000 C 
ATOM      8  O   UNL     1       7.714   5.595  13.995  0.00  0.00    +0.000 OA
ATOM      9  N   UNL     1       6.203   4.779  15.525  0.00  0.00    +0.000 N 
ATOM     10  C   UNL     1       6.679   5.693  16.561  0.00  0.00    +0.000 C 
ATOM     11  C   UNL     1       7.010   4.935  17.847  0.00  0.00    +0.000 C 
ATOM     12  C   UNL     1       5.853   4.040  18.310  0.00  0.00    +0.000 C 
ATOM     13  C   UNL     1       5.361   3.149  17.159  0.00  0.00    +0.000 C 
ATOM     14  C   UNL     1       5.057   3.949  15.890  0.00  0.00    +0.000 C 
ENDBRANCH   1  12
BRANCH   3  15
ATOM     15  C   UNL     1       2.428   7.469  19.049  0.00  0.00    +0.000 A 
ATOM     16  C   UNL     1       1.630   7.946  20.104  0.00  0.00    +0.000 A 
ATOM     17  C   UNL     1       0.906   9.133  19.962  0.00  0.00    +0.000 A 
ATOM     18  C   UNL     1       0.962   9.842  18.763  0.00  0.00    +0.000 A 
ATOM     19  C   UNL     1       1.689   9.325  17.686  0.00  0.00    +0.000 A 
ATOM     20  C   UNL     1       2.445   8.165  17.838  0.00  0.00    +0.000 A 
BRANCH  18  21
ATOM     21  O   UNL     1       0.246  11.015  18.717  0.00  0.00    +0.000 OA
BRANCH  21  22
ATOM     22  C   UNL     1      -1.095  10.984  18.407  0.00  0.00    +0.000 A 
ATOM     23  C   UNL     1      -1.899  11.908  19.081  0.00  0.00    +0.000 A 
ATOM     24  C   UNL     1      -3.276  11.936  18.848  0.00  0.00    +0.000 A 
ATOM     25  C   UNL     1      -3.836  11.038  17.946  0.00  0.00    +0.000 A 
ATOM     26  F   UNL     1      -5.160  11.048  17.742  0.00  0.00    +0.000 F 
ATOM     27  C   UNL     1      -3.046  10.136  17.247  0.00  0.00    +0.000 A 
ATOM     28  C   UNL     1      -1.667  10.131  17.453  0.00  0.00    +0.000 A 
ENDBRANCH  21  22
ENDBRANCH  18  21
ENDBRANCH   3  15
TORSDOF 4
ENDMDL
MODEL 9
REMARK VINA RESULT:      -8.5      6.416      9.156
REMARK  Name = 
REMARK  5 active torsions:
REMARK  status: ('A' for Active; 'I' for Inactive)
REMARK    1  A    between atoms: C_1  and  C_2
REMARK    2  A    between atoms: C_7  and  C_8
REMARK    3  A    between atoms: C_10  and  C_11
REMARK    4  A    between atoms: C_14  and  O_15
REMARK    5  A    between atoms: O_15  and  C_16
REMARK                            x       y       z     vdW  Elec       q    Type
REMARK                         _______ _______ _______ _____ _____    ______ ____
ROOT
ATOM      1  C   UNL     1       9.452  10.567  19.026  0.00  0.00    +0.000 A 
ATOM      2  N   UNL     1       9.164   9.301  19.145  0.00  0.00    +0.000 NA
ATOM      3  C   UNL     1       8.256   9.096  18.142  0.00  0.00    +0.000 A 
ATOM      4  N   UNL     1       7.996  10.200  17.417  0.00  0.00    +0.000 NA
ATOM      5  O   UNL     1       8.794  11.182  18.007  0.00  0.00    +0.000 OA
ENDROOT
BRANCH   1  12
ATOM      6  C   UNL     1      12.329  15.468  17.430  0.00  0.00    +0.000 C 
ATOM      7  C   UNL     1      11.110  15.239  18.286  0.00  0.00    +0.000 C 
ATOM      8  O   UNL     1      10.490  16.202  18.738  0.00  0.00    +0.000 OA
ATOM      9  N   UNL     1      10.731  13.926  18.519  0.00  0.00    +0.000 N 
ATOM     10  C   UNL     1       9.465  13.673  19.206  0.00  0.00    +0.000 C 
ATOM     11  C   UNL     1       9.651  12.668  20.342  0.00  0.00    +0.000 C 
ATOM     12  C   UNL     1      10.358  11.387  19.878  0.00  0.00    +0.000 C 
ATOM     13  C   UNL     1      11.647  11.724  19.114  0.00  0.00    +0.000 C 
ATOM     14  C   UNL     1      11.415  12.745  17.996  0.00  0.00    +0.000 C 
ENDBRANCH   1  12
BRANCH   3  15
ATOM     15  C   UNL     1       7.621   7.805  17.951  0.00  0.00    +0.000 A 
ATOM     16  C   UNL     1       8.063   6.683  18.674  0.00  0.00    +0.000 A 
ATOM     17  C   UNL     1       7.406   5.456  18.548  0.00  0.00    +0.000 A 
ATOM     18  C   UNL     1       6.315   5.338  17.690  0.00  0.00    +0.000 A 
ATOM     19  C   UNL     1       5.926   6.431  16.908  0.00  0.00    +0.000 A 
ATOM     20  C   UNL     1       6.552   7.666  17.062  0.00  0.00    +0.000 A 
BRANCH  18  21
ATOM     21  O   UNL     1       5.705   4.106  17.648  0.00  0.00    +0.000 OA
BRANCH  21  22
ATOM     22  C   UNL     1       4.451   3.947  18.195  0.00  0.00    +0.000 A 
ATOM     23  C   UNL     1       3.461   3.480  17.325  0.00  0.00    +0.000 A 
ATOM     24  C   UNL     1       2.153   3.308  17.785  0.00  0.00    +0.000 A 
ATOM     25  C   UNL     1       1.848   3.608  19.107  0.00  0.00    +0.000 A 
ATOM     26  F   UNL     1       0.588   3.468  19.541  0.00  0.00    +0.000 F 
ATOM     27  C   UNL     1       2.828   4.043  19.990  0.00  0.00    +0.000 A 
ATOM     28  C   UNL     1       4.140   4.180  19.541  0.00  0.00    +0.000 A 
ENDBRANCH  21  22
ENDBRANCH  18  21
ENDBRANCH   3  15
TORSDOF 4
ENDMDL
