MODEL 1
REMARK VINA RESULT:      -7.5      0.000      0.000
REMARK  Name = 
REMARK  12 active torsions:
REMARK  status: ('A' for Active; 'I' for Inactive)
REMARK    1  A    between atoms: C_1  and  C_2
REMARK    2  A    between atoms: C_2  and  C_3
REMARK    3  A    between atoms: C_3  and  C_4
REMARK    4  A    between atoms: C_4  and  C_6
REMARK    5  A    between atoms: C_10  and  O_11
REMARK    6  A    between atoms: O_11  and  C_12
REMARK    7  A    between atoms: C_17  and  N_18
REMARK    8  A    between atoms: N_18  and  C_19
REMARK    9  A    between atoms: C_22  and  O_23
REMARK   10  A    between atoms: O_23  and  C_24
REMARK   11  A    between atoms: C_24  and  C_25
REMARK   12  A    between atoms: C_28  and  C_29
REMARK                            x       y       z     vdW  Elec       q    Type
REMARK                         _______ _______ _______ _____ _____    ______ ____
ROOT
ATOM      1  C   UNL     1       3.121   4.189  17.631  0.00  0.00    +0.000 A 
ATOM      2  C   UNL     1       3.814   3.498  16.653  0.00  0.00    +0.000 A 
ATOM      3  N   UNL     1       5.040   3.833  16.208  0.00  0.00    +0.000 NA
ATOM      4  C   UNL     1       5.677   4.890  16.754  0.00  0.00    +0.000 A 
ATOM      5  C   UNL     1       6.953   5.257  16.285  0.00  0.00    +0.000 A 
ATOM      6  C   UNL     1       7.632   6.365  16.802  0.00  0.00    +0.000 A 
ATOM      7  C   UNL     1       7.102   7.054  17.876  0.00  0.00    +0.000 A 
ATOM      8  C   UNL     1       5.872   6.664  18.394  0.00  0.00    +0.000 A 
ATOM      9  C   UNL     1       5.087   5.644  17.800  0.00  0.00    +0.000 A 
ATOM     10  C   UNL     1       3.740   5.329  18.192  0.00  0.00    +0.000 A 
ENDROOT
BRANCH   1  11
ATOM     11  C   UNL     1       1.758   3.730  18.030  0.00  0.00    +0.000 C 
ATOM     12  O   UNL     1       0.780   4.185  17.439  0.00  0.00    +0.000 OA
BRANCH  11  13
ATOM     13  C   UNL     1       1.634   2.747  19.187  0.00  0.00    +0.000 C 
BRANCH  13  15
ATOM     14  C   UNL     1       1.677   2.804  21.703  0.00  0.00    +0.000 C 
ATOM     15  C   UNL     1       1.044   3.383  20.446  0.00  0.00    +0.000 C 
ENDBRANCH  13  15
ENDBRANCH  11  13
ENDBRANCH   1  11
BRANCH   5  16
ATOM     16  O   UNL     1       7.478   4.508  15.249  0.00  0.00    +0.000 OA
ATOM     17  C   UNL     1       7.292   5.063  13.950  0.00  0.00    +0.000 C 
ENDBRANCH   5  16
BRANCH  10  18
ATOM     18  N   UNL     1       3.037   6.101  19.187  0.00  0.00    +0.000 N 
ATOM     19  H   UNL     1       2.347   5.495  19.660  0.00  0.00    +0.000 HD
BRANCH  18  20
ATOM     20  C   UNL     1       2.408   7.374  19.032  0.00  0.00    +0.000 A 
ATOM     21  C   UNL     1       2.517   8.100  17.837  0.00  0.00    +0.000 A 
ATOM     22  C   UNL     1       1.914   9.348  17.696  0.00  0.00    +0.000 A 
ATOM     23  C   UNL     1       1.136   9.861  18.727  0.00  0.00    +0.000 A 
ATOM     24  C   UNL     1       0.986   9.155  19.916  0.00  0.00    +0.000 A 
ATOM     25  C   UNL     1       1.614   7.902  20.077  0.00  0.00    +0.000 A 
ATOM     26  C   UNL     1       1.441   7.162  21.378  0.00  0.00    +0.000 C 
BRANCH  23  27
ATOM     27  O   UNL     1       0.510  11.093  18.419  0.00  0.00    +0.000 OA
BRANCH  27  28
ATOM     28  C   UNL     1      -0.845  11.394  18.527  0.00  0.00    +0.000 C 
ATOM     29  C   UNL     1      -1.628  10.375  17.748  0.00  0.00    +0.000 C 
ATOM     30  O   UNL     1      -1.353  12.294  19.182  0.00  0.00    +0.000 OA
ENDBRANCH  27  28
ENDBRANCH  23  27
ENDBRANCH  18  20
ENDBRANCH  10  18
TORSDOF 8
ENDMDL
MODEL 2
REMARK VINA RESULT:      -7.3      0.873      1.139
REMARK  Name = 
REMARK  12 active torsions:
REMARK  status: ('A' for Active; 'I' for Inactive)
REMARK    1  A    between atoms: C_1  and  C_2
REMARK    2  A    between atoms: C_2  and  C_3
REMARK    3  A    between atoms: C_3  and  C_4
REMARK    4  A    between atoms: C_4  and  C_6
REMARK    5  A    between atoms: C_10  and  O_11
REMARK    6  A    between atoms: O_11  and  C_12
REMARK    7  A    between atoms: C_17  and  N_18
REMARK    8  A    between atoms: N_18  and  C_19
REMARK    9  A    between atoms: C_22  and  O_23
REMARK   10  A    between atoms: O_23  and  C_24
REMARK   11  A    between atoms: C_24  and  C_25
REMARK   12  A    between atoms: C_28  and  C_29
REMARK                            x       y       z     vdW  Elec       q    Type
REMARK                         _______ _______ _______ _____ _____    ______ ____
ROOT
ATOM      1  C   UNL     1       3.090   4.112  17.673  0.00  0.00    +0.000 A 
ATOM      2  C   UNL     1       3.804   3.417  16.714  0.00  0.00    +0.000 A 
ATOM      3  N   UNL     1       5.027   3.768  16.272  0.00  0.00    +0.000 NA
ATOM      4  C   UNL     1       5.637   4.849  16.801  0.00  0.00    +0.000 A 
ATOM      5  C   UNL     1       6.910   5.232  16.335  0.00  0.00    +0.000 A 
ATOM      6  C   UNL     1       7.562   6.365  16.835  0.00  0.00    +0.000 A 
ATOM      7  C   UNL     1       7.010   7.063  17.891  0.00  0.00    +0.000 A 
ATOM      8  C   UNL     1       5.784   6.659  18.407  0.00  0.00    +0.000 A 
ATOM      9  C   UNL     1       5.024   5.610  17.828  0.00  0.00    +0.000 A 
ATOM     10  C   UNL     1       3.681   5.276  18.216  0.00  0.00    +0.000 A 
ENDROOT
BRANCH   1  11
ATOM     11  C   UNL     1       1.733   3.634  18.071  0.00  0.00    +0.000 C 
ATOM     12  O   UNL     1       0.750   4.068  17.475  0.00  0.00    +0.000 OA
BRANCH  11  13
ATOM     13  C   UNL     1       1.622   2.656  19.234  0.00  0.00    +0.000 C 
BRANCH  13  15
ATOM     14  C   UNL     1       2.084   3.315  21.619  0.00  0.00    +0.000 C 
ATOM     15  C   UNL     1       1.054   3.299  20.499  0.00  0.00    +0.000 C 
ENDBRANCH  13  15
ENDBRANCH  11  13
ENDBRANCH   1  11
BRANCH   5  16
ATOM     16  O   UNL     1       7.458   4.475  15.318  0.00  0.00    +0.000 OA
ATOM     17  C   UNL     1       7.151   4.921  14.000  0.00  0.00    +0.000 C 
ENDBRANCH   5  16
BRANCH  10  18
ATOM     18  N   UNL     1       2.954   6.053  19.191  0.00  0.00    +0.000 N 
ATOM     19  H   UNL     1       2.208   5.468  19.600  0.00  0.00    +0.000 HD
BRANCH  18  20
ATOM     20  C   UNL     1       2.399   7.360  19.039  0.00  0.00    +0.000 A 
ATOM     21  C   UNL     1       2.567   8.090  17.853  0.00  0.00    +0.000 A 
ATOM     22  C   UNL     1       2.036   9.370  17.715  0.00  0.00    +0.000 A 
ATOM     23  C   UNL     1       1.271   9.916  18.739  0.00  0.00    +0.000 A 
ATOM     24  C   UNL     1       1.063   9.208  19.919  0.00  0.00    +0.000 A 
ATOM     25  C   UNL     1       1.619   7.921  20.076  0.00  0.00    +0.000 A 
ATOM     26  C   UNL     1       1.385   7.180  21.367  0.00  0.00    +0.000 C 
BRANCH  23  27
ATOM     27  O   UNL     1       0.719  11.183  18.434  0.00  0.00    +0.000 OA
BRANCH  27  28
ATOM     28  C   UNL     1       1.300  12.427  18.667  0.00  0.00    +0.000 C 
ATOM     29  C   UNL     1       0.609  13.071  19.836  0.00  0.00    +0.000 C 
ATOM     30  O   UNL     1       2.251  12.921  18.077  0.00  0.00    +0.000 OA
ENDBRANCH  27  28
ENDBRANCH  23  27
ENDBRANCH  18  20
ENDBRANCH  10  18
TORSDOF 8
ENDMDL
MODEL 3
REMARK VINA RESULT:      -7.1      1.229      1.414
REMARK  Name = 
REMARK  12 active torsions:
REMARK  status: ('A' for Active; 'I' for Inactive)
REMARK    1  A    between atoms: C_1  and  C_2
REMARK    2  A    between atoms: C_2  and  C_3
REMARK    3  A    between atoms: C_3  and  C_4
REMARK    4  A    between atoms: C_4  and  C_6
REMARK    5  A    between atoms: C_10  and  O_11
REMARK    6  A    between atoms: O_11  and  C_12
REMARK    7  A    between atoms: C_17  and  N_18
REMARK    8  A    between atoms: N_18  and  C_19
REMARK    9  A    between atoms: C_22  and  O_23
REMARK   10  A    between atoms: O_23  and  C_24
REMARK   11  A    between atoms: C_24  and  C_25
REMARK   12  A    between atoms: C_28  and  C_29
REMARK                            x       y       z     vdW  Elec       q    Type
REMARK                         _______ _______ _______ _____ _____    ______ ____
ROOT
ATOM      1  C   UNL     1       2.485   4.350  18.885  0.00  0.00    +0.000 A 
ATOM      2  C   UNL     1       2.845   3.336  18.015  0.00  0.00    +0.000 A 
ATOM      3  N   UNL     1       3.875   3.404  17.151  0.00  0.00    +0.000 NA
ATOM      4  C   UNL     1       4.649   4.510  17.128  0.00  0.00    +0.000 A 
ATOM      5  C   UNL     1       5.720   4.596  16.218  0.00  0.00    +0.000 A 
ATOM      6  C   UNL     1       6.525   5.738  16.141  0.00  0.00    +0.000 A 
ATOM      7  C   UNL     1       6.350   6.762  17.051  0.00  0.00    +0.000 A 
ATOM      8  C   UNL     1       5.338   6.665  17.999  0.00  0.00    +0.000 A 
ATOM      9  C   UNL     1       4.408   5.594  18.010  0.00  0.00    +0.000 A 
ATOM     10  C   UNL     1       3.246   5.541  18.855  0.00  0.00    +0.000 A 
ENDROOT
BRANCH   1  11
ATOM     11  C   UNL     1       1.310   4.164  19.786  0.00  0.00    +0.000 C 
ATOM     12  O   UNL     1       0.588   5.129  20.030  0.00  0.00    +0.000 OA
BRANCH  11  13
ATOM     13  C   UNL     1       1.079   2.791  20.402  0.00  0.00    +0.000 C 
BRANCH  13  15
ATOM     14  C   UNL     1       3.233   2.153  21.538  0.00  0.00    +0.000 C 
ATOM     15  C   UNL     1       1.796   2.612  21.740  0.00  0.00    +0.000 C 
ENDBRANCH  13  15
ENDBRANCH  11  13
ENDBRANCH   1  11
BRANCH   5  16
ATOM     16  O   UNL     1       5.902   3.527  15.363  0.00  0.00    +0.000 OA
ATOM     17  C   UNL     1       6.165   3.876  14.007  0.00  0.00    +0.000 C 
ENDBRANCH   5  16
BRANCH  10  18
ATOM     18  N   UNL     1       2.882   6.638  19.718  0.00  0.00    +0.000 N 
ATOM     19  H   UNL     1       2.468   6.262  20.587  0.00  0.00    +0.000 HD
BRANCH  18  20
ATOM     20  C   UNL     1       2.127   7.804  19.389  0.00  0.00    +0.000 A 
ATOM     21  C   UNL     1       2.021   8.255  18.065  0.00  0.00    +0.000 A 
ATOM     22  C   UNL     1       1.295   9.401  17.751  0.00  0.00    +0.000 A 
ATOM     23  C   UNL     1       0.607  10.080  18.750  0.00  0.00    +0.000 A 
ATOM     24  C   UNL     1       0.670   9.645  20.071  0.00  0.00    +0.000 A 
ATOM     25  C   UNL     1       1.424   8.499  20.401  0.00  0.00    +0.000 A 
ATOM     26  C   UNL     1       1.481   8.055  21.839  0.00  0.00    +0.000 C 
BRANCH  23  27
ATOM     27  O   UNL     1      -0.160  11.174  18.281  0.00  0.00    +0.000 OA
BRANCH  27  28
ATOM     28  C   UNL     1      -1.523  11.178  17.994  0.00  0.00    +0.000 C 
ATOM     29  C   UNL     1      -2.233  11.996  19.035  0.00  0.00    +0.000 C 
ATOM     30  O   UNL     1      -2.078  10.661  17.034  0.00  0.00    +0.000 OA
ENDBRANCH  27  28
ENDBRANCH  23  27
ENDBRANCH  18  20
ENDBRANCH  10  18
TORSDOF 8
ENDMDL
MODEL 4
REMARK VINA RESULT:      -7.1      3.399      9.014
REMARK  Name = 
REMARK  12 active torsions:
REMARK  status: ('A' for Active; 'I' for Inactive)
REMARK    1  A    between atoms: C_1  and  C_2
REMARK    2  A    between atoms: C_2  and  C_3
REMARK    3  A    between atoms: C_3  and  C_4
REMARK    4  A    between atoms: C_4  and  C_6
REMARK    5  A    between atoms: C_10  and  O_11
REMARK    6  A    between atoms: O_11  and  C_12
REMARK    7  A    between atoms: C_17  and  N_18
REMARK    8  A    between atoms: N_18  and  C_19
REMARK    9  A    between atoms: C_22  and  O_23
REMARK   10  A    between atoms: O_23  and  C_24
REMARK   11  A    between atoms: C_24  and  C_25
REMARK   12  A    between atoms: C_28  and  C_29
REMARK                            x       y       z     vdW  Elec       q    Type
REMARK                         _______ _______ _______ _____ _____    ______ ____
ROOT
ATOM      1  C   UNL     1      -1.317  12.325  20.498  0.00  0.00    +0.000 A 
ATOM      2  C   UNL     1      -2.642  12.715  20.417  0.00  0.00    +0.000 A 
ATOM      3  N   UNL     1      -3.481  12.356  19.426  0.00  0.00    +0.000 NA
ATOM      4  C   UNL     1      -3.040  11.538  18.448  0.00  0.00    +0.000 A 
ATOM      5  C   UNL     1      -3.906  11.169  17.400  0.00  0.00    +0.000 A 
ATOM      6  C   UNL     1      -3.478  10.349  16.351  0.00  0.00    +0.000 A 
ATOM      7  C   UNL     1      -2.217   9.786  16.392  0.00  0.00    +0.000 A 
ATOM      8  C   UNL     1      -1.371  10.088  17.453  0.00  0.00    +0.000 A 
ATOM      9  C   UNL     1      -1.716  11.033  18.454  0.00  0.00    +0.000 A 
ATOM     10  C   UNL     1      -0.810  11.504  19.466  0.00  0.00    +0.000 A 
ENDROOT
BRANCH   1  11
ATOM     11  C   UNL     1      -0.480  12.800  21.638  0.00  0.00    +0.000 C 
ATOM     12  O   UNL     1       0.707  13.053  21.440  0.00  0.00    +0.000 OA
BRANCH  11  13
ATOM     13  C   UNL     1      -1.124  12.911  23.014  0.00  0.00    +0.000 C 
BRANCH  13  15
ATOM     14  C   UNL     1      -3.396  12.205  23.835  0.00  0.00    +0.000 C 
ATOM     15  C   UNL     1      -2.038  11.730  23.340  0.00  0.00    +0.000 C 
ENDBRANCH  13  15
ENDBRANCH  11  13
ENDBRANCH   1  11
BRANCH   5  16
ATOM     16  O   UNL     1      -5.180  11.704  17.423  0.00  0.00    +0.000 OA
ATOM     17  C   UNL     1      -6.147  10.928  18.123  0.00  0.00    +0.000 C 
ENDBRANCH   5  16
BRANCH  10  18
ATOM     18  N   UNL     1       0.577  11.106  19.491  0.00  0.00    +0.000 N 
ATOM     19  H   UNL     1       1.102  11.667  18.801  0.00  0.00    +0.000 HD
BRANCH  18  20
ATOM     20  C   UNL     1       1.116   9.786  19.425  0.00  0.00    +0.000 A 
ATOM     21  C   UNL     1       1.764   9.321  18.270  0.00  0.00    +0.000 A 
ATOM     22  C   UNL     1       2.276   8.027  18.204  0.00  0.00    +0.000 A 
ATOM     23  C   UNL     1       2.206   7.198  19.318  0.00  0.00    +0.000 A 
ATOM     24  C   UNL     1       1.594   7.637  20.488  0.00  0.00    +0.000 A 
ATOM     25  C   UNL     1       1.050   8.938  20.554  0.00  0.00    +0.000 A 
ATOM     26  C   UNL     1       0.387   9.385  21.830  0.00  0.00    +0.000 C 
BRANCH  23  27
ATOM     27  O   UNL     1       2.842   5.945  19.144  0.00  0.00    +0.000 OA
BRANCH  27  28
ATOM     28  C   UNL     1       2.907   5.195  17.973  0.00  0.00    +0.000 C 
ATOM     29  C   UNL     1       1.607   4.465  17.794  0.00  0.00    +0.000 C 
ATOM     30  O   UNL     1       3.830   5.157  17.170  0.00  0.00    +0.000 OA
ENDBRANCH  27  28
ENDBRANCH  23  27
ENDBRANCH  18  20
ENDBRANCH  10  18
TORSDOF 8
ENDMDL
MODEL 5
REMARK VINA RESULT:      -7.0      1.047      1.664
REMARK  Name = 
REMARK  12 active torsions:
REMARK  status: ('A' for Active; 'I' for Inactive)
REMARK    1  A    between atoms: C_1  and  C_2
REMARK    2  A    between atoms: C_2  and  C_3
REMARK    3  A    between atoms: C_3  and  C_4
REMARK    4  A    between atoms: C_4  and  C_6
REMARK    5  A    between atoms: C_10  and  O_11
REMARK    6  A    between atoms: O_11  and  C_12
REMARK    7  A    between atoms: C_17  and  N_18
REMARK    8  A    between atoms: N_18  and  C_19
REMARK    9  A    between atoms: C_22  and  O_23
REMARK   10  A    between atoms: O_23  and  C_24
REMARK   11  A    between atoms: C_24  and  C_25
REMARK   12  A    between atoms: C_28  and  C_29
REMARK                            x       y       z     vdW  Elec       q    Type
REMARK                         _______ _______ _______ _____ _____    ______ ____
ROOT
ATOM      1  C   UNL     1       3.040   4.076  17.846  0.00  0.00    +0.000 A 
ATOM      2  C   UNL     1       3.704   3.531  16.761  0.00  0.00    +0.000 A 
ATOM      3  N   UNL     1       5.010   3.719  16.495  0.00  0.00    +0.000 NA
ATOM      4  C   UNL     1       5.759   4.459  17.340  0.00  0.00    +0.000 A 
ATOM      5  C   UNL     1       7.123   4.672  17.063  0.00  0.00    +0.000 A 
ATOM      6  C   UNL     1       7.925   5.459  17.896  0.00  0.00    +0.000 A 
ATOM      7  C   UNL     1       7.410   5.946  19.082  0.00  0.00    +0.000 A 
ATOM      8  C   UNL     1       6.082   5.689  19.404  0.00  0.00    +0.000 A 
ATOM      9  C   UNL     1       5.200   5.026  18.513  0.00  0.00    +0.000 A 
ATOM     10  C   UNL     1       3.784   4.894  18.727  0.00  0.00    +0.000 A 
ENDROOT
BRANCH   1  11
ATOM     11  C   UNL     1       1.583   3.810  18.027  0.00  0.00    +0.000 C 
ATOM     12  O   UNL     1       0.772   4.489  17.401  0.00  0.00    +0.000 OA
BRANCH  11  13
ATOM     13  C   UNL     1       1.161   2.732  19.018  0.00  0.00    +0.000 C 
BRANCH  13  15
ATOM     14  C   UNL     1       1.586   2.709  21.498  0.00  0.00    +0.000 C 
ATOM     15  C   UNL     1       0.748   3.302  20.375  0.00  0.00    +0.000 C 
ENDBRANCH  13  15
ENDBRANCH  11  13
ENDBRANCH   1  11
BRANCH   5  16
ATOM     16  O   UNL     1       7.618   4.121  15.897  0.00  0.00    +0.000 OA
ATOM     17  C   UNL     1       7.295   4.833  14.707  0.00  0.00    +0.000 C 
ENDBRANCH   5  16
BRANCH  10  18
ATOM     18  N   UNL     1       3.123   5.514  19.849  0.00  0.00    +0.000 N 
ATOM     19  H   UNL     1       2.541   4.809  20.331  0.00  0.00    +0.000 HD
BRANCH  18  20
ATOM     20  C   UNL     1       2.373   6.729  19.869  0.00  0.00    +0.000 A 
ATOM     21  C   UNL     1       1.557   7.065  20.960  0.00  0.00    +0.000 A 
ATOM     22  C   UNL     1       0.816   8.244  20.968  0.00  0.00    +0.000 A 
ATOM     23  C   UNL     1       0.930   9.140  19.912  0.00  0.00    +0.000 A 
ATOM     24  C   UNL     1       1.750   8.851  18.826  0.00  0.00    +0.000 A 
ATOM     25  C   UNL     1       2.485   7.646  18.798  0.00  0.00    +0.000 A 
ATOM     26  C   UNL     1       3.359   7.354  17.607  0.00  0.00    +0.000 C 
BRANCH  23  27
ATOM     27  O   UNL     1       0.193  10.336  20.088  0.00  0.00    +0.000 OA
BRANCH  27  28
ATOM     28  C   UNL     1      -0.964  10.714  19.411  0.00  0.00    +0.000 C 
ATOM     29  C   UNL     1      -1.388  12.069  19.900  0.00  0.00    +0.000 C 
ATOM     30  O   UNL     1      -1.535  10.097  18.522  0.00  0.00    +0.000 OA
ENDBRANCH  27  28
ENDBRANCH  23  27
ENDBRANCH  18  20
ENDBRANCH  10  18
TORSDOF 8
ENDMDL
MODEL 6
REMARK VINA RESULT:      -7.0      3.915      9.419
REMARK  Name = 
REMARK  12 active torsions:
REMARK  status: ('A' for Active; 'I' for Inactive)
REMARK    1  A    between atoms: C_1  and  C_2
REMARK    2  A    between atoms: C_2  and  C_3
REMARK    3  A    between atoms: C_3  and  C_4
REMARK    4  A    between atoms: C_4  and  C_6
REMARK    5  A    between atoms: C_10  and  O_11
REMARK    6  A    between atoms: O_11  and  C_12
REMARK    7  A    between atoms: C_17  and  N_18
REMARK    8  A    between atoms: N_18  and  C_19
REMARK    9  A    between atoms: C_22  and  O_23
REMARK   10  A    between atoms: O_23  and  C_24
REMARK   11  A    between atoms: C_24  and  C_25
REMARK   12  A    between atoms: C_28  and  C_29
REMARK                            x       y       z     vdW  Elec       q    Type
REMARK                         _______ _______ _______ _____ _____    ______ ____
ROOT
ATOM      1  C   UNL     1      -1.576  12.179  20.932  0.00  0.00    +0.000 A 
ATOM      2  C   UNL     1      -2.892  12.593  20.821  0.00  0.00    +0.000 A 
ATOM      3  N   UNL     1      -3.683  12.339  19.762  0.00  0.00    +0.000 NA
ATOM      4  C   UNL     1      -3.200  11.607  18.735  0.00  0.00    +0.000 A 
ATOM      5  C   UNL     1      -4.016  11.347  17.617  0.00  0.00    +0.000 A 
ATOM      6  C   UNL     1      -3.542  10.620  16.519  0.00  0.00    +0.000 A 
ATOM      7  C   UNL     1      -2.291  10.039  16.571  0.00  0.00    +0.000 A 
ATOM      8  C   UNL     1      -1.497  10.230  17.696  0.00  0.00    +0.000 A 
ATOM      9  C   UNL     1      -1.883  11.084  18.760  0.00  0.00    +0.000 A 
ATOM     10  C   UNL     1      -1.025  11.449  19.856  0.00  0.00    +0.000 A 
ENDROOT
BRANCH   1  11
ATOM     11  C   UNL     1      -0.793  12.537  22.152  0.00  0.00    +0.000 C 
ATOM     12  O   UNL     1      -0.283  11.638  22.817  0.00  0.00    +0.000 OA
BRANCH  11  13
ATOM     13  C   UNL     1      -0.696  14.006  22.545  0.00  0.00    +0.000 C 
BRANCH  13  15
ATOM     14  C   UNL     1      -0.869  15.581  24.500  0.00  0.00    +0.000 C 
ATOM     15  C   UNL     1      -1.422  14.320  23.852  0.00  0.00    +0.000 C 
ENDBRANCH  13  15
ENDBRANCH  11  13
ENDBRANCH   1  11
BRANCH   5  16
ATOM     16  O   UNL     1      -5.283  11.896  17.625  0.00  0.00    +0.000 OA
ATOM     17  C   UNL     1      -6.310  11.035  18.108  0.00  0.00    +0.000 C 
ENDBRANCH   5  16
BRANCH  10  18
ATOM     18  N   UNL     1       0.355  11.031  19.913  0.00  0.00    +0.000 N 
ATOM     19  H   UNL     1       0.881  11.499  19.158  0.00  0.00    +0.000 HD
BRANCH  18  20
ATOM     20  C   UNL     1       0.871   9.702  19.993  0.00  0.00    +0.000 A 
ATOM     21  C   UNL     1       0.550   8.859  21.068  0.00  0.00    +0.000 A 
ATOM     22  C   UNL     1       1.067   7.568  21.149  0.00  0.00    +0.000 A 
ATOM     23  C   UNL     1       1.863   7.076  20.121  0.00  0.00    +0.000 A 
ATOM     24  C   UNL     1       2.179   7.876  19.028  0.00  0.00    +0.000 A 
ATOM     25  C   UNL     1       1.680   9.194  18.950  0.00  0.00    +0.000 A 
ATOM     26  C   UNL     1       2.044  10.042  17.760  0.00  0.00    +0.000 C 
BRANCH  23  27
ATOM     27  O   UNL     1       2.247   5.724  20.287  0.00  0.00    +0.000 OA
BRANCH  27  28
ATOM     28  C   UNL     1       1.532   4.595  19.893  0.00  0.00    +0.000 C 
ATOM     29  C   UNL     1       1.807   4.333  18.440  0.00  0.00    +0.000 C 
ATOM     30  O   UNL     1       0.832   3.880  20.598  0.00  0.00    +0.000 OA
ENDBRANCH  27  28
ENDBRANCH  23  27
ENDBRANCH  18  20
ENDBRANCH  10  18
TORSDOF 8
ENDMDL
MODEL 7
REMARK VINA RESULT:      -6.7      3.572      9.345
REMARK  Name = 
REMARK  12 active torsions:
REMARK  status: ('A' for Active; 'I' for Inactive)
REMARK    1  A    between atoms: C_1  and  C_2
REMARK    2  A    between atoms: C_2  and  C_3
REMARK    3  A    between atoms: C_3  and  C_4
REMARK    4  A    between atoms: C_4  and  C_6
REMARK    5  A    between atoms: C_10  and  O_11
REMARK    6  A    between atoms: O_11  and  C_12
REMARK    7  A    between atoms: C_17  and  N_18
REMARK    8  A    between atoms: N_18  and  C_19
REMARK    9  A    between atoms: C_22  and  O_23
REMARK   10  A    between atoms: O_23  and  C_24
REMARK   11  A    between atoms: C_24  and  C_25
REMARK   12  A    between atoms: C_28  and  C_29
REMARK                            x       y       z     vdW  Elec       q    Type
REMARK                         _______ _______ _______ _____ _____    ______ ____
ROOT
ATOM      1  C   UNL     1      -1.428  12.473  20.773  0.00  0.00    +0.000 A 
ATOM      2  C   UNL     1      -2.766  12.824  20.722  0.00  0.00    +0.000 A 
ATOM      3  N   UNL     1      -3.610  12.462  19.738  0.00  0.00    +0.000 NA
ATOM      4  C   UNL     1      -3.163  11.678  18.735  0.00  0.00    +0.000 A 
ATOM      5  C   UNL     1      -4.036  11.305  17.694  0.00  0.00    +0.000 A 
ATOM      6  C   UNL     1      -3.601  10.521  16.620  0.00  0.00    +0.000 A 
ATOM      7  C   UNL     1      -2.324   9.996  16.628  0.00  0.00    +0.000 A 
ATOM      8  C   UNL     1      -1.469  10.300  17.681  0.00  0.00    +0.000 A 
ATOM      9  C   UNL     1      -1.824  11.213  18.707  0.00  0.00    +0.000 A 
ATOM     10  C   UNL     1      -0.914  11.690  19.714  0.00  0.00    +0.000 A 
ENDROOT
BRANCH   1  11
ATOM     11  C   UNL     1      -0.585  12.950  21.908  0.00  0.00    +0.000 C 
ATOM     12  O   UNL     1       0.574  13.293  21.685  0.00  0.00    +0.000 OA
BRANCH  11  13
ATOM     13  C   UNL     1      -1.187  12.948  23.308  0.00  0.00    +0.000 C 
BRANCH  13  15
ATOM     14  C   UNL     1      -2.850  14.657  24.112  0.00  0.00    +0.000 C 
ATOM     15  C   UNL     1      -1.378  14.355  23.874  0.00  0.00    +0.000 C 
ENDBRANCH  13  15
ENDBRANCH  11  13
ENDBRANCH   1  11
BRANCH   5  16
ATOM     16  O   UNL     1      -5.324  11.801  17.751  0.00  0.00    +0.000 OA
ATOM     17  C   UNL     1      -6.308  10.873  18.198  0.00  0.00    +0.000 C 
ENDBRANCH   5  16
BRANCH  10  18
ATOM     18  N   UNL     1       0.484  11.334  19.707  0.00  0.00    +0.000 N 
ATOM     19  H   UNL     1       1.012  12.051  19.185  0.00  0.00    +0.000 HD
BRANCH  18  20
ATOM     20  C   UNL     1       1.072  10.078  19.366  0.00  0.00    +0.000 A 
ATOM     21  C   UNL     1       1.656   9.865  18.109  0.00  0.00    +0.000 A 
ATOM     22  C   UNL     1       2.216   8.634  17.775  0.00  0.00    +0.000 A 
ATOM     23  C   UNL     1       2.258   7.615  18.719  0.00  0.00    +0.000 A 
ATOM     24  C   UNL     1       1.711   7.801  19.985  0.00  0.00    +0.000 A 
ATOM     25  C   UNL     1       1.119   9.037  20.322  0.00  0.00    +0.000 A 
ATOM     26  C   UNL     1       0.527   9.210  21.696  0.00  0.00    +0.000 C 
BRANCH  23  27
ATOM     27  O   UNL     1       2.932   6.449  18.280  0.00  0.00    +0.000 OA
BRANCH  27  28
ATOM     28  C   UNL     1       3.410   5.409  19.073  0.00  0.00    +0.000 C 
ATOM     29  C   UNL     1       2.394   4.302  19.080  0.00  0.00    +0.000 C 
ATOM     30  O   UNL     1       4.493   5.348  19.638  0.00  0.00    +0.000 OA
ENDBRANCH  27  28
ENDBRANCH  23  27
ENDBRANCH  18  20
ENDBRANCH  10  18
TORSDOF 8
ENDMDL
MODEL 8
REMARK VINA RESULT:      -6.7      1.851      7.004
REMARK  Name = 
REMARK  12 active torsions:
REMARK  status: ('A' for Active; 'I' for Inactive)
REMARK    1  A    between atoms: C_1  and  C_2
REMARK    2  A    between atoms: C_2  and  C_3
REMARK    3  A    between atoms: C_3  and  C_4
REMARK    4  A    between atoms: C_4  and  C_6
REMARK    5  A    between atoms: C_10  and  O_11
REMARK    6  A    between atoms: O_11  and  C_12
REMARK    7  A    between atoms: C_17  and  N_18
REMARK    8  A    between atoms: N_18  and  C_19
REMARK    9  A    between atoms: C_22  and  O_23
REMARK   10  A    between atoms: O_23  and  C_24
REMARK   11  A    between atoms: C_24  and  C_25
REMARK   12  A    between atoms: C_28  and  C_29
REMARK                            x       y       z     vdW  Elec       q    Type
REMARK                         _______ _______ _______ _____ _____    ______ ____
ROOT
ATOM      1  C   UNL     1       2.005   6.160  20.354  0.00  0.00    +0.000 A 
ATOM      2  C   UNL     1       1.743   6.959  21.454  0.00  0.00    +0.000 A 
ATOM      3  N   UNL     1       1.502   8.282  21.392  0.00  0.00    +0.000 NA
ATOM      4  C   UNL     1       1.476   8.896  20.191  0.00  0.00    +0.000 A 
ATOM      5  C   UNL     1       1.238  10.283  20.119  0.00  0.00    +0.000 A 
ATOM      6  C   UNL     1       1.235  10.961  18.895  0.00  0.00    +0.000 A 
ATOM      7  C   UNL     1       1.349  10.250  17.717  0.00  0.00    +0.000 A 
ATOM      8  C   UNL     1       1.519   8.871  17.767  0.00  0.00    +0.000 A 
ATOM      9  C   UNL     1       1.679   8.171  18.990  0.00  0.00    +0.000 A 
ATOM     10  C   UNL     1       2.030   6.780  19.084  0.00  0.00    +0.000 A 
ENDROOT
BRANCH   1  11
ATOM     11  C   UNL     1       2.275   4.705  20.550  0.00  0.00    +0.000 C 
ATOM     12  O   UNL     1       3.425   4.291  20.421  0.00  0.00    +0.000 OA
BRANCH  11  13
ATOM     13  C   UNL     1       1.100   3.785  20.858  0.00  0.00    +0.000 C 
BRANCH  13  15
ATOM     14  C   UNL     1       0.629   2.259  18.914  0.00  0.00    +0.000 C 
ATOM     15  C   UNL     1       1.279   2.380  20.284  0.00  0.00    +0.000 C 
ENDBRANCH  13  15
ENDBRANCH  11  13
ENDBRANCH   1  11
BRANCH   5  16
ATOM     16  O   UNL     1       1.069  10.952  21.315  0.00  0.00    +0.000 OA
ATOM     17  C   UNL     1      -0.222  11.521  21.511  0.00  0.00    +0.000 C 
ENDBRANCH   5  16
BRANCH  10  18
ATOM     18  N   UNL     1       2.338   5.991  17.916  0.00  0.00    +0.000 N 
ATOM     19  H   UNL     1       1.953   5.041  18.039  0.00  0.00    +0.000 HD
BRANCH  18  20
ATOM     20  C   UNL     1       3.600   5.829  17.269  0.00  0.00    +0.000 A 
ATOM     21  C   UNL     1       4.443   6.925  17.029  0.00  0.00    +0.000 A 
ATOM     22  C   UNL     1       5.667   6.765  16.385  0.00  0.00    +0.000 A 
ATOM     23  C   UNL     1       6.099   5.492  16.029  0.00  0.00    +0.000 A 
ATOM     24  C   UNL     1       5.301   4.380  16.276  0.00  0.00    +0.000 A 
ATOM     25  C   UNL     1       4.047   4.538  16.905  0.00  0.00    +0.000 A 
ATOM     26  C   UNL     1       3.199   3.318  17.153  0.00  0.00    +0.000 C 
BRANCH  23  27
ATOM     27  O   UNL     1       7.397   5.462  15.464  0.00  0.00    +0.000 OA
BRANCH  27  28
ATOM     28  C   UNL     1       7.721   5.289  14.120  0.00  0.00    +0.000 C 
ATOM     29  C   UNL     1       6.751   4.318  13.511  0.00  0.00    +0.000 C 
ATOM     30  O   UNL     1       8.605   5.858  13.494  0.00  0.00    +0.000 OA
ENDBRANCH  27  28
ENDBRANCH  23  27
ENDBRANCH  18  20
ENDBRANCH  10  18
TORSDOF 8
ENDMDL
MODEL 9
REMARK VINA RESULT:      -6.7      2.434      4.595
REMARK  Name = 
REMARK  12 active torsions:
REMARK  status: ('A' for Active; 'I' for Inactive)
REMARK    1  A    between atoms: C_1  and  C_2
REMARK    2  A    between atoms: C_2  and  C_3
REMARK    3  A    between atoms: C_3  and  C_4
REMARK    4  A    between atoms: C_4  and  C_6
REMARK    5  A    between atoms: C_10  and  O_11
REMARK    6  A    between atoms: O_11  and  C_12
REMARK    7  A    between atoms: C_17  and  N_18
REMARK    8  A    between atoms: N_18  and  C_19
REMARK    9  A    between atoms: C_22  and  O_23
REMARK   10  A    between atoms: O_23  and  C_24
REMARK   11  A    between atoms: C_24  and  C_25
REMARK   12  A    between atoms: C_28  and  C_29
REMARK                            x       y       z     vdW  Elec       q    Type
REMARK                         _______ _______ _______ _____ _____    ______ ____
ROOT
ATOM      1  C   UNL     1       1.346   7.405  20.483  0.00  0.00    +0.000 A 
ATOM      2  C   UNL     1       1.542   6.060  20.739  0.00  0.00    +0.000 A 
ATOM      3  N   UNL     1       2.314   5.247  19.992  0.00  0.00    +0.000 NA
ATOM      4  C   UNL     1       2.979   5.755  18.933  0.00  0.00    +0.000 A 
ATOM      5  C   UNL     1       3.777   4.910  18.138  0.00  0.00    +0.000 A 
ATOM      6  C   UNL     1       4.456   5.391  17.013  0.00  0.00    +0.000 A 
ATOM      7  C   UNL     1       4.447   6.743  16.733  0.00  0.00    +0.000 A 
ATOM      8  C   UNL     1       3.717   7.601  17.547  0.00  0.00    +0.000 A 
ATOM      9  C   UNL     1       2.896   7.131  18.604  0.00  0.00    +0.000 A 
ATOM     10  C   UNL     1       1.992   7.959  19.355  0.00  0.00    +0.000 A 
ENDROOT
BRANCH   1  11
ATOM     11  C   UNL     1       0.453   8.201  21.375  0.00  0.00    +0.000 C 
ATOM     12  O   UNL     1      -0.765   8.078  21.261  0.00  0.00    +0.000 OA
BRANCH  11  13
ATOM     13  C   UNL     1       1.091   9.169  22.364  0.00  0.00    +0.000 C 
BRANCH  13  15
ATOM     14  C   UNL     1      -0.751  10.767  22.987  0.00  0.00    +0.000 C 
ATOM     15  C   UNL     1       0.127   9.619  23.461  0.00  0.00    +0.000 C 
ENDBRANCH  13  15
ENDBRANCH  11  13
ENDBRANCH   1  11
BRANCH   5  16
ATOM     16  O   UNL     1       3.810   3.573  18.483  0.00  0.00    +0.000 OA
ATOM     17  C   UNL     1       3.034   2.716  17.650  0.00  0.00    +0.000 C 
ENDBRANCH   5  16
BRANCH  10  18
ATOM     18  N   UNL     1       1.783   9.349  19.028  0.00  0.00    +0.000 N 
ATOM     19  H   UNL     1       2.215   9.936  19.761  0.00  0.00    +0.000 HD
BRANCH  18  20
ATOM     20  C   UNL     1       0.563   9.996  18.667  0.00  0.00    +0.000 A 
ATOM     21  C   UNL     1      -0.374   9.370  17.831  0.00  0.00    +0.000 A 
ATOM     22  C   UNL     1      -1.557  10.011  17.469  0.00  0.00    +0.000 A 
ATOM     23  C   UNL     1      -1.852  11.264  17.992  0.00  0.00    +0.000 A 
ATOM     24  C   UNL     1      -0.957  11.902  18.845  0.00  0.00    +0.000 A 
ATOM     25  C   UNL     1       0.255  11.271  19.196  0.00  0.00    +0.000 A 
ATOM     26  C   UNL     1       1.210  11.987  20.115  0.00  0.00    +0.000 C 
BRANCH  23  27
ATOM     27  O   UNL     1      -3.123  11.762  17.614  0.00  0.00    +0.000 OA
BRANCH  27  28
ATOM     28  C   UNL     1      -4.346  11.475  18.214  0.00  0.00    +0.000 C 
ATOM     29  C   UNL     1      -4.493  12.326  19.443  0.00  0.00    +0.000 C 
ATOM     30  O   UNL     1      -5.207  10.706  17.806  0.00  0.00    +0.000 OA
ENDBRANCH  27  28
ENDBRANCH  23  27
ENDBRANCH  18  20
ENDBRANCH  10  18
TORSDOF 8
ENDMDL
