MODEL 1
REMARK VINA RESULT:      -6.9      0.000      0.000
REMARK  Name = 
REMARK  8 active torsions:
REMARK  status: ('A' for Active; 'I' for Inactive)
REMARK    1  A    between atoms: C_1  and  C_2
REMARK    2  A    between atoms: C_2  and  C_3
REMARK    3  A    between atoms: C_5  and  C_6
REMARK    4  A    between atoms: C_6  and  C_7
REMARK    5  A    between atoms: C_7  and  O_8
REMARK    6  A    between atoms: C_11  and  O_13
REMARK    7  A    between atoms: O_13  and  C_14
REMARK    8  A    between atoms: C_14  and  C_15
REMARK                            x       y       z     vdW  Elec       q    Type
REMARK                         _______ _______ _______ _____ _____    ______ ____
ROOT
ATOM      1  C   UNL     1       5.019   6.931  16.134  0.00  0.00    +0.000 C 
ATOM      2  C   UNL     1       6.312   6.290  16.651  0.00  0.00    +0.000 C 
ATOM      3  C   UNL     1       7.110   7.294  17.484  0.00  0.00    +0.000 C 
ATOM      4  O   UNL     1       7.125   5.971  15.489  0.00  0.00    +0.000 OA
ATOM      5  C   UNL     1       7.117   4.543  15.307  0.00  0.00    +0.000 C 
ATOM      6  C   UNL     1       6.882   3.989  16.698  0.00  0.00    +0.000 C 
ATOM      7  N   UNL     1       6.118   5.026  17.332  0.00  0.00    +0.000 N 
ATOM      8  C   UNL     1       5.403   4.775  18.472  0.00  0.00    +0.000 C 
ATOM      9  O   UNL     1       5.348   3.668  18.996  0.00  0.00    +0.000 OA
ENDROOT
BRANCH   5  10
ATOM     10  C   UNL     1       6.028   4.119  14.315  0.00  0.00    +0.000 C 
BRANCH  10  11
ATOM     11  C   UNL     1       6.574   3.937  12.904  0.00  0.00    +0.000 C 
BRANCH  11  12
ATOM     12  O   UNL     1       6.201   2.657  12.405  0.00  0.00    +0.000 OA
ATOM     13  H   UNL     1       7.011   2.133  12.288  0.00  0.00    +0.000 HD
ENDBRANCH  11  12
ENDBRANCH  10  11
ENDBRANCH   5  10
BRANCH   8  14
ATOM     14  O   UNL     1       4.716   5.859  18.907  0.00  0.00    +0.000 OA
BRANCH  14  15
ATOM     15  C   UNL     1       3.352   5.941  18.482  0.00  0.00    +0.000 C 
BRANCH  15  16
ATOM     16  C   UNL     1       2.506   4.893  19.156  0.00  0.00    +0.000 A 
ATOM     17  C   UNL     1       1.807   3.944  18.401  0.00  0.00    +0.000 A 
ATOM     18  C   UNL     1       1.073   2.937  19.033  0.00  0.00    +0.000 A 
ATOM     19  C   UNL     1       1.023   2.880  20.423  0.00  0.00    +0.000 A 
ATOM     20  C   UNL     1       1.697   3.834  21.186  0.00  0.00    +0.000 A 
ATOM     21  C   UNL     1       2.431   4.841  20.555  0.00  0.00    +0.000 A 
ENDBRANCH  15  16
ENDBRANCH  14  15
ENDBRANCH   8  14
TORSDOF 6
ENDMDL
MODEL 2
REMARK VINA RESULT:      -6.9      2.070      3.641
REMARK  Name = 
REMARK  8 active torsions:
REMARK  status: ('A' for Active; 'I' for Inactive)
REMARK    1  A    between atoms: C_1  and  C_2
REMARK    2  A    between atoms: C_2  and  C_3
REMARK    3  A    between atoms: C_5  and  C_6
REMARK    4  A    between atoms: C_6  and  C_7
REMARK    5  A    between atoms: C_7  and  O_8
REMARK    6  A    between atoms: C_11  and  O_13
REMARK    7  A    between atoms: O_13  and  C_14
REMARK    8  A    between atoms: C_14  and  C_15
REMARK                            x       y       z     vdW  Elec       q    Type
REMARK                         _______ _______ _______ _____ _____    ______ ____
ROOT
ATOM      1  C   UNL     1       5.212   4.156  18.749  0.00  0.00    +0.000 C 
ATOM      2  C   UNL     1       5.502   4.864  17.422  0.00  0.00    +0.000 C 
ATOM      3  C   UNL     1       4.938   4.058  16.251  0.00  0.00    +0.000 C 
ATOM      4  O   UNL     1       6.946   4.888  17.256  0.00  0.00    +0.000 OA
ATOM      5  C   UNL     1       7.406   6.236  17.465  0.00  0.00    +0.000 C 
ATOM      6  C   UNL     1       6.220   7.099  17.087  0.00  0.00    +0.000 C 
ATOM      7  N   UNL     1       5.098   6.255  17.390  0.00  0.00    +0.000 N 
ATOM      8  C   UNL     1       3.841   6.780  17.526  0.00  0.00    +0.000 C 
ATOM      9  O   UNL     1       3.603   7.978  17.429  0.00  0.00    +0.000 OA
ENDROOT
BRANCH   5  10
ATOM     10  C   UNL     1       7.848   6.449  18.917  0.00  0.00    +0.000 C 
BRANCH  10  11
ATOM     11  C   UNL     1       8.364   5.167  19.557  0.00  0.00    +0.000 C 
BRANCH  11  12
ATOM     12  O   UNL     1       8.303   5.278  20.975  0.00  0.00    +0.000 OA
ATOM     13  H   UNL     1       8.137   4.393  21.339  0.00  0.00    +0.000 HD
ENDBRANCH  11  12
ENDBRANCH  10  11
ENDBRANCH   5  10
BRANCH   8  14
ATOM     14  O   UNL     1       2.916   5.842  17.847  0.00  0.00    +0.000 OA
BRANCH  14  15
ATOM     15  C   UNL     1       2.159   6.098  19.033  0.00  0.00    +0.000 C 
BRANCH  15  16
ATOM     16  C   UNL     1       1.882   4.826  19.789  0.00  0.00    +0.000 A 
ATOM     17  C   UNL     1       1.200   3.766  19.179  0.00  0.00    +0.000 A 
ATOM     18  C   UNL     1       1.000   2.565  19.864  0.00  0.00    +0.000 A 
ATOM     19  C   UNL     1       1.466   2.421  21.169  0.00  0.00    +0.000 A 
ATOM     20  C   UNL     1       2.126   3.479  21.795  0.00  0.00    +0.000 A 
ATOM     21  C   UNL     1       2.327   4.679  21.110  0.00  0.00    +0.000 A 
ENDBRANCH  15  16
ENDBRANCH  14  15
ENDBRANCH   8  14
TORSDOF 6
ENDMDL
MODEL 3
REMARK VINA RESULT:      -6.9      2.074      3.794
REMARK  Name = 
REMARK  8 active torsions:
REMARK  status: ('A' for Active; 'I' for Inactive)
REMARK    1  A    between atoms: C_1  and  C_2
REMARK    2  A    between atoms: C_2  and  C_3
REMARK    3  A    between atoms: C_5  and  C_6
REMARK    4  A    between atoms: C_6  and  C_7
REMARK    5  A    between atoms: C_7  and  O_8
REMARK    6  A    between atoms: C_11  and  O_13
REMARK    7  A    between atoms: O_13  and  C_14
REMARK    8  A    between atoms: C_14  and  C_15
REMARK                            x       y       z     vdW  Elec       q    Type
REMARK                         _______ _______ _______ _____ _____    ______ ____
ROOT
ATOM      1  C   UNL     1       5.197   4.205  18.751  0.00  0.00    +0.000 C 
ATOM      2  C   UNL     1       5.490   4.909  17.423  0.00  0.00    +0.000 C 
ATOM      3  C   UNL     1       4.919   4.105  16.254  0.00  0.00    +0.000 C 
ATOM      4  O   UNL     1       6.934   4.922  17.256  0.00  0.00    +0.000 OA
ATOM      5  C   UNL     1       7.403   6.268  17.462  0.00  0.00    +0.000 C 
ATOM      6  C   UNL     1       6.222   7.139  17.085  0.00  0.00    +0.000 C 
ATOM      7  N   UNL     1       5.095   6.303  17.389  0.00  0.00    +0.000 N 
ATOM      8  C   UNL     1       3.842   6.836  17.526  0.00  0.00    +0.000 C 
ATOM      9  O   UNL     1       3.612   8.036  17.428  0.00  0.00    +0.000 OA
ENDROOT
BRANCH   5  10
ATOM     10  C   UNL     1       7.849   6.480  18.914  0.00  0.00    +0.000 C 
BRANCH  10  11
ATOM     11  C   UNL     1       8.382   5.201  19.546  0.00  0.00    +0.000 C 
BRANCH  11  12
ATOM     12  O   UNL     1       8.290   5.291  20.963  0.00  0.00    +0.000 OA
ATOM     13  H   UNL     1       8.904   5.982  21.262  0.00  0.00    +0.000 HD
ENDBRANCH  11  12
ENDBRANCH  10  11
ENDBRANCH   5  10
BRANCH   8  14
ATOM     14  O   UNL     1       2.911   5.905  17.849  0.00  0.00    +0.000 OA
BRANCH  14  15
ATOM     15  C   UNL     1       2.216   6.125  19.079  0.00  0.00    +0.000 C 
BRANCH  15  16
ATOM     16  C   UNL     1       1.952   4.828  19.798  0.00  0.00    +0.000 A 
ATOM     17  C   UNL     1       2.368   4.648  21.123  0.00  0.00    +0.000 A 
ATOM     18  C   UNL     1       2.067   3.466  21.805  0.00  0.00    +0.000 A 
ATOM     19  C   UNL     1       1.361   2.452  21.163  0.00  0.00    +0.000 A 
ATOM     20  C   UNL     1       0.962   2.611  19.836  0.00  0.00    +0.000 A 
ATOM     21  C   UNL     1       1.263   3.792  19.154  0.00  0.00    +0.000 A 
ENDBRANCH  15  16
ENDBRANCH  14  15
ENDBRANCH   8  14
TORSDOF 6
ENDMDL
MODEL 4
REMARK VINA RESULT:      -6.8      1.820      2.795
REMARK  Name = 
REMARK  8 active torsions:
REMARK  status: ('A' for Active; 'I' for Inactive)
REMARK    1  A    between atoms: C_1  and  C_2
REMARK    2  A    between atoms: C_2  and  C_3
REMARK    3  A    between atoms: C_5  and  C_6
REMARK    4  A    between atoms: C_6  and  C_7
REMARK    5  A    between atoms: C_7  and  O_8
REMARK    6  A    between atoms: C_11  and  O_13
REMARK    7  A    between atoms: O_13  and  C_14
REMARK    8  A    between atoms: C_14  and  C_15
REMARK                            x       y       z     vdW  Elec       q    Type
REMARK                         _______ _______ _______ _____ _____    ______ ____
ROOT
ATOM      1  C   UNL     1       4.973   6.870  16.117  0.00  0.00    +0.000 C 
ATOM      2  C   UNL     1       6.288   6.386  16.737  0.00  0.00    +0.000 C 
ATOM      3  C   UNL     1       6.996   7.536  17.454  0.00  0.00    +0.000 C 
ATOM      4  O   UNL     1       7.153   5.980  15.641  0.00  0.00    +0.000 OA
ATOM      5  C   UNL     1       7.241   4.543  15.641  0.00  0.00    +0.000 C 
ATOM      6  C   UNL     1       7.000   4.151  17.084  0.00  0.00    +0.000 C 
ATOM      7  N   UNL     1       6.154   5.206  17.567  0.00  0.00    +0.000 N 
ATOM      8  C   UNL     1       5.423   5.051  18.714  0.00  0.00    +0.000 C 
ATOM      9  O   UNL     1       5.423   4.016  19.371  0.00  0.00    +0.000 OA
ENDROOT
BRANCH   5  10
ATOM     10  C   UNL     1       6.210   3.927  14.686  0.00  0.00    +0.000 C 
BRANCH  10  11
ATOM     11  C   UNL     1       6.664   3.985  13.233  0.00  0.00    +0.000 C 
BRANCH  11  12
ATOM     12  O   UNL     1       6.068   2.921  12.500  0.00  0.00    +0.000 OA
ATOM     13  H   UNL     1       5.536   2.391  13.118  0.00  0.00    +0.000 HD
ENDBRANCH  11  12
ENDBRANCH  10  11
ENDBRANCH   5  10
BRANCH   8  14
ATOM     14  O   UNL     1       4.657   6.133  18.995  0.00  0.00    +0.000 OA
BRANCH  14  15
ATOM     15  C   UNL     1       3.306   5.854  19.375  0.00  0.00    +0.000 C 
BRANCH  15  16
ATOM     16  C   UNL     1       2.465   7.102  19.359  0.00  0.00    +0.000 A 
ATOM     17  C   UNL     1       1.823   7.547  20.521  0.00  0.00    +0.000 A 
ATOM     18  C   UNL     1       1.094   8.739  20.516  0.00  0.00    +0.000 A 
ATOM     19  C   UNL     1       0.991   9.487  19.345  0.00  0.00    +0.000 A 
ATOM     20  C   UNL     1       1.607   9.041  18.176  0.00  0.00    +0.000 A 
ATOM     21  C   UNL     1       2.335   7.850  18.181  0.00  0.00    +0.000 A 
ENDBRANCH  15  16
ENDBRANCH  14  15
ENDBRANCH   8  14
TORSDOF 6
ENDMDL
MODEL 5
REMARK VINA RESULT:      -6.8      1.829      2.655
REMARK  Name = 
REMARK  8 active torsions:
REMARK  status: ('A' for Active; 'I' for Inactive)
REMARK    1  A    between atoms: C_1  and  C_2
REMARK    2  A    between atoms: C_2  and  C_3
REMARK    3  A    between atoms: C_5  and  C_6
REMARK    4  A    between atoms: C_6  and  C_7
REMARK    5  A    between atoms: C_7  and  O_8
REMARK    6  A    between atoms: C_11  and  O_13
REMARK    7  A    between atoms: O_13  and  C_14
REMARK    8  A    between atoms: C_14  and  C_15
REMARK                            x       y       z     vdW  Elec       q    Type
REMARK                         _______ _______ _______ _____ _____    ______ ____
ROOT
ATOM      1  C   UNL     1       4.967   6.918  16.123  0.00  0.00    +0.000 C 
ATOM      2  C   UNL     1       6.267   6.364  16.714  0.00  0.00    +0.000 C 
ATOM      3  C   UNL     1       7.029   7.464  17.456  0.00  0.00    +0.000 C 
ATOM      4  O   UNL     1       7.104   5.955  15.599  0.00  0.00    +0.000 OA
ATOM      5  C   UNL     1       7.135   4.516  15.557  0.00  0.00    +0.000 C 
ATOM      6  C   UNL     1       6.893   4.094  16.991  0.00  0.00    +0.000 C 
ATOM      7  N   UNL     1       6.094   5.168  17.513  0.00  0.00    +0.000 N 
ATOM      8  C   UNL     1       5.369   5.009  18.663  0.00  0.00    +0.000 C 
ATOM      9  O   UNL     1       5.334   3.957  19.291  0.00  0.00    +0.000 OA
ENDROOT
BRANCH   5  10
ATOM     10  C   UNL     1       6.071   3.970  14.597  0.00  0.00    +0.000 C 
BRANCH  10  11
ATOM     11  C   UNL     1       6.537   3.993  13.147  0.00  0.00    +0.000 C 
BRANCH  11  12
ATOM     12  O   UNL     1       6.275   2.733  12.537  0.00  0.00    +0.000 OA
ATOM     13  H   UNL     1       6.253   2.864  11.575  0.00  0.00    +0.000 HD
ENDBRANCH  11  12
ENDBRANCH  10  11
ENDBRANCH   5  10
BRANCH   8  14
ATOM     14  O   UNL     1       4.650   6.112  18.982  0.00  0.00    +0.000 OA
BRANCH  14  15
ATOM     15  C   UNL     1       3.270   5.887  19.284  0.00  0.00    +0.000 C 
BRANCH  15  16
ATOM     16  C   UNL     1       2.491   7.175  19.279  0.00  0.00    +0.000 A 
ATOM     17  C   UNL     1       2.370   7.933  18.108  0.00  0.00    +0.000 A 
ATOM     18  C   UNL     1       1.595   9.095  18.094  0.00  0.00    +0.000 A 
ATOM     19  C   UNL     1       0.948   9.515  19.253  0.00  0.00    +0.000 A 
ATOM     20  C   UNL     1       1.081   8.781  20.432  0.00  0.00    +0.000 A 
ATOM     21  C   UNL     1       1.855   7.619  20.446  0.00  0.00    +0.000 A 
ENDBRANCH  15  16
ENDBRANCH  14  15
ENDBRANCH   8  14
TORSDOF 6
ENDMDL
MODEL 6
REMARK VINA RESULT:      -6.8      1.326      1.628
REMARK  Name = 
REMARK  8 active torsions:
REMARK  status: ('A' for Active; 'I' for Inactive)
REMARK    1  A    between atoms: C_1  and  C_2
REMARK    2  A    between atoms: C_2  and  C_3
REMARK    3  A    between atoms: C_5  and  C_6
REMARK    4  A    between atoms: C_6  and  C_7
REMARK    5  A    between atoms: C_7  and  O_8
REMARK    6  A    between atoms: C_11  and  O_13
REMARK    7  A    between atoms: O_13  and  C_14
REMARK    8  A    between atoms: C_14  and  C_15
REMARK                            x       y       z     vdW  Elec       q    Type
REMARK                         _______ _______ _______ _____ _____    ______ ____
ROOT
ATOM      1  C   UNL     1       3.907   4.708  16.529  0.00  0.00    +0.000 C 
ATOM      2  C   UNL     1       5.100   5.660  16.393  0.00  0.00    +0.000 C 
ATOM      3  C   UNL     1       4.755   7.034  16.968  0.00  0.00    +0.000 C 
ATOM      4  O   UNL     1       5.337   5.848  14.972  0.00  0.00    +0.000 OA
ATOM      5  C   UNL     1       6.539   5.142  14.614  0.00  0.00    +0.000 C 
ATOM      6  C   UNL     1       7.352   5.114  15.892  0.00  0.00    +0.000 C 
ATOM      7  N   UNL     1       6.344   5.131  16.914  0.00  0.00    +0.000 N 
ATOM      8  C   UNL     1       6.641   4.761  18.198  0.00  0.00    +0.000 C 
ATOM      9  O   UNL     1       7.751   4.373  18.543  0.00  0.00    +0.000 OA
ENDROOT
BRANCH   5  10
ATOM     10  C   UNL     1       6.220   3.737  14.090  0.00  0.00    +0.000 C 
BRANCH  10  11
ATOM     11  C   UNL     1       6.380   3.634  12.579  0.00  0.00    +0.000 C 
BRANCH  11  12
ATOM     12  O   UNL     1       6.076   2.311  12.152  0.00  0.00    +0.000 OA
ATOM     13  H   UNL     1       6.854   1.959  11.687  0.00  0.00    +0.000 HD
ENDBRANCH  11  12
ENDBRANCH  10  11
ENDBRANCH   5  10
BRANCH   8  14
ATOM     14  O   UNL     1       5.560   4.805  19.016  0.00  0.00    +0.000 OA
BRANCH  14  15
ATOM     15  C   UNL     1       5.038   3.536  19.422  0.00  0.00    +0.000 C 
BRANCH  15  16
ATOM     16  C   UNL     1       3.568   3.625  19.733  0.00  0.00    +0.000 A 
ATOM     17  C   UNL     1       2.748   2.493  19.643  0.00  0.00    +0.000 A 
ATOM     18  C   UNL     1       1.398   2.567  19.993  0.00  0.00    +0.000 A 
ATOM     19  C   UNL     1       0.854   3.775  20.422  0.00  0.00    +0.000 A 
ATOM     20  C   UNL     1       1.656   4.915  20.493  0.00  0.00    +0.000 A 
ATOM     21  C   UNL     1       3.006   4.841  20.144  0.00  0.00    +0.000 A 
ENDBRANCH  15  16
ENDBRANCH  14  15
ENDBRANCH   8  14
TORSDOF 6
ENDMDL
MODEL 7
REMARK VINA RESULT:      -6.8      1.352      1.901
REMARK  Name = 
REMARK  8 active torsions:
REMARK  status: ('A' for Active; 'I' for Inactive)
REMARK    1  A    between atoms: C_1  and  C_2
REMARK    2  A    between atoms: C_2  and  C_3
REMARK    3  A    between atoms: C_5  and  C_6
REMARK    4  A    between atoms: C_6  and  C_7
REMARK    5  A    between atoms: C_7  and  O_8
REMARK    6  A    between atoms: C_11  and  O_13
REMARK    7  A    between atoms: O_13  and  C_14
REMARK    8  A    between atoms: C_14  and  C_15
REMARK                            x       y       z     vdW  Elec       q    Type
REMARK                         _______ _______ _______ _____ _____    ______ ____
ROOT
ATOM      1  C   UNL     1       3.777   4.538  16.598  0.00  0.00    +0.000 C 
ATOM      2  C   UNL     1       4.890   5.586  16.499  0.00  0.00    +0.000 C 
ATOM      3  C   UNL     1       4.416   6.925  17.066  0.00  0.00    +0.000 C 
ATOM      4  O   UNL     1       5.152   5.799  15.086  0.00  0.00    +0.000 OA
ATOM      5  C   UNL     1       6.419   5.198  14.762  0.00  0.00    +0.000 C 
ATOM      6  C   UNL     1       7.194   5.231  16.064  0.00  0.00    +0.000 C 
ATOM      7  N   UNL     1       6.158   5.160  17.056  0.00  0.00    +0.000 N 
ATOM      8  C   UNL     1       6.446   4.810  18.347  0.00  0.00    +0.000 C 
ATOM      9  O   UNL     1       7.574   4.514  18.724  0.00  0.00    +0.000 OA
ENDROOT
BRANCH   5  10
ATOM     10  C   UNL     1       6.233   3.773  14.227  0.00  0.00    +0.000 C 
BRANCH  10  11
ATOM     11  C   UNL     1       6.307   3.714  12.707  0.00  0.00    +0.000 C 
BRANCH  11  12
ATOM     12  O   UNL     1       6.226   2.361  12.273  0.00  0.00    +0.000 OA
ATOM     13  H   UNL     1       5.287   2.127  12.192  0.00  0.00    +0.000 HD
ENDBRANCH  11  12
ENDBRANCH  10  11
ENDBRANCH   5  10
BRANCH   8  14
ATOM     14  O   UNL     1       5.342   4.761  19.133  0.00  0.00    +0.000 OA
BRANCH  14  15
ATOM     15  C   UNL     1       4.970   3.460  19.598  0.00  0.00    +0.000 C 
BRANCH  15  16
ATOM     16  C   UNL     1       3.477   3.343  19.756  0.00  0.00    +0.000 A 
ATOM     17  C   UNL     1       2.748   4.338  20.418  0.00  0.00    +0.000 A 
ATOM     18  C   UNL     1       1.357   4.255  20.508  0.00  0.00    +0.000 A 
ATOM     19  C   UNL     1       0.686   3.170  19.949  0.00  0.00    +0.000 A 
ATOM     20  C   UNL     1       1.404   2.161  19.307  0.00  0.00    +0.000 A 
ATOM     21  C   UNL     1       2.795   2.244  19.217  0.00  0.00    +0.000 A 
ENDBRANCH  15  16
ENDBRANCH  14  15
ENDBRANCH   8  14
TORSDOF 6
ENDMDL
MODEL 8
REMARK VINA RESULT:      -6.8      2.797      3.598
REMARK  Name = 
REMARK  8 active torsions:
REMARK  status: ('A' for Active; 'I' for Inactive)
REMARK    1  A    between atoms: C_1  and  C_2
REMARK    2  A    between atoms: C_2  and  C_3
REMARK    3  A    between atoms: C_5  and  C_6
REMARK    4  A    between atoms: C_6  and  C_7
REMARK    5  A    between atoms: C_7  and  O_8
REMARK    6  A    between atoms: C_11  and  O_13
REMARK    7  A    between atoms: O_13  and  C_14
REMARK    8  A    between atoms: C_14  and  C_15
REMARK                            x       y       z     vdW  Elec       q    Type
REMARK                         _______ _______ _______ _____ _____    ______ ____
ROOT
ATOM      1  C   UNL     1       5.865   6.893  17.133  0.00  0.00    +0.000 C 
ATOM      2  C   UNL     1       5.586   5.494  17.693  0.00  0.00    +0.000 C 
ATOM      3  C   UNL     1       6.036   5.402  19.151  0.00  0.00    +0.000 C 
ATOM      4  O   UNL     1       6.410   4.562  16.941  0.00  0.00    +0.000 OA
ATOM      5  C   UNL     1       5.554   3.802  16.067  0.00  0.00    +0.000 C 
ATOM      6  C   UNL     1       4.210   3.800  16.765  0.00  0.00    +0.000 C 
ATOM      7  N   UNL     1       4.226   5.036  17.496  0.00  0.00    +0.000 N 
ATOM      8  C   UNL     1       3.066   5.583  17.975  0.00  0.00    +0.000 C 
ATOM      9  O   UNL     1       1.964   5.080  17.791  0.00  0.00    +0.000 OA
ENDROOT
BRANCH   5  10
ATOM     10  C   UNL     1       5.490   4.436  14.672  0.00  0.00    +0.000 C 
BRANCH  10  11
ATOM     11  C   UNL     1       6.842   4.426  13.971  0.00  0.00    +0.000 C 
BRANCH  11  12
ATOM     12  O   UNL     1       7.685   5.422  14.540  0.00  0.00    +0.000 OA
ATOM     13  H   UNL     1       8.399   4.972  15.023  0.00  0.00    +0.000 HD
ENDBRANCH  11  12
ENDBRANCH  10  11
ENDBRANCH   5  10
BRANCH   8  14
ATOM     14  O   UNL     1       3.268   6.766  18.606  0.00  0.00    +0.000 OA
BRANCH  14  15
ATOM     15  C   UNL     1       2.529   7.877  18.092  0.00  0.00    +0.000 C 
BRANCH  15  16
ATOM     16  C   UNL     1       1.700   8.526  19.167  0.00  0.00    +0.000 A 
ATOM     17  C   UNL     1       0.945   9.674  18.893  0.00  0.00    +0.000 A 
ATOM     18  C   UNL     1       0.129  10.236  19.877  0.00  0.00    +0.000 A 
ATOM     19  C   UNL     1       0.071   9.664  21.146  0.00  0.00    +0.000 A 
ATOM     20  C   UNL     1       0.837   8.535  21.437  0.00  0.00    +0.000 A 
ATOM     21  C   UNL     1       1.653   7.972  20.453  0.00  0.00    +0.000 A 
ENDBRANCH  15  16
ENDBRANCH  14  15
ENDBRANCH   8  14
TORSDOF 6
ENDMDL
MODEL 9
REMARK VINA RESULT:      -6.7      2.803      3.683
REMARK  Name = 
REMARK  8 active torsions:
REMARK  status: ('A' for Active; 'I' for Inactive)
REMARK    1  A    between atoms: C_1  and  C_2
REMARK    2  A    between atoms: C_2  and  C_3
REMARK    3  A    between atoms: C_5  and  C_6
REMARK    4  A    between atoms: C_6  and  C_7
REMARK    5  A    between atoms: C_7  and  O_8
REMARK    6  A    between atoms: C_11  and  O_13
REMARK    7  A    between atoms: O_13  and  C_14
REMARK    8  A    between atoms: C_14  and  C_15
REMARK                            x       y       z     vdW  Elec       q    Type
REMARK                         _______ _______ _______ _____ _____    ______ ____
ROOT
ATOM      1  C   UNL     1       5.855   6.891  17.169  0.00  0.00    +0.000 C 
ATOM      2  C   UNL     1       5.580   5.486  17.714  0.00  0.00    +0.000 C 
ATOM      3  C   UNL     1       6.029   5.381  19.172  0.00  0.00    +0.000 C 
ATOM      4  O   UNL     1       6.406   4.563  16.954  0.00  0.00    +0.000 OA
ATOM      5  C   UNL     1       5.552   3.811  16.072  0.00  0.00    +0.000 C 
ATOM      6  C   UNL     1       4.208   3.799  16.770  0.00  0.00    +0.000 C 
ATOM      7  N   UNL     1       4.220   5.027  17.513  0.00  0.00    +0.000 N 
ATOM      8  C   UNL     1       3.059   5.567  17.997  0.00  0.00    +0.000 C 
ATOM      9  O   UNL     1       1.958   5.063  17.807  0.00  0.00    +0.000 OA
ENDROOT
BRANCH   5  10
ATOM     10  C   UNL     1       5.487   4.458  14.683  0.00  0.00    +0.000 C 
BRANCH  10  11
ATOM     11  C   UNL     1       6.840   4.464  13.985  0.00  0.00    +0.000 C 
BRANCH  11  12
ATOM     12  O   UNL     1       7.692   5.427  14.596  0.00  0.00    +0.000 OA
ATOM     13  H   UNL     1       8.595   5.280  14.269  0.00  0.00    +0.000 HD
ENDBRANCH  11  12
ENDBRANCH  10  11
ENDBRANCH   5  10
BRANCH   8  14
ATOM     14  O   UNL     1       3.259   6.744  18.639  0.00  0.00    +0.000 OA
BRANCH  14  15
ATOM     15  C   UNL     1       2.532   7.862  18.124  0.00  0.00    +0.000 C 
BRANCH  15  16
ATOM     16  C   UNL     1       1.692   8.508  19.194  0.00  0.00    +0.000 A 
ATOM     17  C   UNL     1       1.626   7.958  20.480  0.00  0.00    +0.000 A 
ATOM     18  C   UNL     1       0.895   8.595  21.486  0.00  0.00    +0.000 A 
ATOM     19  C   UNL     1       0.215   9.779  21.210  0.00  0.00    +0.000 A 
ATOM     20  C   UNL     1       0.255  10.323  19.926  0.00  0.00    +0.000 A 
ATOM     21  C   UNL     1       0.986   9.687  18.921  0.00  0.00    +0.000 A 
ENDBRANCH  15  16
ENDBRANCH  14  15
ENDBRANCH   8  14
TORSDOF 6
ENDMDL
