MODEL 1
REMARK VINA RESULT:      -6.8      0.000      0.000
REMARK  Name = 
REMARK  14 active torsions:
REMARK  status: ('A' for Active; 'I' for Inactive)
REMARK    1  A    between atoms: C_1  and  C_2
REMARK    2  A    between atoms: C_2  and  C_3
REMARK    3  A    between atoms: C_2  and  C_4
REMARK    4  A    between atoms: C_4  and  C_5
REMARK    5  A    between atoms: C_4  and  N_17
REMARK    6  A    between atoms: C_5  and  SE_6
REMARK    7  A    between atoms: SE_6  and  C_7
REMARK    8  A    between atoms: C_10  and  S_11
REMARK    9  A    between atoms: S_11  and  N_12
REMARK   10  A    between atoms: C_18  and  O_20
REMARK   11  A    between atoms: O_20  and  C_21
REMARK   12  A    between atoms: C_21  and  C_22
REMARK   13  A    between atoms: C_21  and  C_23
REMARK   14  A    between atoms: C_21  and  C_24
REMARK                            x       y       z     vdW  Elec       q    Type
REMARK                         _______ _______ _______ _____ _____    ______ ____
ROOT
ATOM      1  C   UNL     1       3.223   4.932  17.823  0.00  0.00    +0.000 C 
ENDROOT
BRANCH   1   2
ATOM      2  C   UNL     1       4.163   3.727  17.533  0.00  0.00    +0.000 C 
BRANCH   2   3
ATOM      3  N   UNL     1       5.540   4.099  17.844  0.00  0.00    +0.000 N 
ATOM      4  C   UNL     1       6.562   4.122  16.943  0.00  0.00    +0.000 C 
ATOM      5  O   UNL     1       7.670   4.464  17.326  0.00  0.00    +0.000 OA
ATOM      6  H   UNL     1       5.759   4.381  18.811  0.00  0.00    +0.000 HD
BRANCH   4   7
ATOM      7  O   UNL     1       6.359   3.783  15.634  0.00  0.00    +0.000 OA
BRANCH   7   8
ATOM      8  C   UNL     1       6.164   4.649  14.554  0.00  0.00    +0.000 C 
ATOM      9  C   UNL     1       7.509   5.030  13.900  0.00  0.00    +0.000 C 
ATOM     10  C   UNL     1       5.303   3.918  13.509  0.00  0.00    +0.000 C 
ATOM     11  C   UNL     1       5.410   5.921  15.000  0.00  0.00    +0.000 C 
ENDBRANCH   7   8
ENDBRANCH   4   7
ENDBRANCH   2   3
BRANCH   2  13
ATOM     12  C   UNL     1       4.358   2.198  19.668  0.00  0.00    +0.000 C 
ATOM     13  C   UNL     1       3.793   2.377  18.246  0.00  0.00    +0.000 C 
ATOM     14  C   UNL     1       2.274   2.148  18.281  0.00  0.00    +0.000 C 
ENDBRANCH   2  13
ENDBRANCH   1   2
BRANCH   1  15
ATOM     15 SE   UNL     1       3.348   5.588  19.672  0.00  0.00    +0.000 Se
BRANCH  15  16
ATOM     16  C   UNL     1       2.350   7.211  19.418  0.00  0.00    +0.000 A 
ATOM     17  C   UNL     1       1.673   7.796  20.496  0.00  0.00    +0.000 A 
ATOM     18  C   UNL     1       1.017   9.021  20.332  0.00  0.00    +0.000 A 
ATOM     19  C   UNL     1       1.035   9.666  19.089  0.00  0.00    +0.000 A 
ATOM     20  C   UNL     1       1.701   9.073  18.008  0.00  0.00    +0.000 A 
ATOM     21  C   UNL     1       2.357   7.849  18.173  0.00  0.00    +0.000 A 
BRANCH  19  22
ATOM     22  S   UNL     1       0.235  11.260  18.902  0.00  0.00    +0.000 S 
ATOM     23  O   UNL     1      -0.376  11.788  20.209  0.00  0.00    +0.000 OA
ATOM     24  O   UNL     1       1.205  12.389  18.522  0.00  0.00    +0.000 OA
BRANCH  22  25
ATOM     25  N   UNL     1      -1.079  11.365  17.725  0.00  0.00    +0.000 NA
ATOM     26  H   UNL     1      -0.764  11.988  16.948  0.00  0.00    +0.000 HD
ATOM     27  H   UNL     1      -1.893  11.820  18.196  0.00  0.00    +0.000 HD
ENDBRANCH  22  25
ENDBRANCH  19  22
ENDBRANCH  15  16
ENDBRANCH   1  15
TORSDOF 9
ENDMDL
MODEL 2
REMARK VINA RESULT:      -6.8      1.599      2.314
REMARK  Name = 
REMARK  14 active torsions:
REMARK  status: ('A' for Active; 'I' for Inactive)
REMARK    1  A    between atoms: C_1  and  C_2
REMARK    2  A    between atoms: C_2  and  C_3
REMARK    3  A    between atoms: C_2  and  C_4
REMARK    4  A    between atoms: C_4  and  C_5
REMARK    5  A    between atoms: C_4  and  N_17
REMARK    6  A    between atoms: C_5  and  SE_6
REMARK    7  A    between atoms: SE_6  and  C_7
REMARK    8  A    between atoms: C_10  and  S_11
REMARK    9  A    between atoms: S_11  and  N_12
REMARK   10  A    between atoms: C_18  and  O_20
REMARK   11  A    between atoms: O_20  and  C_21
REMARK   12  A    between atoms: C_21  and  C_22
REMARK   13  A    between atoms: C_21  and  C_23
REMARK   14  A    between atoms: C_21  and  C_24
REMARK                            x       y       z     vdW  Elec       q    Type
REMARK                         _______ _______ _______ _____ _____    ______ ____
ROOT
ATOM      1  C   UNL     1       2.544   5.223  18.617  0.00  0.00    +0.000 C 
ENDROOT
BRANCH   1   2
ATOM      2  C   UNL     1       3.458   3.965  18.560  0.00  0.00    +0.000 C 
BRANCH   2   3
ATOM      3  N   UNL     1       4.643   4.188  19.384  0.00  0.00    +0.000 N 
ATOM      4  C   UNL     1       5.599   5.126  19.135  0.00  0.00    +0.000 C 
ATOM      5  O   UNL     1       6.539   5.220  19.909  0.00  0.00    +0.000 OA
ATOM      6  H   UNL     1       4.763   3.604  20.226  0.00  0.00    +0.000 HD
BRANCH   4   7
ATOM      7  O   UNL     1       5.510   5.957  18.052  0.00  0.00    +0.000 OA
BRANCH   7   8
ATOM      8  C   UNL     1       6.297   5.931  16.897  0.00  0.00    +0.000 C 
ATOM      9  C   UNL     1       5.450   6.237  15.644  0.00  0.00    +0.000 C 
ATOM     10  C   UNL     1       7.377   7.018  17.033  0.00  0.00    +0.000 C 
ATOM     11  C   UNL     1       7.001   4.565  16.743  0.00  0.00    +0.000 C 
ENDBRANCH   7   8
ENDBRANCH   4   7
ENDBRANCH   2   3
BRANCH   2  13
ATOM     12  C   UNL     1       1.287   2.475  18.581  0.00  0.00    +0.000 C 
ATOM     13  C   UNL     1       2.779   2.602  18.944  0.00  0.00    +0.000 C 
ATOM     14  C   UNL     1       3.538   1.401  18.359  0.00  0.00    +0.000 C 
ENDBRANCH   2  13
ENDBRANCH   1   2
BRANCH   1  15
ATOM     15 SE   UNL     1       2.139   5.807  20.450  0.00  0.00    +0.000 Se
BRANCH  15  16
ATOM     16  C   UNL     1       1.749   7.643  20.036  0.00  0.00    +0.000 A 
ATOM     17  C   UNL     1       2.016   8.146  18.756  0.00  0.00    +0.000 A 
ATOM     18  C   UNL     1       1.656   9.458  18.428  0.00  0.00    +0.000 A 
ATOM     19  C   UNL     1       1.027  10.271  19.379  0.00  0.00    +0.000 A 
ATOM     20  C   UNL     1       0.773   9.771  20.663  0.00  0.00    +0.000 A 
ATOM     21  C   UNL     1       1.133   8.459  20.989  0.00  0.00    +0.000 A 
BRANCH  19  22
ATOM     22  S   UNL     1       0.522  11.934  18.934  0.00  0.00    +0.000 S 
ATOM     23  O   UNL     1       0.101  12.783  20.144  0.00  0.00    +0.000 OA
ATOM     24  O   UNL     1       1.656  12.775  18.332  0.00  0.00    +0.000 OA
BRANCH  22  25
ATOM     25  N   UNL     1      -0.821  12.087  17.797  0.00  0.00    +0.000 NA
ATOM     26  H   UNL     1      -1.566  12.660  18.256  0.00  0.00    +0.000 HD
ATOM     27  H   UNL     1      -1.206  11.131  17.628  0.00  0.00    +0.000 HD
ENDBRANCH  22  25
ENDBRANCH  19  22
ENDBRANCH  15  16
ENDBRANCH   1  15
TORSDOF 9
ENDMDL
MODEL 3
REMARK VINA RESULT:      -6.7      2.333      4.284
REMARK  Name = 
REMARK  14 active torsions:
REMARK  status: ('A' for Active; 'I' for Inactive)
REMARK    1  A    between atoms: C_1  and  C_2
REMARK    2  A    between atoms: C_2  and  C_3
REMARK    3  A    between atoms: C_2  and  C_4
REMARK    4  A    between atoms: C_4  and  C_5
REMARK    5  A    between atoms: C_4  and  N_17
REMARK    6  A    between atoms: C_5  and  SE_6
REMARK    7  A    between atoms: SE_6  and  C_7
REMARK    8  A    between atoms: C_10  and  S_11
REMARK    9  A    between atoms: S_11  and  N_12
REMARK   10  A    between atoms: C_18  and  O_20
REMARK   11  A    between atoms: O_20  and  C_21
REMARK   12  A    between atoms: C_21  and  C_22
REMARK   13  A    between atoms: C_21  and  C_23
REMARK   14  A    between atoms: C_21  and  C_24
REMARK                            x       y       z     vdW  Elec       q    Type
REMARK                         _______ _______ _______ _____ _____    ______ ____
ROOT
ATOM      1  C   UNL     1       4.872   5.640  19.034  0.00  0.00    +0.000 C 
ENDROOT
BRANCH   1   2
ATOM      2  C   UNL     1       5.790   4.439  18.665  0.00  0.00    +0.000 C 
BRANCH   2   3
ATOM      3  N   UNL     1       5.048   3.499  17.829  0.00  0.00    +0.000 N 
ATOM      4  C   UNL     1       3.922   2.837  18.215  0.00  0.00    +0.000 C 
ATOM      5  O   UNL     1       3.385   2.084  17.416  0.00  0.00    +0.000 OA
ATOM      6  H   UNL     1       5.387   3.332  16.870  0.00  0.00    +0.000 HD
BRANCH   4   7
ATOM      7  O   UNL     1       3.389   3.013  19.462  0.00  0.00    +0.000 OA
BRANCH   7   8
ATOM      8  C   UNL     1       2.042   3.187  19.792  0.00  0.00    +0.000 C 
ATOM      9  C   UNL     1       1.893   3.863  21.172  0.00  0.00    +0.000 C 
ATOM     10  C   UNL     1       1.407   4.101  18.730  0.00  0.00    +0.000 C 
ATOM     11  C   UNL     1       1.294   1.836  19.778  0.00  0.00    +0.000 C 
ENDBRANCH   7   8
ENDBRANCH   4   7
ENDBRANCH   2   3
BRANCH   2  13
ATOM     12  C   UNL     1       7.201   4.663  16.453  0.00  0.00    +0.000 C 
ATOM     13  C   UNL     1       7.159   4.801  17.987  0.00  0.00    +0.000 C 
ATOM     14  C   UNL     1       7.632   6.212  18.372  0.00  0.00    +0.000 C 
ENDBRANCH   2  13
ENDBRANCH   1   2
BRANCH   1  15
ATOM     15 SE   UNL     1       3.975   6.440  17.479  0.00  0.00    +0.000 Se
BRANCH  15  16
ATOM     16  C   UNL     1       2.756   7.560  18.456  0.00  0.00    +0.000 A 
ATOM     17  C   UNL     1       2.404   7.234  19.772  0.00  0.00    +0.000 A 
ATOM     18  C   UNL     1       1.584   8.093  20.512  0.00  0.00    +0.000 A 
ATOM     19  C   UNL     1       1.114   9.281  19.939  0.00  0.00    +0.000 A 
ATOM     20  C   UNL     1       1.455   9.599  18.618  0.00  0.00    +0.000 A 
ATOM     21  C   UNL     1       2.276   8.740  17.879  0.00  0.00    +0.000 A 
BRANCH  19  22
ATOM     22  S   UNL     1       0.106  10.401  20.913  0.00  0.00    +0.000 S 
ATOM     23  O   UNL     1       0.865  11.656  21.372  0.00  0.00    +0.000 OA
ATOM     24  O   UNL     1      -1.067  11.006  20.127  0.00  0.00    +0.000 OA
BRANCH  22  25
ATOM     25  N   UNL     1      -0.613   9.753  22.391  0.00  0.00    +0.000 NA
ATOM     26  H   UNL     1       0.153   9.326  22.960  0.00  0.00    +0.000 HD
ATOM     27  H   UNL     1      -1.275   8.993  22.117  0.00  0.00    +0.000 HD
ENDBRANCH  22  25
ENDBRANCH  19  22
ENDBRANCH  15  16
ENDBRANCH   1  15
TORSDOF 9
ENDMDL
MODEL 4
REMARK VINA RESULT:      -6.7      1.602      2.064
REMARK  Name = 
REMARK  14 active torsions:
REMARK  status: ('A' for Active; 'I' for Inactive)
REMARK    1  A    between atoms: C_1  and  C_2
REMARK    2  A    between atoms: C_2  and  C_3
REMARK    3  A    between atoms: C_2  and  C_4
REMARK    4  A    between atoms: C_4  and  C_5
REMARK    5  A    between atoms: C_4  and  N_17
REMARK    6  A    between atoms: C_5  and  SE_6
REMARK    7  A    between atoms: SE_6  and  C_7
REMARK    8  A    between atoms: C_10  and  S_11
REMARK    9  A    between atoms: S_11  and  N_12
REMARK   10  A    between atoms: C_18  and  O_20
REMARK   11  A    between atoms: O_20  and  C_21
REMARK   12  A    between atoms: C_21  and  C_22
REMARK   13  A    between atoms: C_21  and  C_23
REMARK   14  A    between atoms: C_21  and  C_24
REMARK                            x       y       z     vdW  Elec       q    Type
REMARK                         _______ _______ _______ _____ _____    ______ ____
ROOT
ATOM      1  C   UNL     1       2.203   5.479  18.329  0.00  0.00    +0.000 C 
ENDROOT
BRANCH   1   2
ATOM      2  C   UNL     1       2.748   4.046  18.593  0.00  0.00    +0.000 C 
BRANCH   2   3
ATOM      3  N   UNL     1       4.103   4.133  19.131  0.00  0.00    +0.000 N 
ATOM      4  C   UNL     1       5.241   4.084  18.385  0.00  0.00    +0.000 C 
ATOM      5  O   UNL     1       6.318   4.180  18.955  0.00  0.00    +0.000 OA
ATOM      6  H   UNL     1       4.213   4.256  20.149  0.00  0.00    +0.000 HD
BRANCH   4   7
ATOM      7  O   UNL     1       5.191   3.943  17.025  0.00  0.00    +0.000 OA
BRANCH   7   8
ATOM      8  C   UNL     1       5.774   4.774  16.064  0.00  0.00    +0.000 C 
ATOM      9  C   UNL     1       5.413   4.308  14.638  0.00  0.00    +0.000 C 
ATOM     10  C   UNL     1       5.220   6.195  16.267  0.00  0.00    +0.000 C 
ATOM     11  C   UNL     1       7.307   4.822  16.237  0.00  0.00    +0.000 C 
ENDBRANCH   7   8
ENDBRANCH   4   7
ENDBRANCH   2   3
BRANCH   2  13
ATOM     12  C   UNL     1       1.145   3.841  20.672  0.00  0.00    +0.000 C 
ATOM     13  C   UNL     1       1.861   3.129  19.509  0.00  0.00    +0.000 C 
ATOM     14  C   UNL     1       0.823   2.342  18.693  0.00  0.00    +0.000 C 
ENDBRANCH   2  13
ENDBRANCH   1   2
BRANCH   1  15
ATOM     15 SE   UNL     1       3.127   6.867  19.369  0.00  0.00    +0.000 Se
BRANCH  15  16
ATOM     16  C   UNL     1       1.773   8.223  19.216  0.00  0.00    +0.000 A 
ATOM     17  C   UNL     1       1.125   8.701  20.362  0.00  0.00    +0.000 A 
ATOM     18  C   UNL     1       0.201   9.746  20.261  0.00  0.00    +0.000 A 
ATOM     19  C   UNL     1      -0.080  10.317  19.013  0.00  0.00    +0.000 A 
ATOM     20  C   UNL     1       0.558   9.827  17.866  0.00  0.00    +0.000 A 
ATOM     21  C   UNL     1       1.483   8.783  17.968  0.00  0.00    +0.000 A 
BRANCH  19  22
ATOM     22  S   UNL     1      -1.228  11.690  18.901  0.00  0.00    +0.000 S 
ATOM     23  O   UNL     1      -2.682  11.247  18.671  0.00  0.00    +0.000 OA
ATOM     24  O   UNL     1      -1.341  12.499  20.201  0.00  0.00    +0.000 OA
BRANCH  22  25
ATOM     25  N   UNL     1      -0.926  12.886  17.637  0.00  0.00    +0.000 NA
ATOM     26  H   UNL     1      -1.101  13.834  18.043  0.00  0.00    +0.000 HD
ATOM     27  H   UNL     1      -1.622  12.728  16.874  0.00  0.00    +0.000 HD
ENDBRANCH  22  25
ENDBRANCH  19  22
ENDBRANCH  15  16
ENDBRANCH   1  15
TORSDOF 9
ENDMDL
MODEL 5
REMARK VINA RESULT:      -6.7      1.638      2.162
REMARK  Name = 
REMARK  14 active torsions:
REMARK  status: ('A' for Active; 'I' for Inactive)
REMARK    1  A    between atoms: C_1  and  C_2
REMARK    2  A    between atoms: C_2  and  C_3
REMARK    3  A    between atoms: C_2  and  C_4
REMARK    4  A    between atoms: C_4  and  C_5
REMARK    5  A    between atoms: C_4  and  N_17
REMARK    6  A    between atoms: C_5  and  SE_6
REMARK    7  A    between atoms: SE_6  and  C_7
REMARK    8  A    between atoms: C_10  and  S_11
REMARK    9  A    between atoms: S_11  and  N_12
REMARK   10  A    between atoms: C_18  and  O_20
REMARK   11  A    between atoms: O_20  and  C_21
REMARK   12  A    between atoms: C_21  and  C_22
REMARK   13  A    between atoms: C_21  and  C_23
REMARK   14  A    between atoms: C_21  and  C_24
REMARK                            x       y       z     vdW  Elec       q    Type
REMARK                         _______ _______ _______ _____ _____    ______ ____
ROOT
ATOM      1  C   UNL     1       2.036   5.382  18.358  0.00  0.00    +0.000 C 
ENDROOT
BRANCH   1   2
ATOM      2  C   UNL     1       3.065   4.269  18.008  0.00  0.00    +0.000 C 
BRANCH   2   3
ATOM      3  N   UNL     1       4.135   4.266  19.003  0.00  0.00    +0.000 N 
ATOM      4  C   UNL     1       5.206   5.107  18.995  0.00  0.00    +0.000 C 
ATOM      5  O   UNL     1       6.029   5.011  19.893  0.00  0.00    +0.000 OA
ATOM      6  H   UNL     1       4.072   3.590  19.779  0.00  0.00    +0.000 HD
BRANCH   4   7
ATOM      7  O   UNL     1       5.361   6.049  18.016  0.00  0.00    +0.000 OA
BRANCH   7   8
ATOM      8  C   UNL     1       6.228   5.999  16.921  0.00  0.00    +0.000 C 
ATOM      9  C   UNL     1       6.777   4.571  16.715  0.00  0.00    +0.000 C 
ATOM     10  C   UNL     1       5.434   6.402  15.667  0.00  0.00    +0.000 C 
ATOM     11  C   UNL     1       7.394   6.996  17.098  0.00  0.00    +0.000 C 
ENDBRANCH   7   8
ENDBRANCH   4   7
ENDBRANCH   2   3
BRANCH   2  13
ATOM     12  C   UNL     1       3.440   1.669  18.197  0.00  0.00    +0.000 C 
ATOM     13  C   UNL     1       2.483   2.821  17.835  0.00  0.00    +0.000 C 
ATOM     14  C   UNL     1       1.168   2.639  18.610  0.00  0.00    +0.000 C 
ENDBRANCH   2  13
ENDBRANCH   1   2
BRANCH   1  15
ATOM     15 SE   UNL     1       2.240   6.084  20.182  0.00  0.00    +0.000 Se
BRANCH  15  16
ATOM     16  C   UNL     1       1.746   7.902  19.796  0.00  0.00    +0.000 A 
ATOM     17  C   UNL     1       1.921   8.417  18.505  0.00  0.00    +0.000 A 
ATOM     18  C   UNL     1       1.484   9.712  18.202  0.00  0.00    +0.000 A 
ATOM     19  C   UNL     1       0.870  10.494  19.188  0.00  0.00    +0.000 A 
ATOM     20  C   UNL     1       0.709   9.982  20.482  0.00  0.00    +0.000 A 
ATOM     21  C   UNL     1       1.145   8.688  20.784  0.00  0.00    +0.000 A 
BRANCH  19  22
ATOM     22  S   UNL     1       0.267  12.133  18.776  0.00  0.00    +0.000 S 
ATOM     23  O   UNL     1      -0.328  12.879  19.981  0.00  0.00    +0.000 OA
ATOM     24  O   UNL     1       1.374  13.094  18.319  0.00  0.00    +0.000 OA
BRANCH  22  25
ATOM     25  N   UNL     1      -0.980  12.238  17.530  0.00  0.00    +0.000 NA
ATOM     26  H   UNL     1      -1.020  13.229  17.198  0.00  0.00    +0.000 HD
ATOM     27  H   UNL     1      -1.897  12.010  17.976  0.00  0.00    +0.000 HD
ENDBRANCH  22  25
ENDBRANCH  19  22
ENDBRANCH  15  16
ENDBRANCH   1  15
TORSDOF 9
ENDMDL
MODEL 6
REMARK VINA RESULT:      -6.7      1.528      1.771
REMARK  Name = 
REMARK  14 active torsions:
REMARK  status: ('A' for Active; 'I' for Inactive)
REMARK    1  A    between atoms: C_1  and  C_2
REMARK    2  A    between atoms: C_2  and  C_3
REMARK    3  A    between atoms: C_2  and  C_4
REMARK    4  A    between atoms: C_4  and  C_5
REMARK    5  A    between atoms: C_4  and  N_17
REMARK    6  A    between atoms: C_5  and  SE_6
REMARK    7  A    between atoms: SE_6  and  C_7
REMARK    8  A    between atoms: C_10  and  S_11
REMARK    9  A    between atoms: S_11  and  N_12
REMARK   10  A    between atoms: C_18  and  O_20
REMARK   11  A    between atoms: O_20  and  C_21
REMARK   12  A    between atoms: C_21  and  C_22
REMARK   13  A    between atoms: C_21  and  C_23
REMARK   14  A    between atoms: C_21  and  C_24
REMARK                            x       y       z     vdW  Elec       q    Type
REMARK                         _______ _______ _______ _____ _____    ______ ____
ROOT
ATOM      1  C   UNL     1       2.963   4.585  18.521  0.00  0.00    +0.000 C 
ENDROOT
BRANCH   1   2
ATOM      2  C   UNL     1       4.124   3.554  18.424  0.00  0.00    +0.000 C 
BRANCH   2   3
ATOM      3  N   UNL     1       5.216   3.968  19.300  0.00  0.00    +0.000 N 
ATOM      4  C   UNL     1       5.934   5.117  19.158  0.00  0.00    +0.000 C 
ATOM      5  O   UNL     1       6.818   5.357  19.966  0.00  0.00    +0.000 OA
ATOM      6  H   UNL     1       5.457   3.358  20.095  0.00  0.00    +0.000 HD
BRANCH   4   7
ATOM      7  O   UNL     1       5.670   5.996  18.144  0.00  0.00    +0.000 OA
BRANCH   7   8
ATOM      8  C   UNL     1       6.398   6.172  16.963  0.00  0.00    +0.000 C 
ATOM      9  C   UNL     1       7.127   4.871  16.565  0.00  0.00    +0.000 C 
ATOM     10  C   UNL     1       5.408   6.537  15.845  0.00  0.00    +0.000 C 
ATOM     11  C   UNL     1       7.412   7.327  17.110  0.00  0.00    +0.000 C 
ENDBRANCH   7   8
ENDBRANCH   4   7
ENDBRANCH   2   3
BRANCH   2  13
ATOM     12  C   UNL     1       4.393   1.426  19.951  0.00  0.00    +0.000 C 
ATOM     13  C   UNL     1       3.741   2.057  18.706  0.00  0.00    +0.000 C 
ATOM     14  C   UNL     1       2.219   1.863  18.789  0.00  0.00    +0.000 C 
ENDBRANCH   2  13
ENDBRANCH   1   2
BRANCH   1  15
ATOM     15 SE   UNL     1       2.613   5.192  20.357  0.00  0.00    +0.000 Se
BRANCH  15  16
ATOM     16  C   UNL     1       2.021   6.967  19.913  0.00  0.00    +0.000 A 
ATOM     17  C   UNL     1       1.338   7.737  20.864  0.00  0.00    +0.000 A 
ATOM     18  C   UNL     1       0.981   9.058  20.571  0.00  0.00    +0.000 A 
ATOM     19  C   UNL     1       1.305   9.613  19.326  0.00  0.00    +0.000 A 
ATOM     20  C   UNL     1       1.975   8.836  18.372  0.00  0.00    +0.000 A 
ATOM     21  C   UNL     1       2.333   7.516  18.666  0.00  0.00    +0.000 A 
BRANCH  19  22
ATOM     22  S   UNL     1       0.889  11.323  18.979  0.00  0.00    +0.000 S 
ATOM     23  O   UNL     1       0.659  12.160  20.247  0.00  0.00    +0.000 OA
ATOM     24  O   UNL     1       2.019  12.097  18.285  0.00  0.00    +0.000 OA
BRANCH  22  25
ATOM     25  N   UNL     1      -0.545  11.614  17.990  0.00  0.00    +0.000 NA
ATOM     26  H   UNL     1      -1.215  12.184  18.555  0.00  0.00    +0.000 HD
ATOM     27  H   UNL     1      -0.992  10.690  17.795  0.00  0.00    +0.000 HD
ENDBRANCH  22  25
ENDBRANCH  19  22
ENDBRANCH  15  16
ENDBRANCH   1  15
TORSDOF 9
ENDMDL
MODEL 7
REMARK VINA RESULT:      -6.6      2.287      2.936
REMARK  Name = 
REMARK  14 active torsions:
REMARK  status: ('A' for Active; 'I' for Inactive)
REMARK    1  A    between atoms: C_1  and  C_2
REMARK    2  A    between atoms: C_2  and  C_3
REMARK    3  A    between atoms: C_2  and  C_4
REMARK    4  A    between atoms: C_4  and  C_5
REMARK    5  A    between atoms: C_4  and  N_17
REMARK    6  A    between atoms: C_5  and  SE_6
REMARK    7  A    between atoms: SE_6  and  C_7
REMARK    8  A    between atoms: C_10  and  S_11
REMARK    9  A    between atoms: S_11  and  N_12
REMARK   10  A    between atoms: C_18  and  O_20
REMARK   11  A    between atoms: O_20  and  C_21
REMARK   12  A    between atoms: C_21  and  C_22
REMARK   13  A    between atoms: C_21  and  C_23
REMARK   14  A    between atoms: C_21  and  C_24
REMARK                            x       y       z     vdW  Elec       q    Type
REMARK                         _______ _______ _______ _____ _____    ______ ____
ROOT
ATOM      1  C   UNL     1       2.300   7.076  19.503  0.00  0.00    +0.000 C 
ENDROOT
BRANCH   1   2
ATOM      2  C   UNL     1       2.650   5.637  19.025  0.00  0.00    +0.000 C 
BRANCH   2   3
ATOM      3  N   UNL     1       3.885   5.198  19.668  0.00  0.00    +0.000 N 
ATOM      4  C   UNL     1       5.126   5.291  19.115  0.00  0.00    +0.000 C 
ATOM      5  O   UNL     1       6.085   4.898  19.763  0.00  0.00    +0.000 OA
ATOM      6  H   UNL     1       3.821   4.801  20.618  0.00  0.00    +0.000 HD
BRANCH   4   7
ATOM      7  O   UNL     1       5.308   5.823  17.868  0.00  0.00    +0.000 OA
BRANCH   7   8
ATOM      8  C   UNL     1       5.678   5.145  16.703  0.00  0.00    +0.000 C 
ATOM      9  C   UNL     1       7.180   4.787  16.726  0.00  0.00    +0.000 C 
ATOM     10  C   UNL     1       4.867   3.840  16.635  0.00  0.00    +0.000 C 
ATOM     11  C   UNL     1       5.351   5.986  15.451  0.00  0.00    +0.000 C 
ENDBRANCH   7   8
ENDBRANCH   4   7
ENDBRANCH   2   3
BRANCH   2  13
ATOM     12  C   UNL     1       1.718   3.250  18.420  0.00  0.00    +0.000 C 
ATOM     13  C   UNL     1       1.527   4.556  19.214  0.00  0.00    +0.000 C 
ATOM     14  C   UNL     1       1.311   4.211  20.696  0.00  0.00    +0.000 C 
ENDBRANCH   2  13
ENDBRANCH   1   2
BRANCH   1  15
ATOM     15 SE   UNL     1       2.343   8.407  18.057  0.00  0.00    +0.000 Se
BRANCH  15  16
ATOM     16  C   UNL     1       0.940   9.536  18.731  0.00  0.00    +0.000 A 
ATOM     17  C   UNL     1       1.053  10.115  20.001  0.00  0.00    +0.000 A 
ATOM     18  C   UNL     1       0.073  11.003  20.457  0.00  0.00    +0.000 A 
ATOM     19  C   UNL     1      -1.024  11.316  19.645  0.00  0.00    +0.000 A 
ATOM     20  C   UNL     1      -1.143  10.725  18.379  0.00  0.00    +0.000 A 
ATOM     21  C   UNL     1      -0.162   9.838  17.924  0.00  0.00    +0.000 A 
BRANCH  19  22
ATOM     22  S   UNL     1      -2.248  12.495  20.217  0.00  0.00    +0.000 S 
ATOM     23  O   UNL     1      -2.628  12.305  21.694  0.00  0.00    +0.000 OA
ATOM     24  O   UNL     1      -1.752  13.948  20.199  0.00  0.00    +0.000 OA
BRANCH  22  25
ATOM     25  N   UNL     1      -3.794  12.525  19.363  0.00  0.00    +0.000 NA
ATOM     26  H   UNL     1      -4.118  13.518  19.319  0.00  0.00    +0.000 HD
ATOM     27  H   UNL     1      -4.484  11.985  19.932  0.00  0.00    +0.000 HD
ENDBRANCH  22  25
ENDBRANCH  19  22
ENDBRANCH  15  16
ENDBRANCH   1  15
TORSDOF 9
ENDMDL
MODEL 8
REMARK VINA RESULT:      -6.6      2.402      2.876
REMARK  Name = 
REMARK  14 active torsions:
REMARK  status: ('A' for Active; 'I' for Inactive)
REMARK    1  A    between atoms: C_1  and  C_2
REMARK    2  A    between atoms: C_2  and  C_3
REMARK    3  A    between atoms: C_2  and  C_4
REMARK    4  A    between atoms: C_4  and  C_5
REMARK    5  A    between atoms: C_4  and  N_17
REMARK    6  A    between atoms: C_5  and  SE_6
REMARK    7  A    between atoms: SE_6  and  C_7
REMARK    8  A    between atoms: C_10  and  S_11
REMARK    9  A    between atoms: S_11  and  N_12
REMARK   10  A    between atoms: C_18  and  O_20
REMARK   11  A    between atoms: O_20  and  C_21
REMARK   12  A    between atoms: C_21  and  C_22
REMARK   13  A    between atoms: C_21  and  C_23
REMARK   14  A    between atoms: C_21  and  C_24
REMARK                            x       y       z     vdW  Elec       q    Type
REMARK                         _______ _______ _______ _____ _____    ______ ____
ROOT
ATOM      1  C   UNL     1       2.378   6.656  19.678  0.00  0.00    +0.000 C 
ENDROOT
BRANCH   1   2
ATOM      2  C   UNL     1       3.105   5.424  19.067  0.00  0.00    +0.000 C 
BRANCH   2   3
ATOM      3  N   UNL     1       4.449   5.323  19.630  0.00  0.00    +0.000 N 
ATOM      4  C   UNL     1       5.535   4.832  18.970  0.00  0.00    +0.000 C 
ATOM      5  O   UNL     1       6.610   4.812  19.550  0.00  0.00    +0.000 OA
ATOM      6  H   UNL     1       4.596   5.661  20.594  0.00  0.00    +0.000 HD
BRANCH   4   7
ATOM      7  O   UNL     1       5.436   4.381  17.683  0.00  0.00    +0.000 OA
BRANCH   7   8
ATOM      8  C   UNL     1       5.930   4.996  16.529  0.00  0.00    +0.000 C 
ATOM      9  C   UNL     1       7.447   4.750  16.378  0.00  0.00    +0.000 C 
ATOM     10  C   UNL     1       5.213   4.378  15.317  0.00  0.00    +0.000 C 
ATOM     11  C   UNL     1       5.636   6.512  16.545  0.00  0.00    +0.000 C 
ENDBRANCH   7   8
ENDBRANCH   4   7
ENDBRANCH   2   3
BRANCH   2  13
ATOM     12  C   UNL     1       1.091   4.058  20.073  0.00  0.00    +0.000 C 
ATOM     13  C   UNL     1       2.359   4.048  19.198  0.00  0.00    +0.000 C 
ATOM     14  C   UNL     1       2.011   3.454  17.824  0.00  0.00    +0.000 C 
ENDBRANCH   2  13
ENDBRANCH   1   2
BRANCH   1  15
ATOM     15 SE   UNL     1       2.188   8.151  18.417  0.00  0.00    +0.000 Se
BRANCH  15  16
ATOM     16  C   UNL     1       1.073   9.258  19.525  0.00  0.00    +0.000 A 
ATOM     17  C   UNL     1       0.705   8.825  20.806  0.00  0.00    +0.000 A 
ATOM     18  C   UNL     1      -0.036   9.666  21.644  0.00  0.00    +0.000 A 
ATOM     19  C   UNL     1      -0.410  10.942  21.206  0.00  0.00    +0.000 A 
ATOM     20  C   UNL     1      -0.053  11.368  19.920  0.00  0.00    +0.000 A 
ATOM     21  C   UNL     1       0.688  10.528  19.082  0.00  0.00    +0.000 A 
BRANCH  19  22
ATOM     22  S   UNL     1      -1.315  12.031  22.307  0.00  0.00    +0.000 S 
ATOM     23  O   UNL     1      -2.024  11.285  23.448  0.00  0.00    +0.000 OA
ATOM     24  O   UNL     1      -0.413  13.008  23.075  0.00  0.00    +0.000 OA
BRANCH  22  25
ATOM     25  N   UNL     1      -2.575  13.036  21.584  0.00  0.00    +0.000 NA
ATOM     26  H   UNL     1      -2.327  13.187  20.579  0.00  0.00    +0.000 HD
ATOM     27  H   UNL     1      -2.559  13.963  22.065  0.00  0.00    +0.000 HD
ENDBRANCH  22  25
ENDBRANCH  19  22
ENDBRANCH  15  16
ENDBRANCH   1  15
TORSDOF 9
ENDMDL
MODEL 9
REMARK VINA RESULT:      -6.6      1.967      2.461
REMARK  Name = 
REMARK  14 active torsions:
REMARK  status: ('A' for Active; 'I' for Inactive)
REMARK    1  A    between atoms: C_1  and  C_2
REMARK    2  A    between atoms: C_2  and  C_3
REMARK    3  A    between atoms: C_2  and  C_4
REMARK    4  A    between atoms: C_4  and  C_5
REMARK    5  A    between atoms: C_4  and  N_17
REMARK    6  A    between atoms: C_5  and  SE_6
REMARK    7  A    between atoms: SE_6  and  C_7
REMARK    8  A    between atoms: C_10  and  S_11
REMARK    9  A    between atoms: S_11  and  N_12
REMARK   10  A    between atoms: C_18  and  O_20
REMARK   11  A    between atoms: O_20  and  C_21
REMARK   12  A    between atoms: C_21  and  C_22
REMARK   13  A    between atoms: C_21  and  C_23
REMARK   14  A    between atoms: C_21  and  C_24
REMARK                            x       y       z     vdW  Elec       q    Type
REMARK                         _______ _______ _______ _____ _____    ______ ____
ROOT
ATOM      1  C   UNL     1       3.488   5.706  19.674  0.00  0.00    +0.000 C 
ENDROOT
BRANCH   1   2
ATOM      2  C   UNL     1       3.936   4.268  19.287  0.00  0.00    +0.000 C 
BRANCH   2   3
ATOM      3  N   UNL     1       5.392   4.175  19.364  0.00  0.00    +0.000 N 
ATOM      4  C   UNL     1       6.242   4.403  18.325  0.00  0.00    +0.000 C 
ATOM      5  O   UNL     1       7.443   4.304  18.521  0.00  0.00    +0.000 OA
ATOM      6  H   UNL     1       5.814   3.935  20.274  0.00  0.00    +0.000 HD
BRANCH   4   7
ATOM      7  O   UNL     1       5.771   4.747  17.087  0.00  0.00    +0.000 OA
BRANCH   7   8
ATOM      8  C   UNL     1       6.320   5.676  16.199  0.00  0.00    +0.000 C 
ATOM      9  C   UNL     1       7.123   4.969  15.086  0.00  0.00    +0.000 C 
ATOM     10  C   UNL     1       5.163   6.452  15.548  0.00  0.00    +0.000 C 
ATOM     11  C   UNL     1       7.220   6.684  16.946  0.00  0.00    +0.000 C 
ENDBRANCH   7   8
ENDBRANCH   4   7
ENDBRANCH   2   3
BRANCH   2  13
ATOM     12  C   UNL     1       2.303   3.527  21.215  0.00  0.00    +0.000 C 
ATOM     13  C   UNL     1       3.276   3.098  20.100  0.00  0.00    +0.000 C 
ATOM     14  C   UNL     1       2.566   2.092  19.180  0.00  0.00    +0.000 C 
ENDBRANCH   2  13
ENDBRANCH   1   2
BRANCH   1  15
ATOM     15 SE   UNL     1       2.690   6.701  18.179  0.00  0.00    +0.000 Se
BRANCH  15  16
ATOM     16  C   UNL     1       1.879   8.096  19.224  0.00  0.00    +0.000 A 
ATOM     17  C   UNL     1       1.466   9.284  18.609  0.00  0.00    +0.000 A 
ATOM     18  C   UNL     1       0.800  10.265  19.353  0.00  0.00    +0.000 A 
ATOM     19  C   UNL     1       0.545  10.060  20.715  0.00  0.00    +0.000 A 
ATOM     20  C   UNL     1       0.972   8.876  21.332  0.00  0.00    +0.000 A 
ATOM     21  C   UNL     1       1.637   7.897  20.587  0.00  0.00    +0.000 A 
BRANCH  19  22
ATOM     22  S   UNL     1      -0.354  11.300  21.649  0.00  0.00    +0.000 S 
ATOM     23  O   UNL     1       0.441  12.598  21.854  0.00  0.00    +0.000 OA
ATOM     24  O   UNL     1      -1.615  11.806  20.934  0.00  0.00    +0.000 OA
BRANCH  22  25
ATOM     25  N   UNL     1      -0.892  10.849  23.270  0.00  0.00    +0.000 NA
ATOM     26  H   UNL     1      -1.488   9.993  23.184  0.00  0.00    +0.000 HD
ATOM     27  H   UNL     1      -1.490  11.624  23.635  0.00  0.00    +0.000 HD
ENDBRANCH  22  25
ENDBRANCH  19  22
ENDBRANCH  15  16
ENDBRANCH   1  15
TORSDOF 9
ENDMDL
