MODEL 1
REMARK VINA RESULT:      -8.3      0.000      0.000
REMARK  Name = 
REMARK  7 active torsions:
REMARK  status: ('A' for Active; 'I' for Inactive)
REMARK    1  A    between atoms: C_1  and  C_2
REMARK    2  A    between atoms: C_2  and  C_3
REMARK    3  A    between atoms: C_2  and  N_4
REMARK    4  A    between atoms: C_8  and  C_9
REMARK    5  A    between atoms: C_13  and  N_14
REMARK    6  A    between atoms: C_15  and  C_17
REMARK    7  A    between atoms: N_19  and  C_20
REMARK                            x       y       z     vdW  Elec       q    Type
REMARK                         _______ _______ _______ _____ _____    ______ ____
ROOT
ATOM      1  N   UNL     1       1.552   7.498  19.731  0.00  0.00    +0.000 N 
ATOM      2  C   UNL     1       1.384   8.359  20.805  0.00  0.00    +0.000 C 
ATOM      3  O   UNL     1       1.824   8.206  21.941  0.00  0.00    +0.000 OA
ATOM      4  H   UNL     1       0.983   7.691  18.915  0.00  0.00    +0.000 HD
ENDROOT
BRANCH   1   9
ATOM      5  C   UNL     1       4.303   5.178  19.497  0.00  0.00    +0.000 A 
ATOM      6  C   UNL     1       3.754   3.988  19.944  0.00  0.00    +0.000 A 
ATOM      7  C   UNL     1       2.403   3.968  20.268  0.00  0.00    +0.000 A 
ATOM      8  C   UNL     1       1.652   5.139  20.165  0.00  0.00    +0.000 A 
ATOM      9  C   UNL     1       2.292   6.309  19.775  0.00  0.00    +0.000 A 
ATOM     10  N   UNL     1       3.588   6.321  19.424  0.00  0.00    +0.000 NA
BRANCH   5  15
ATOM     11  N   UNL     1       6.123   5.123  17.717  0.00  0.00    +0.000 N 
ATOM     12  C   UNL     1       7.487   5.089  17.787  0.00  0.00    +0.000 A 
ATOM     13  N   UNL     1       7.879   5.230  19.029  0.00  0.00    +0.000 NA
ATOM     14  N   UNL     1       6.753   5.315  19.806  0.00  0.00    +0.000 NA
ATOM     15  C   UNL     1       5.685   5.238  19.024  0.00  0.00    +0.000 A 
BRANCH  11  17
ATOM     16  C   UNL     1       5.137   6.263  15.716  0.00  0.00    +0.000 C 
ATOM     17  C   UNL     1       5.322   4.965  16.509  0.00  0.00    +0.000 C 
ATOM     18  C   UNL     1       5.883   3.864  15.605  0.00  0.00    +0.000 C 
ENDBRANCH  11  17
ENDBRANCH   5  15
ENDBRANCH   1   9
BRANCH   2  19
ATOM     19  C   UNL     1       0.605   9.629  20.429  0.00  0.00    +0.000 C 
ATOM     20  C   UNL     1       0.323   9.628  18.913  0.00  0.00    +0.000 C 
ATOM     21  N   UNL     1      -0.413  10.853  18.541  0.00  0.00    +0.000 N 
ATOM     22  C   UNL     1       0.220  12.098  18.995  0.00  0.00    +0.000 C 
ATOM     23  C   UNL     1       0.511  11.990  20.506  0.00  0.00    +0.000 C 
ATOM     24  O   UNL     1       1.303  10.828  20.832  0.00  0.00    +0.000 OA
BRANCH  21  25
ATOM     25  C   UNL     1      -1.617  10.844  17.870  0.00  0.00    +0.000 A 
ATOM     26  C   UNL     1      -1.872   9.982  16.797  0.00  0.00    +0.000 A 
ATOM     27  C   UNL     1      -3.114   9.969  16.156  0.00  0.00    +0.000 A 
ATOM     28  C   UNL     1      -4.093  10.837  16.597  0.00  0.00    +0.000 A 
ATOM     29  N   UNL     1      -3.911  11.699  17.615  0.00  0.00    +0.000 NA
ATOM     30  C   UNL     1      -2.690  11.678  18.210  0.00  0.00    +0.000 A 
ENDBRANCH  21  25
ENDBRANCH   2  19
TORSDOF 5
ENDMDL
MODEL 2
REMARK VINA RESULT:      -8.3      1.029      1.095
REMARK  Name = 
REMARK  7 active torsions:
REMARK  status: ('A' for Active; 'I' for Inactive)
REMARK    1  A    between atoms: C_1  and  C_2
REMARK    2  A    between atoms: C_2  and  C_3
REMARK    3  A    between atoms: C_2  and  N_4
REMARK    4  A    between atoms: C_8  and  C_9
REMARK    5  A    between atoms: C_13  and  N_14
REMARK    6  A    between atoms: C_15  and  C_17
REMARK    7  A    between atoms: N_19  and  C_20
REMARK                            x       y       z     vdW  Elec       q    Type
REMARK                         _______ _______ _______ _____ _____    ______ ____
ROOT
ATOM      1  N   UNL     1       1.707   6.975  20.354  0.00  0.00    +0.000 N 
ATOM      2  C   UNL     1       1.738   8.122  19.576  0.00  0.00    +0.000 C 
ATOM      3  O   UNL     1       2.407   8.300  18.562  0.00  0.00    +0.000 OA
ATOM      4  H   UNL     1       1.231   7.058  21.245  0.00  0.00    +0.000 HD
ENDROOT
BRANCH   1   9
ATOM      5  C   UNL     1       4.422   4.769  19.478  0.00  0.00    +0.000 A 
ATOM      6  C   UNL     1       3.866   3.509  19.621  0.00  0.00    +0.000 A 
ATOM      7  C   UNL     1       2.521   3.418  19.959  0.00  0.00    +0.000 A 
ATOM      8  C   UNL     1       1.784   4.583  20.173  0.00  0.00    +0.000 A 
ATOM      9  C   UNL     1       2.431   5.808  20.078  0.00  0.00    +0.000 A 
ATOM     10  N   UNL     1       3.720   5.899  19.713  0.00  0.00    +0.000 NA
BRANCH   5  15
ATOM     11  N   UNL     1       6.230   4.927  17.692  0.00  0.00    +0.000 N 
ATOM     12  C   UNL     1       7.594   4.966  17.756  0.00  0.00    +0.000 A 
ATOM     13  N   UNL     1       7.986   5.053  19.003  0.00  0.00    +0.000 NA
ATOM     14  N   UNL     1       6.862   5.026  19.787  0.00  0.00    +0.000 NA
ATOM     15  C   UNL     1       5.795   4.937  19.006  0.00  0.00    +0.000 A 
BRANCH  11  17
ATOM     16  C   UNL     1       5.152   6.130  15.778  0.00  0.00    +0.000 C 
ATOM     17  C   UNL     1       5.431   4.797  16.479  0.00  0.00    +0.000 C 
ATOM     18  C   UNL     1       6.058   3.800  15.500  0.00  0.00    +0.000 C 
ENDBRANCH  11  17
ENDBRANCH   5  15
ENDBRANCH   1   9
BRANCH   2  19
ATOM     19  C   UNL     1       0.766   9.203  20.074  0.00  0.00    +0.000 C 
ATOM     20  C   UNL     1       0.230  10.005  18.871  0.00  0.00    +0.000 C 
ATOM     21  N   UNL     1      -0.693  11.056  19.342  0.00  0.00    +0.000 N 
ATOM     22  C   UNL     1      -0.139  11.920  20.392  0.00  0.00    +0.000 C 
ATOM     23  C   UNL     1       0.416  11.035  21.526  0.00  0.00    +0.000 C 
ATOM     24  O   UNL     1       1.381  10.072  21.051  0.00  0.00    +0.000 OA
BRANCH  21  25
ATOM     25  C   UNL     1      -1.986  11.196  18.882  0.00  0.00    +0.000 A 
ATOM     26  C   UNL     1      -2.487  10.448  17.811  0.00  0.00    +0.000 A 
ATOM     27  C   UNL     1      -3.812  10.583  17.388  0.00  0.00    +0.000 A 
ATOM     28  C   UNL     1      -4.625  11.487  18.044  0.00  0.00    +0.000 A 
ATOM     29  N   UNL     1      -4.204  12.246  19.072  0.00  0.00    +0.000 NA
ATOM     30  C   UNL     1      -2.910  12.081  19.452  0.00  0.00    +0.000 A 
ENDBRANCH  21  25
ENDBRANCH   2  19
TORSDOF 5
ENDMDL
MODEL 3
REMARK VINA RESULT:      -8.2      1.002      1.278
REMARK  Name = 
REMARK  7 active torsions:
REMARK  status: ('A' for Active; 'I' for Inactive)
REMARK    1  A    between atoms: C_1  and  C_2
REMARK    2  A    between atoms: C_2  and  C_3
REMARK    3  A    between atoms: C_2  and  N_4
REMARK    4  A    between atoms: C_8  and  C_9
REMARK    5  A    between atoms: C_13  and  N_14
REMARK    6  A    between atoms: C_15  and  C_17
REMARK    7  A    between atoms: N_19  and  C_20
REMARK                            x       y       z     vdW  Elec       q    Type
REMARK                         _______ _______ _______ _____ _____    ______ ____
ROOT
ATOM      1  N   UNL     1       1.644   7.336  20.064  0.00  0.00    +0.000 N 
ATOM      2  C   UNL     1       1.690   8.384  19.158  0.00  0.00    +0.000 C 
ATOM      3  O   UNL     1       2.360   8.434  18.130  0.00  0.00    +0.000 OA
ATOM      4  H   UNL     1       1.171   7.528  20.940  0.00  0.00    +0.000 HD
ENDROOT
BRANCH   1   9
ATOM      5  C   UNL     1       4.334   5.007  19.480  0.00  0.00    +0.000 A 
ATOM      6  C   UNL     1       3.753   3.778  19.739  0.00  0.00    +0.000 A 
ATOM      7  C   UNL     1       2.400   3.744  20.055  0.00  0.00    +0.000 A 
ATOM      8  C   UNL     1       1.680   4.936  20.132  0.00  0.00    +0.000 A 
ATOM      9  C   UNL     1       2.352   6.135  19.926  0.00  0.00    +0.000 A 
ATOM     10  N   UNL     1       3.649   6.167  19.582  0.00  0.00    +0.000 NA
BRANCH   5  15
ATOM     11  N   UNL     1       6.172   5.033  17.716  0.00  0.00    +0.000 N 
ATOM     12  C   UNL     1       7.535   5.018  17.799  0.00  0.00    +0.000 A 
ATOM     13  N   UNL     1       7.913   5.127  19.048  0.00  0.00    +0.000 NA
ATOM     14  N   UNL     1       6.779   5.172  19.816  0.00  0.00    +0.000 NA
ATOM     15  C   UNL     1       5.720   5.102  19.023  0.00  0.00    +0.000 A 
BRANCH  11  17
ATOM     16  C   UNL     1       5.156   6.224  15.760  0.00  0.00    +0.000 C 
ATOM     17  C   UNL     1       5.385   4.899  16.496  0.00  0.00    +0.000 C 
ATOM     18  C   UNL     1       5.992   3.861  15.549  0.00  0.00    +0.000 C 
ENDBRANCH  11  17
ENDBRANCH   5  15
ENDBRANCH   1   9
BRANCH   2  19
ATOM     19  C   UNL     1       0.733   9.529  19.527  0.00  0.00    +0.000 C 
ATOM     20  C   UNL     1       0.177  10.168  18.239  0.00  0.00    +0.000 C 
ATOM     21  N   UNL     1      -0.732  11.279  18.584  0.00  0.00    +0.000 N 
ATOM     22  C   UNL     1      -0.152  12.270  19.499  0.00  0.00    +0.000 C 
ATOM     23  C   UNL     1       0.422  11.540  20.730  0.00  0.00    +0.000 C 
ATOM     24  O   UNL     1       1.372  10.515  20.368  0.00  0.00    +0.000 OA
BRANCH  21  25
ATOM     25  C   UNL     1      -2.033  11.366  18.136  0.00  0.00    +0.000 A 
ATOM     26  C   UNL     1      -3.085  11.779  18.961  0.00  0.00    +0.000 A 
ATOM     27  C   UNL     1      -4.390  11.892  18.472  0.00  0.00    +0.000 A 
ATOM     28  C   UNL     1      -4.628  11.577  17.149  0.00  0.00    +0.000 A 
ATOM     29  N   UNL     1      -3.665  11.164  16.304  0.00  0.00    +0.000 NA
ATOM     30  C   UNL     1      -2.412  11.068  16.821  0.00  0.00    +0.000 A 
ENDBRANCH  21  25
ENDBRANCH   2  19
TORSDOF 5
ENDMDL
MODEL 4
REMARK VINA RESULT:      -8.2      1.262      1.447
REMARK  Name = 
REMARK  7 active torsions:
REMARK  status: ('A' for Active; 'I' for Inactive)
REMARK    1  A    between atoms: C_1  and  C_2
REMARK    2  A    between atoms: C_2  and  C_3
REMARK    3  A    between atoms: C_2  and  N_4
REMARK    4  A    between atoms: C_8  and  C_9
REMARK    5  A    between atoms: C_13  and  N_14
REMARK    6  A    between atoms: C_15  and  C_17
REMARK    7  A    between atoms: N_19  and  C_20
REMARK                            x       y       z     vdW  Elec       q    Type
REMARK                         _______ _______ _______ _____ _____    ______ ____
ROOT
ATOM      1  N   UNL     1       1.877   7.902  19.816  0.00  0.00    +0.000 N 
ATOM      2  C   UNL     1       1.663   8.722  18.719  0.00  0.00    +0.000 C 
ATOM      3  O   UNL     1       1.956   8.476  17.552  0.00  0.00    +0.000 OA
ATOM      4  H   UNL     1       1.729   8.328  20.723  0.00  0.00    +0.000 HD
ENDROOT
BRANCH   1   9
ATOM      5  C   UNL     1       4.297   5.261  19.392  0.00  0.00    +0.000 A 
ATOM      6  C   UNL     1       3.581   4.120  19.712  0.00  0.00    +0.000 A 
ATOM      7  C   UNL     1       2.231   4.254  20.014  0.00  0.00    +0.000 A 
ATOM      8  C   UNL     1       1.647   5.520  20.017  0.00  0.00    +0.000 A 
ATOM      9  C   UNL     1       2.449   6.624  19.752  0.00  0.00    +0.000 A 
ATOM     10  N   UNL     1       3.744   6.494  19.422  0.00  0.00    +0.000 NA
BRANCH   5  15
ATOM     11  N   UNL     1       6.136   4.996  17.650  0.00  0.00    +0.000 N 
ATOM     12  C   UNL     1       7.488   4.830  17.749  0.00  0.00    +0.000 A 
ATOM     13  N   UNL     1       7.869   4.956  18.996  0.00  0.00    +0.000 NA
ATOM     14  N   UNL     1       6.743   5.165  19.748  0.00  0.00    +0.000 NA
ATOM     15  C   UNL     1       5.687   5.178  18.947  0.00  0.00    +0.000 A 
BRANCH  11  17
ATOM     16  C   UNL     1       5.102   6.238  15.736  0.00  0.00    +0.000 C 
ATOM     17  C   UNL     1       5.345   4.893  16.429  0.00  0.00    +0.000 C 
ATOM     18  C   UNL     1       5.959   3.891  15.448  0.00  0.00    +0.000 C 
ENDBRANCH  11  17
ENDBRANCH   5  15
ENDBRANCH   1   9
BRANCH   2  19
ATOM     19  C   UNL     1       0.931  10.023  19.086  0.00  0.00    +0.000 C 
ATOM     20  C   UNL     1      -0.165  10.307  18.039  0.00  0.00    +0.000 C 
ATOM     21  N   UNL     1      -0.863  11.564  18.376  0.00  0.00    +0.000 N 
ATOM     22  C   UNL     1       0.028  12.712  18.584  0.00  0.00    +0.000 C 
ATOM     23  C   UNL     1       1.118  12.322  19.603  0.00  0.00    +0.000 C 
ATOM     24  O   UNL     1       1.842  11.138  19.207  0.00  0.00    +0.000 OA
BRANCH  21  25
ATOM     25  C   UNL     1      -2.229  11.656  18.535  0.00  0.00    +0.000 A 
ATOM     26  C   UNL     1      -3.132  11.093  17.626  0.00  0.00    +0.000 A 
ATOM     27  C   UNL     1      -4.512  11.171  17.829  0.00  0.00    +0.000 A 
ATOM     28  C   UNL     1      -4.977  11.830  18.950  0.00  0.00    +0.000 A 
ATOM     29  N   UNL     1      -4.166  12.403  19.858  0.00  0.00    +0.000 NA
ATOM     30  C   UNL     1      -2.832  12.303  19.622  0.00  0.00    +0.000 A 
ENDBRANCH  21  25
ENDBRANCH   2  19
TORSDOF 5
ENDMDL
MODEL 5
REMARK VINA RESULT:      -8.1      1.940      3.516
REMARK  Name = 
REMARK  7 active torsions:
REMARK  status: ('A' for Active; 'I' for Inactive)
REMARK    1  A    between atoms: C_1  and  C_2
REMARK    2  A    between atoms: C_2  and  C_3
REMARK    3  A    between atoms: C_2  and  N_4
REMARK    4  A    between atoms: C_8  and  C_9
REMARK    5  A    between atoms: C_13  and  N_14
REMARK    6  A    between atoms: C_15  and  C_17
REMARK    7  A    between atoms: N_19  and  C_20
REMARK                            x       y       z     vdW  Elec       q    Type
REMARK                         _______ _______ _______ _____ _____    ______ ____
ROOT
ATOM      1  N   UNL     1       1.902   7.929  19.527  0.00  0.00    +0.000 N 
ATOM      2  C   UNL     1       1.868   8.718  18.387  0.00  0.00    +0.000 C 
ATOM      3  O   UNL     1       2.359   8.447  17.295  0.00  0.00    +0.000 OA
ATOM      4  H   UNL     1       1.596   8.375  20.384  0.00  0.00    +0.000 HD
ENDROOT
BRANCH   1   9
ATOM      5  C   UNL     1       4.358   5.293  19.371  0.00  0.00    +0.000 A 
ATOM      6  C   UNL     1       3.662   4.183  19.818  0.00  0.00    +0.000 A 
ATOM      7  C   UNL     1       2.312   4.329  20.114  0.00  0.00    +0.000 A 
ATOM      8  C   UNL     1       1.709   5.580  19.985  0.00  0.00    +0.000 A 
ATOM      9  C   UNL     1       2.492   6.660  19.597  0.00  0.00    +0.000 A 
ATOM     10  N   UNL     1       3.787   6.513  19.273  0.00  0.00    +0.000 NA
BRANCH   5  15
ATOM     11  N   UNL     1       6.192   4.977  17.632  0.00  0.00    +0.000 N 
ATOM     12  C   UNL     1       7.542   4.791  17.733  0.00  0.00    +0.000 A 
ATOM     13  N   UNL     1       7.924   4.925  18.978  0.00  0.00    +0.000 NA
ATOM     14  N   UNL     1       6.802   5.161  19.728  0.00  0.00    +0.000 NA
ATOM     15  C   UNL     1       5.747   5.182  18.927  0.00  0.00    +0.000 A 
BRANCH  11  17
ATOM     16  C   UNL     1       5.149   6.218  15.723  0.00  0.00    +0.000 C 
ATOM     17  C   UNL     1       5.400   4.873  16.413  0.00  0.00    +0.000 C 
ATOM     18  C   UNL     1       6.016   3.876  15.428  0.00  0.00    +0.000 C 
ENDBRANCH  11  17
ENDBRANCH   5  15
ENDBRANCH   1   9
BRANCH   2  19
ATOM     19  C   UNL     1       1.067  10.014  18.588  0.00  0.00    +0.000 C 
ATOM     20  C   UNL     1       1.119  10.423  20.074  0.00  0.00    +0.000 C 
ATOM     21  N   UNL     1       0.340  11.660  20.280  0.00  0.00    +0.000 N 
ATOM     22  C   UNL     1      -1.032  11.603  19.759  0.00  0.00    +0.000 C 
ATOM     23  C   UNL     1      -0.990  11.139  18.288  0.00  0.00    +0.000 C 
ATOM     24  O   UNL     1      -0.295   9.883  18.128  0.00  0.00    +0.000 OA
BRANCH  21  25
ATOM     25  C   UNL     1       0.856  12.798  20.862  0.00  0.00    +0.000 A 
ATOM     26  C   UNL     1       2.133  13.283  20.559  0.00  0.00    +0.000 A 
ATOM     27  C   UNL     1       2.620  14.458  21.137  0.00  0.00    +0.000 A 
ATOM     28  C   UNL     1       1.815  15.136  22.031  0.00  0.00    +0.000 A 
ATOM     29  N   UNL     1       0.583  14.719  22.376  0.00  0.00    +0.000 NA
ATOM     30  C   UNL     1       0.149  13.573  21.790  0.00  0.00    +0.000 A 
ENDBRANCH  21  25
ENDBRANCH   2  19
TORSDOF 5
ENDMDL
MODEL 6
REMARK VINA RESULT:      -8.0      1.533      3.054
REMARK  Name = 
REMARK  7 active torsions:
REMARK  status: ('A' for Active; 'I' for Inactive)
REMARK    1  A    between atoms: C_1  and  C_2
REMARK    2  A    between atoms: C_2  and  C_3
REMARK    3  A    between atoms: C_2  and  N_4
REMARK    4  A    between atoms: C_8  and  C_9
REMARK    5  A    between atoms: C_13  and  N_14
REMARK    6  A    between atoms: C_15  and  C_17
REMARK    7  A    between atoms: N_19  and  C_20
REMARK                            x       y       z     vdW  Elec       q    Type
REMARK                         _______ _______ _______ _____ _____    ______ ____
ROOT
ATOM      1  N   UNL     1       2.127   8.317  18.325  0.00  0.00    +0.000 N 
ATOM      2  C   UNL     1       1.583   8.419  19.596  0.00  0.00    +0.000 C 
ATOM      3  O   UNL     1       1.832   7.697  20.558  0.00  0.00    +0.000 OA
ATOM      4  H   UNL     1       1.688   8.884  17.608  0.00  0.00    +0.000 HD
ENDROOT
BRANCH   1   9
ATOM      5  C   UNL     1       4.045   5.266  18.186  0.00  0.00    +0.000 A 
ATOM      6  C   UNL     1       4.920   5.488  17.136  0.00  0.00    +0.000 A 
ATOM      7  C   UNL     1       4.894   6.729  16.510  0.00  0.00    +0.000 A 
ATOM      8  C   UNL     1       3.979   7.694  16.930  0.00  0.00    +0.000 A 
ATOM      9  C   UNL     1       3.087   7.370  17.945  0.00  0.00    +0.000 A 
ATOM     10  N   UNL     1       3.137   6.187  18.577  0.00  0.00    +0.000 NA
BRANCH   5  15
ATOM     11  N   UNL     1       3.032   3.300  19.449  0.00  0.00    +0.000 N 
ATOM     12  C   UNL     1       3.576   2.326  20.237  0.00  0.00    +0.000 A 
ATOM     13  N   UNL     1       4.883   2.400  20.208  0.00  0.00    +0.000 NA
ATOM     14  N   UNL     1       5.216   3.471  19.420  0.00  0.00    +0.000 NA
ATOM     15  C   UNL     1       4.104   4.031  18.966  0.00  0.00    +0.000 A 
BRANCH  11  17
ATOM     16  C   UNL     1       0.812   2.316  18.836  0.00  0.00    +0.000 C 
ATOM     17  C   UNL     1       1.609   3.555  19.258  0.00  0.00    +0.000 C 
ATOM     18  C   UNL     1       0.983   4.194  20.500  0.00  0.00    +0.000 C 
ENDBRANCH  11  17
ENDBRANCH   5  15
ENDBRANCH   1   9
BRANCH   2  19
ATOM     19  C   UNL     1       0.627   9.614  19.737  0.00  0.00    +0.000 C 
ATOM     20  C   UNL     1       0.137  10.047  18.341  0.00  0.00    +0.000 C 
ATOM     21  N   UNL     1      -0.770  11.205  18.467  0.00  0.00    +0.000 N 
ATOM     22  C   UNL     1      -0.217  12.323  19.241  0.00  0.00    +0.000 C 
ATOM     23  C   UNL     1       0.292  11.790  20.596  0.00  0.00    +0.000 C 
ATOM     24  O   UNL     1       1.242  10.715  20.442  0.00  0.00    +0.000 OA
BRANCH  21  25
ATOM     25  C   UNL     1      -2.048  11.230  17.951  0.00  0.00    +0.000 A 
ATOM     26  C   UNL     1      -2.358  10.720  16.685  0.00  0.00    +0.000 A 
ATOM     27  C   UNL     1      -3.668  10.726  16.200  0.00  0.00    +0.000 A 
ATOM     28  C   UNL     1      -4.664  11.258  16.995  0.00  0.00    +0.000 A 
ATOM     29  N   UNL     1      -4.434  11.775  18.217  0.00  0.00    +0.000 NA
ATOM     30  C   UNL     1      -3.146  11.748  18.649  0.00  0.00    +0.000 A 
ENDBRANCH  21  25
ENDBRANCH   2  19
TORSDOF 5
ENDMDL
MODEL 7
REMARK VINA RESULT:      -8.0      1.598      2.406
REMARK  Name = 
REMARK  7 active torsions:
REMARK  status: ('A' for Active; 'I' for Inactive)
REMARK    1  A    between atoms: C_1  and  C_2
REMARK    2  A    between atoms: C_2  and  C_3
REMARK    3  A    between atoms: C_2  and  N_4
REMARK    4  A    between atoms: C_8  and  C_9
REMARK    5  A    between atoms: C_13  and  N_14
REMARK    6  A    between atoms: C_15  and  C_17
REMARK    7  A    between atoms: N_19  and  C_20
REMARK                            x       y       z     vdW  Elec       q    Type
REMARK                         _______ _______ _______ _____ _____    ______ ____
ROOT
ATOM      1  N   UNL     1       2.251   6.163  20.393  0.00  0.00    +0.000 N 
ATOM      2  C   UNL     1       2.149   7.361  19.703  0.00  0.00    +0.000 C 
ATOM      3  O   UNL     1       2.709   7.647  18.648  0.00  0.00    +0.000 OA
ATOM      4  H   UNL     1       1.859   6.155  21.328  0.00  0.00    +0.000 HD
ENDROOT
BRANCH   1   9
ATOM      5  C   UNL     1       4.618   4.148  18.565  0.00  0.00    +0.000 A 
ATOM      6  C   UNL     1       4.537   2.916  19.190  0.00  0.00    +0.000 A 
ATOM      7  C   UNL     1       3.609   2.757  20.213  0.00  0.00    +0.000 A 
ATOM      8  C   UNL     1       2.815   3.838  20.596  0.00  0.00    +0.000 A 
ATOM      9  C   UNL     1       3.004   5.061  19.966  0.00  0.00    +0.000 A 
ATOM     10  N   UNL     1       3.873   5.206  18.952  0.00  0.00    +0.000 NA
BRANCH   5  15
ATOM     11  N   UNL     1       6.489   5.289  17.267  0.00  0.00    +0.000 N 
ATOM     12  C   UNL     1       6.910   5.194  15.971  0.00  0.00    +0.000 A 
ATOM     13  N   UNL     1       6.267   4.232  15.358  0.00  0.00    +0.000 NA
ATOM     14  N   UNL     1       5.369   3.707  16.249  0.00  0.00    +0.000 NA
ATOM     15  C   UNL     1       5.485   4.347  17.404  0.00  0.00    +0.000 A 
BRANCH  11  17
ATOM     16  C   UNL     1       7.890   5.675  19.308  0.00  0.00    +0.000 C 
ATOM     17  C   UNL     1       6.951   6.263  18.250  0.00  0.00    +0.000 C 
ATOM     18  C   UNL     1       7.600   7.475  17.575  0.00  0.00    +0.000 C 
ENDBRANCH  11  17
ENDBRANCH   5  15
ENDBRANCH   1   9
BRANCH   2  19
ATOM     19  C   UNL     1       1.176   8.346  20.368  0.00  0.00    +0.000 C 
ATOM     20  C   UNL     1       0.905   9.524  19.410  0.00  0.00    +0.000 C 
ATOM     21  N   UNL     1      -0.018  10.484  20.047  0.00  0.00    +0.000 N 
ATOM     22  C   UNL     1       0.401  10.930  21.381  0.00  0.00    +0.000 C 
ATOM     23  C   UNL     1       0.698   9.692  22.252  0.00  0.00    +0.000 C 
ATOM     24  O   UNL     1       1.668   8.812  21.644  0.00  0.00    +0.000 OA
BRANCH  21  25
ATOM     25  C   UNL     1      -1.202  10.897  19.473  0.00  0.00    +0.000 A 
ATOM     26  C   UNL     1      -1.734  10.292  18.329  0.00  0.00    +0.000 A 
ATOM     27  C   UNL     1      -2.953  10.707  17.788  0.00  0.00    +0.000 A 
ATOM     28  C   UNL     1      -3.628  11.744  18.401  0.00  0.00    +0.000 A 
ATOM     29  N   UNL     1      -3.169  12.377  19.496  0.00  0.00    +0.000 NA
ATOM     30  C   UNL     1      -1.980  11.941  19.989  0.00  0.00    +0.000 A 
ENDBRANCH  21  25
ENDBRANCH   2  19
TORSDOF 5
ENDMDL
MODEL 8
REMARK VINA RESULT:      -7.9      1.827      8.601
REMARK  Name = 
REMARK  7 active torsions:
REMARK  status: ('A' for Active; 'I' for Inactive)
REMARK    1  A    between atoms: C_1  and  C_2
REMARK    2  A    between atoms: C_2  and  C_3
REMARK    3  A    between atoms: C_2  and  N_4
REMARK    4  A    between atoms: C_8  and  C_9
REMARK    5  A    between atoms: C_13  and  N_14
REMARK    6  A    between atoms: C_15  and  C_17
REMARK    7  A    between atoms: N_19  and  C_20
REMARK                            x       y       z     vdW  Elec       q    Type
REMARK                         _______ _______ _______ _____ _____    ______ ____
ROOT
ATOM      1  N   UNL     1       1.556   7.741  21.028  0.00  0.00    +0.000 N 
ATOM      2  C   UNL     1       2.039   7.537  19.744  0.00  0.00    +0.000 C 
ATOM      3  O   UNL     1       1.891   8.283  18.780  0.00  0.00    +0.000 OA
ATOM      4  H   UNL     1       1.624   6.950  21.657  0.00  0.00    +0.000 HD
ENDROOT
BRANCH   1   9
ATOM      5  C   UNL     1      -0.121  10.933  20.946  0.00  0.00    +0.000 A 
ATOM      6  C   UNL     1      -0.659  11.042  22.217  0.00  0.00    +0.000 A 
ATOM      7  C   UNL     1      -0.386  10.034  23.135  0.00  0.00    +0.000 A 
ATOM      8  C   UNL     1       0.387   8.940  22.748  0.00  0.00    +0.000 A 
ATOM      9  C   UNL     1       0.833   8.870  21.434  0.00  0.00    +0.000 A 
ATOM     10  N   UNL     1       0.603   9.861  20.557  0.00  0.00    +0.000 NA
BRANCH   5  15
ATOM     11  N   UNL     1      -1.102  12.033  18.869  0.00  0.00    +0.000 N 
ATOM     12  C   UNL     1      -0.782  13.170  18.184  0.00  0.00    +0.000 A 
ATOM     13  N   UNL     1       0.137  13.843  18.831  0.00  0.00    +0.000 NA
ATOM     14  N   UNL     1       0.467  13.117  19.946  0.00  0.00    +0.000 NA
ATOM     15  C   UNL     1      -0.267  12.014  19.972  0.00  0.00    +0.000 A 
BRANCH  11  17
ATOM     16  C   UNL     1      -3.359  11.592  17.876  0.00  0.00    +0.000 C 
ATOM     17  C   UNL     1      -2.058  11.016  18.445  0.00  0.00    +0.000 C 
ATOM     18  C   UNL     1      -1.429  10.035  17.453  0.00  0.00    +0.000 C 
ENDBRANCH  11  17
ENDBRANCH   5  15
ENDBRANCH   1   9
BRANCH   2  19
ATOM     19  C   UNL     1       2.877   6.255  19.623  0.00  0.00    +0.000 C 
ATOM     20  C   UNL     1       3.047   5.893  18.134  0.00  0.00    +0.000 C 
ATOM     21  N   UNL     1       3.839   4.653  18.009  0.00  0.00    +0.000 N 
ATOM     22  C   UNL     1       3.331   3.530  18.807  0.00  0.00    +0.000 C 
ATOM     23  C   UNL     1       3.144   3.996  20.265  0.00  0.00    +0.000 C 
ATOM     24  O   UNL     1       2.297   5.160  20.366  0.00  0.00    +0.000 OA
BRANCH  21  25
ATOM     25  C   UNL     1       4.988   4.556  17.253  0.00  0.00    +0.000 A 
ATOM     26  C   UNL     1       4.966   4.227  15.893  0.00  0.00    +0.000 A 
ATOM     27  C   UNL     1       6.142   4.169  15.140  0.00  0.00    +0.000 A 
ATOM     28  C   UNL     1       7.342   4.436  15.770  0.00  0.00    +0.000 A 
ATOM     29  N   UNL     1       7.435   4.747  17.076  0.00  0.00    +0.000 NA
ATOM     30  C   UNL     1       6.268   4.793  17.770  0.00  0.00    +0.000 A 
ENDBRANCH  21  25
ENDBRANCH   2  19
TORSDOF 5
ENDMDL
MODEL 9
REMARK VINA RESULT:      -7.9      1.810      2.602
REMARK  Name = 
REMARK  7 active torsions:
REMARK  status: ('A' for Active; 'I' for Inactive)
REMARK    1  A    between atoms: C_1  and  C_2
REMARK    2  A    between atoms: C_2  and  C_3
REMARK    3  A    between atoms: C_2  and  N_4
REMARK    4  A    between atoms: C_8  and  C_9
REMARK    5  A    between atoms: C_13  and  N_14
REMARK    6  A    between atoms: C_15  and  C_17
REMARK    7  A    between atoms: N_19  and  C_20
REMARK                            x       y       z     vdW  Elec       q    Type
REMARK                         _______ _______ _______ _____ _____    ______ ____
ROOT
ATOM      1  N   UNL     1       1.894   7.853  19.549  0.00  0.00    +0.000 N 
ATOM      2  C   UNL     1       1.442   8.547  20.661  0.00  0.00    +0.000 C 
ATOM      3  O   UNL     1       1.463   8.157  21.825  0.00  0.00    +0.000 OA
ATOM      4  H   UNL     1       1.649   8.249  18.649  0.00  0.00    +0.000 HD
ENDROOT
BRANCH   1   9
ATOM      5  C   UNL     1       4.348   5.218  19.346  0.00  0.00    +0.000 A 
ATOM      6  C   UNL     1       3.647   4.098  19.759  0.00  0.00    +0.000 A 
ATOM      7  C   UNL     1       2.295   4.239  20.049  0.00  0.00    +0.000 A 
ATOM      8  C   UNL     1       1.695   5.493  19.946  0.00  0.00    +0.000 A 
ATOM      9  C   UNL     1       2.482   6.582  19.592  0.00  0.00    +0.000 A 
ATOM     10  N   UNL     1       3.779   6.441  19.274  0.00  0.00    +0.000 NA
BRANCH   5  15
ATOM     11  N   UNL     1       6.194   4.926  17.616  0.00  0.00    +0.000 N 
ATOM     12  C   UNL     1       7.544   4.743  17.723  0.00  0.00    +0.000 A 
ATOM     13  N   UNL     1       7.918   4.867  18.972  0.00  0.00    +0.000 NA
ATOM     14  N   UNL     1       6.790   5.092  19.717  0.00  0.00    +0.000 NA
ATOM     15  C   UNL     1       5.740   5.116  18.909  0.00  0.00    +0.000 A 
BRANCH  11  17
ATOM     16  C   UNL     1       5.182   6.178  15.697  0.00  0.00    +0.000 C 
ATOM     17  C   UNL     1       5.410   4.830  16.390  0.00  0.00    +0.000 C 
ATOM     18  C   UNL     1       6.021   3.824  15.412  0.00  0.00    +0.000 C 
ENDBRANCH  11  17
ENDBRANCH   5  15
ENDBRANCH   1   9
BRANCH   2  19
ATOM     19  C   UNL     1       0.935   9.955  20.314  0.00  0.00    +0.000 C 
ATOM     20  C   UNL     1      -0.594  10.012  20.509  0.00  0.00    +0.000 C 
ATOM     21  N   UNL     1      -1.093  11.358  20.164  0.00  0.00    +0.000 N 
ATOM     22  C   UNL     1      -0.677  11.833  18.838  0.00  0.00    +0.000 C 
ATOM     23  C   UNL     1       0.854  11.693  18.714  0.00  0.00    +0.000 C 
ATOM     24  O   UNL     1       1.306  10.347  18.974  0.00  0.00    +0.000 OA
BRANCH  21  25
ATOM     25  C   UNL     1      -1.843  12.135  21.020  0.00  0.00    +0.000 A 
ATOM     26  C   UNL     1      -1.826  11.954  22.408  0.00  0.00    +0.000 A 
ATOM     27  C   UNL     1      -2.569  12.778  23.257  0.00  0.00    +0.000 A 
ATOM     28  C   UNL     1      -3.336  13.781  22.698  0.00  0.00    +0.000 A 
ATOM     29  N   UNL     1      -3.407  14.003  21.372  0.00  0.00    +0.000 NA
ATOM     30  C   UNL     1      -2.669  13.178  20.583  0.00  0.00    +0.000 A 
ENDBRANCH  21  25
ENDBRANCH   2  19
TORSDOF 5
ENDMDL
