MODEL 1
REMARK VINA RESULT:      -7.4      0.000      0.000
REMARK  Name = 
REMARK  3 active torsions:
REMARK  status: ('A' for Active; 'I' for Inactive)
REMARK    1  A    between atoms: C_2  and  O_3
REMARK    2  A    between atoms: O_3  and  C_4
REMARK    3  A    between atoms: C_7  and  C_8
REMARK                            x       y       z     vdW  Elec       q    Type
REMARK                         _______ _______ _______ _____ _____    ______ ____
ROOT
ATOM      1  C   UNL     1       5.602   4.279  18.350  0.00  0.00    +0.000 A 
ATOM      2  C   UNL     1       6.913   4.532  17.966  0.00  0.00    +0.000 A 
ATOM      3  C   UNL     1       7.240   4.607  16.605  0.00  0.00    +0.000 A 
ATOM      4  C   UNL     1       6.272   4.414  15.598  0.00  0.00    +0.000 A 
ATOM      5  C   UNL     1       4.952   4.181  16.023  0.00  0.00    +0.000 A 
ATOM      6  C   UNL     1       4.615   4.106  17.383  0.00  0.00    +0.000 A 
ENDROOT
BRANCH   4   7
ATOM      7  C   UNL     1       6.639   4.413  14.157  0.00  0.00    +0.000 A 
ATOM      8  C   UNL     1       6.055   3.501  13.257  0.00  0.00    +0.000 A 
ATOM      9  C   UNL     1       6.383   3.495  11.896  0.00  0.00    +0.000 A 
ATOM     10  C   UNL     1       7.296   4.416  11.396  0.00  0.00    +0.000 A 
ATOM     11  C   UNL     1       7.881   5.339  12.258  0.00  0.00    +0.000 A 
ATOM     12  C   UNL     1       7.560   5.332  13.621  0.00  0.00    +0.000 A 
ENDBRANCH   4   7
BRANCH   1  13
ATOM     13  O   UNL     1       5.377   4.118  19.736  0.00  0.00    +0.000 OA
BRANCH  13  15
ATOM     14  O   UNL     1       4.916   1.925  20.349  0.00  0.00    +0.000 OA
ATOM     15  C   UNL     1       4.563   3.095  20.234  0.00  0.00    +0.000 C 
ATOM     16  N   UNL     1       3.297   3.530  20.581  0.00  0.00    +0.000 N 
ATOM     17  C   UNL     1       2.346   2.592  21.173  0.00  0.00    +0.000 C 
ATOM     18  C   UNL     1       1.025   2.629  20.404  0.00  0.00    +0.000 C 
ATOM     19  O   UNL     1       0.504   3.969  20.353  0.00  0.00    +0.000 OA
ATOM     20  C   UNL     1       1.427   4.853  19.693  0.00  0.00    +0.000 C 
ATOM     21  C   UNL     1       2.783   4.888  20.414  0.00  0.00    +0.000 C 
ENDBRANCH  13  15
ENDBRANCH   1  13
TORSDOF 3
ENDMDL
MODEL 2
REMARK VINA RESULT:      -7.4      3.843      8.441
REMARK  Name = 
REMARK  3 active torsions:
REMARK  status: ('A' for Active; 'I' for Inactive)
REMARK    1  A    between atoms: C_2  and  O_3
REMARK    2  A    between atoms: O_3  and  C_4
REMARK    3  A    between atoms: C_7  and  C_8
REMARK                            x       y       z     vdW  Elec       q    Type
REMARK                         _______ _______ _______ _____ _____    ______ ____
ROOT
ATOM      1  C   UNL     1       2.833   5.771  19.305  0.00  0.00    +0.000 A 
ATOM      2  C   UNL     1       2.128   5.558  20.483  0.00  0.00    +0.000 A 
ATOM      3  C   UNL     1       1.378   6.600  21.047  0.00  0.00    +0.000 A 
ATOM      4  C   UNL     1       1.329   7.880  20.458  0.00  0.00    +0.000 A 
ATOM      5  C   UNL     1       2.037   8.054  19.255  0.00  0.00    +0.000 A 
ATOM      6  C   UNL     1       2.788   7.016  18.683  0.00  0.00    +0.000 A 
ENDROOT
BRANCH   4   7
ATOM      7  C   UNL     1       0.599   9.004  21.102  0.00  0.00    +0.000 A 
ATOM      8  C   UNL     1       0.243  10.155  20.372  0.00  0.00    +0.000 A 
ATOM      9  C   UNL     1      -0.452  11.217  20.962  0.00  0.00    +0.000 A 
ATOM     10  C   UNL     1      -0.825  11.148  22.299  0.00  0.00    +0.000 A 
ATOM     11  C   UNL     1      -0.500  10.018  23.044  0.00  0.00    +0.000 A 
ATOM     12  C   UNL     1       0.208   8.964  22.453  0.00  0.00    +0.000 A 
ENDBRANCH   4   7
BRANCH   1  13
ATOM     13  O   UNL     1       3.643   4.701  18.860  0.00  0.00    +0.000 OA
BRANCH  13  15
ATOM     14  O   UNL     1       2.908   3.794  16.853  0.00  0.00    +0.000 OA
ATOM     15  C   UNL     1       3.764   4.387  17.503  0.00  0.00    +0.000 C 
ATOM     16  N   UNL     1       4.962   4.803  16.953  0.00  0.00    +0.000 N 
ATOM     17  C   UNL     1       5.216   4.601  15.530  0.00  0.00    +0.000 C 
ATOM     18  C   UNL     1       6.557   3.893  15.330  0.00  0.00    +0.000 C 
ATOM     19  O   UNL     1       7.617   4.623  15.970  0.00  0.00    +0.000 OA
ATOM     20  C   UNL     1       7.380   4.737  17.384  0.00  0.00    +0.000 C 
ATOM     21  C   UNL     1       6.054   5.454  17.675  0.00  0.00    +0.000 C 
ENDBRANCH  13  15
ENDBRANCH   1  13
TORSDOF 3
ENDMDL
MODEL 3
REMARK VINA RESULT:      -7.4      3.837      8.411
REMARK  Name = 
REMARK  3 active torsions:
REMARK  status: ('A' for Active; 'I' for Inactive)
REMARK    1  A    between atoms: C_2  and  O_3
REMARK    2  A    between atoms: O_3  and  C_4
REMARK    3  A    between atoms: C_7  and  C_8
REMARK                            x       y       z     vdW  Elec       q    Type
REMARK                         _______ _______ _______ _____ _____    ______ ____
ROOT
ATOM      1  C   UNL     1       2.857   5.779  19.308  0.00  0.00    +0.000 A 
ATOM      2  C   UNL     1       2.163   5.583  20.496  0.00  0.00    +0.000 A 
ATOM      3  C   UNL     1       1.405   6.629  21.042  0.00  0.00    +0.000 A 
ATOM      4  C   UNL     1       1.337   7.895  20.426  0.00  0.00    +0.000 A 
ATOM      5  C   UNL     1       2.034   8.051  19.214  0.00  0.00    +0.000 A 
ATOM      6  C   UNL     1       2.794   7.010  18.659  0.00  0.00    +0.000 A 
ENDROOT
BRANCH   4   7
ATOM      7  C   UNL     1       0.598   9.025  21.050  0.00  0.00    +0.000 A 
ATOM      8  C   UNL     1       0.202   8.978  22.401  0.00  0.00    +0.000 A 
ATOM      9  C   UNL     1      -0.486  10.037  23.004  0.00  0.00    +0.000 A 
ATOM     10  C   UNL     1      -0.782  11.182  22.273  0.00  0.00    +0.000 A 
ATOM     11  C   UNL     1      -0.393  11.264  20.940  0.00  0.00    +0.000 A 
ATOM     12  C   UNL     1       0.283  10.196  20.336  0.00  0.00    +0.000 A 
ENDBRANCH   4   7
BRANCH   1  13
ATOM     13  O   UNL     1       3.678   4.709  18.881  0.00  0.00    +0.000 OA
BRANCH  13  15
ATOM     14  O   UNL     1       3.013   3.842  16.832  0.00  0.00    +0.000 OA
ATOM     15  C   UNL     1       3.850   4.412  17.526  0.00  0.00    +0.000 C 
ATOM     16  N   UNL     1       5.077   4.818  17.033  0.00  0.00    +0.000 N 
ATOM     17  C   UNL     1       5.386   4.632  15.618  0.00  0.00    +0.000 C 
ATOM     18  C   UNL     1       6.723   3.906  15.464  0.00  0.00    +0.000 C 
ATOM     19  O   UNL     1       7.767   4.610  16.158  0.00  0.00    +0.000 OA
ATOM     20  C   UNL     1       7.473   4.707  17.563  0.00  0.00    +0.000 C 
ATOM     21  C   UNL     1       6.146   5.441  17.809  0.00  0.00    +0.000 C 
ENDBRANCH  13  15
ENDBRANCH   1  13
TORSDOF 3
ENDMDL
MODEL 4
REMARK VINA RESULT:      -7.3      4.322      8.419
REMARK  Name = 
REMARK  3 active torsions:
REMARK  status: ('A' for Active; 'I' for Inactive)
REMARK    1  A    between atoms: C_2  and  O_3
REMARK    2  A    between atoms: O_3  and  C_4
REMARK    3  A    between atoms: C_7  and  C_8
REMARK                            x       y       z     vdW  Elec       q    Type
REMARK                         _______ _______ _______ _____ _____    ______ ____
ROOT
ATOM      1  C   UNL     1       2.367   6.907  18.717  0.00  0.00    +0.000 A 
ATOM      2  C   UNL     1       2.036   8.152  18.196  0.00  0.00    +0.000 A 
ATOM      3  C   UNL     1       1.434   9.115  19.019  0.00  0.00    +0.000 A 
ATOM      4  C   UNL     1       1.134   8.852  20.371  0.00  0.00    +0.000 A 
ATOM      5  C   UNL     1       1.503   7.590  20.869  0.00  0.00    +0.000 A 
ATOM      6  C   UNL     1       2.108   6.620  20.054  0.00  0.00    +0.000 A 
ENDROOT
BRANCH   4   7
ATOM      7  C   UNL     1       0.422   9.846  21.217  0.00  0.00    +0.000 A 
ATOM      8  C   UNL     1       0.392  11.210  20.868  0.00  0.00    +0.000 A 
ATOM      9  C   UNL     1      -0.281  12.156  21.650  0.00  0.00    +0.000 A 
ATOM     10  C   UNL     1      -0.958  11.758  22.797  0.00  0.00    +0.000 A 
ATOM     11  C   UNL     1      -0.958  10.415  23.161  0.00  0.00    +0.000 A 
ATOM     12  C   UNL     1      -0.271   9.474  22.383  0.00  0.00    +0.000 A 
ENDBRANCH   4   7
BRANCH   1  13
ATOM     13  O   UNL     1       2.875   5.961  17.797  0.00  0.00    +0.000 OA
BRANCH  13  15
ATOM     14  O   UNL     1       1.148   4.491  17.296  0.00  0.00    +0.000 OA
ATOM     15  C   UNL     1       2.303   4.693  17.657  0.00  0.00    +0.000 C 
ATOM     16  N   UNL     1       3.173   3.667  17.980  0.00  0.00    +0.000 N 
ATOM     17  C   UNL     1       2.744   2.279  17.829  0.00  0.00    +0.000 C 
ATOM     18  C   UNL     1       2.990   1.510  19.128  0.00  0.00    +0.000 C 
ATOM     19  O   UNL     1       4.368   1.610  19.526  0.00  0.00    +0.000 OA
ATOM     20  C   UNL     1       4.739   2.983  19.745  0.00  0.00    +0.000 C 
ATOM     21  C   UNL     1       4.538   3.828  18.479  0.00  0.00    +0.000 C 
ENDBRANCH  13  15
ENDBRANCH   1  13
TORSDOF 3
ENDMDL
MODEL 5
REMARK VINA RESULT:      -7.3      4.202      8.616
REMARK  Name = 
REMARK  3 active torsions:
REMARK  status: ('A' for Active; 'I' for Inactive)
REMARK    1  A    between atoms: C_2  and  O_3
REMARK    2  A    between atoms: O_3  and  C_4
REMARK    3  A    between atoms: C_7  and  C_8
REMARK                            x       y       z     vdW  Elec       q    Type
REMARK                         _______ _______ _______ _____ _____    ______ ____
ROOT
ATOM      1  C   UNL     1       2.531   6.572  18.701  0.00  0.00    +0.000 A 
ATOM      2  C   UNL     1       2.312   7.850  18.201  0.00  0.00    +0.000 A 
ATOM      3  C   UNL     1       1.702   8.820  19.009  0.00  0.00    +0.000 A 
ATOM      4  C   UNL     1       1.282   8.533  20.323  0.00  0.00    +0.000 A 
ATOM      5  C   UNL     1       1.539   7.236  20.804  0.00  0.00    +0.000 A 
ATOM      6  C   UNL     1       2.151   6.259  20.003  0.00  0.00    +0.000 A 
ENDROOT
BRANCH   4   7
ATOM      7  C   UNL     1       0.563   9.541  21.147  0.00  0.00    +0.000 A 
ATOM      8  C   UNL     1       0.485  10.888  20.746  0.00  0.00    +0.000 A 
ATOM      9  C   UNL     1      -0.196  11.846  21.507  0.00  0.00    +0.000 A 
ATOM     10  C   UNL     1      -0.833  11.475  22.685  0.00  0.00    +0.000 A 
ATOM     11  C   UNL     1      -0.787  10.148  23.101  0.00  0.00    +0.000 A 
ATOM     12  C   UNL     1      -0.093   9.196  22.344  0.00  0.00    +0.000 A 
ENDBRANCH   4   7
BRANCH   1  13
ATOM     13  O   UNL     1       3.056   5.627  17.789  0.00  0.00    +0.000 OA
BRANCH  13  15
ATOM     14  O   UNL     1       4.099   3.832  18.831  0.00  0.00    +0.000 OA
ATOM     15  C   UNL     1       4.156   4.827  18.114  0.00  0.00    +0.000 C 
ATOM     16  N   UNL     1       5.338   5.275  17.553  0.00  0.00    +0.000 N 
ATOM     17  C   UNL     1       6.568   4.513  17.750  0.00  0.00    +0.000 C 
ATOM     18  C   UNL     1       7.674   5.428  18.275  0.00  0.00    +0.000 C 
ATOM     19  O   UNL     1       7.867   6.550  17.396  0.00  0.00    +0.000 OA
ATOM     20  C   UNL     1       6.661   7.326  17.285  0.00  0.00    +0.000 C 
ATOM     21  C   UNL     1       5.497   6.483  16.746  0.00  0.00    +0.000 C 
ENDBRANCH  13  15
ENDBRANCH   1  13
TORSDOF 3
ENDMDL
MODEL 6
REMARK VINA RESULT:      -7.3      3.651      8.179
REMARK  Name = 
REMARK  3 active torsions:
REMARK  status: ('A' for Active; 'I' for Inactive)
REMARK    1  A    between atoms: C_2  and  O_3
REMARK    2  A    between atoms: O_3  and  C_4
REMARK    3  A    between atoms: C_7  and  C_8
REMARK                            x       y       z     vdW  Elec       q    Type
REMARK                         _______ _______ _______ _____ _____    ______ ____
ROOT
ATOM      1  C   UNL     1       3.015   5.529  19.208  0.00  0.00    +0.000 A 
ATOM      2  C   UNL     1       2.309   5.369  20.393  0.00  0.00    +0.000 A 
ATOM      3  C   UNL     1       1.568   6.440  20.914  0.00  0.00    +0.000 A 
ATOM      4  C   UNL     1       1.529   7.695  20.274  0.00  0.00    +0.000 A 
ATOM      5  C   UNL     1       2.237   7.814  19.065  0.00  0.00    +0.000 A 
ATOM      6  C   UNL     1       2.980   6.748  18.535  0.00  0.00    +0.000 A 
ENDROOT
BRANCH   4   7
ATOM      7  C   UNL     1       0.808   8.850  20.872  0.00  0.00    +0.000 A 
ATOM      8  C   UNL     1       0.449   8.859  22.234  0.00  0.00    +0.000 A 
ATOM      9  C   UNL     1      -0.222   9.943  22.813  0.00  0.00    +0.000 A 
ATOM     10  C   UNL     1      -0.537  11.057  22.044  0.00  0.00    +0.000 A 
ATOM     11  C   UNL     1      -0.184  11.085  20.699  0.00  0.00    +0.000 A 
ATOM     12  C   UNL     1       0.475   9.993  20.121  0.00  0.00    +0.000 A 
ENDBRANCH   4   7
BRANCH   1  13
ATOM     13  O   UNL     1       3.817   4.436  18.807  0.00  0.00    +0.000 OA
BRANCH  13  15
ATOM     14  O   UNL     1       5.935   4.637  19.739  0.00  0.00    +0.000 OA
ATOM     15  C   UNL     1       5.212   4.530  18.754  0.00  0.00    +0.000 C 
ATOM     16  N   UNL     1       5.708   4.500  17.463  0.00  0.00    +0.000 N 
ATOM     17  C   UNL     1       7.152   4.529  17.242  0.00  0.00    +0.000 C 
ATOM     18  C   UNL     1       7.509   5.638  16.252  0.00  0.00    +0.000 C 
ATOM     19  O   UNL     1       6.776   5.480  15.025  0.00  0.00    +0.000 OA
ATOM     20  C   UNL     1       5.359   5.536  15.264  0.00  0.00    +0.000 C 
ATOM     21  C   UNL     1       4.910   4.440  16.240  0.00  0.00    +0.000 C 
ENDBRANCH  13  15
ENDBRANCH   1  13
TORSDOF 3
ENDMDL
MODEL 7
REMARK VINA RESULT:      -7.2      4.108      8.494
REMARK  Name = 
REMARK  3 active torsions:
REMARK  status: ('A' for Active; 'I' for Inactive)
REMARK    1  A    between atoms: C_2  and  O_3
REMARK    2  A    between atoms: O_3  and  C_4
REMARK    3  A    between atoms: C_7  and  C_8
REMARK                            x       y       z     vdW  Elec       q    Type
REMARK                         _______ _______ _______ _____ _____    ______ ____
ROOT
ATOM      1  C   UNL     1       2.537   6.383  18.725  0.00  0.00    +0.000 A 
ATOM      2  C   UNL     1       2.347   7.652  18.192  0.00  0.00    +0.000 A 
ATOM      3  C   UNL     1       1.740   8.651  18.966  0.00  0.00    +0.000 A 
ATOM      4  C   UNL     1       1.294   8.401  20.280  0.00  0.00    +0.000 A 
ATOM      5  C   UNL     1       1.522   7.113  20.795  0.00  0.00    +0.000 A 
ATOM      6  C   UNL     1       2.131   6.107  20.028  0.00  0.00    +0.000 A 
ENDROOT
BRANCH   4   7
ATOM      7  C   UNL     1       0.578   9.440  21.069  0.00  0.00    +0.000 A 
ATOM      8  C   UNL     1       0.002   9.137  22.318  0.00  0.00    +0.000 A 
ATOM      9  C   UNL     1      -0.667  10.106  23.075  0.00  0.00    +0.000 A 
ATOM     10  C   UNL     1      -0.763  11.411  22.608  0.00  0.00    +0.000 A 
ATOM     11  C   UNL     1      -0.192  11.745  21.384  0.00  0.00    +0.000 A 
ATOM     12  C   UNL     1       0.465  10.770  20.623  0.00  0.00    +0.000 A 
ENDBRANCH   4   7
BRANCH   1  13
ATOM     13  O   UNL     1       3.061   5.409  17.845  0.00  0.00    +0.000 OA
BRANCH  13  15
ATOM     14  O   UNL     1       4.193   3.680  18.906  0.00  0.00    +0.000 OA
ATOM     15  C   UNL     1       4.198   4.662  18.169  0.00  0.00    +0.000 C 
ATOM     16  N   UNL     1       5.352   5.148  17.583  0.00  0.00    +0.000 N 
ATOM     17  C   UNL     1       6.616   4.443  17.777  0.00  0.00    +0.000 C 
ATOM     18  C   UNL     1       7.690   5.415  18.270  0.00  0.00    +0.000 C 
ATOM     19  O   UNL     1       7.823   6.525  17.366  0.00  0.00    +0.000 OA
ATOM     20  C   UNL     1       6.584   7.248  17.257  0.00  0.00    +0.000 C 
ATOM     21  C   UNL     1       5.450   6.346  16.750  0.00  0.00    +0.000 C 
ENDBRANCH  13  15
ENDBRANCH   1  13
TORSDOF 3
ENDMDL
MODEL 8
REMARK VINA RESULT:      -7.2      3.675      8.208
REMARK  Name = 
REMARK  3 active torsions:
REMARK  status: ('A' for Active; 'I' for Inactive)
REMARK    1  A    between atoms: C_2  and  O_3
REMARK    2  A    between atoms: O_3  and  C_4
REMARK    3  A    between atoms: C_7  and  C_8
REMARK                            x       y       z     vdW  Elec       q    Type
REMARK                         _______ _______ _______ _____ _____    ______ ____
ROOT
ATOM      1  C   UNL     1       2.930   5.531  19.128  0.00  0.00    +0.000 A 
ATOM      2  C   UNL     1       2.243   5.362  20.324  0.00  0.00    +0.000 A 
ATOM      3  C   UNL     1       1.547   6.440  20.888  0.00  0.00    +0.000 A 
ATOM      4  C   UNL     1       1.536   7.713  20.282  0.00  0.00    +0.000 A 
ATOM      5  C   UNL     1       2.223   7.842  19.062  0.00  0.00    +0.000 A 
ATOM      6  C   UNL     1       2.921   6.768  18.489  0.00  0.00    +0.000 A 
ENDROOT
BRANCH   4   7
ATOM      7  C   UNL     1       0.865   8.874  20.925  0.00  0.00    +0.000 A 
ATOM      8  C   UNL     1       0.699  10.092  20.238  0.00  0.00    +0.000 A 
ATOM      9  C   UNL     1       0.062  11.190  20.827  0.00  0.00    +0.000 A 
ATOM     10  C   UNL     1      -0.444  11.092  22.118  0.00  0.00    +0.000 A 
ATOM     11  C   UNL     1      -0.308   9.898  22.818  0.00  0.00    +0.000 A 
ATOM     12  C   UNL     1       0.343   8.806  22.231  0.00  0.00    +0.000 A 
ENDBRANCH   4   7
BRANCH   1  13
ATOM     13  O   UNL     1       3.688   4.424  18.682  0.00  0.00    +0.000 OA
BRANCH  13  15
ATOM     14  O   UNL     1       5.797   4.473  19.654  0.00  0.00    +0.000 OA
ATOM     15  C   UNL     1       5.086   4.456  18.654  0.00  0.00    +0.000 C 
ATOM     16  N   UNL     1       5.603   4.477  17.371  0.00  0.00    +0.000 N 
ATOM     17  C   UNL     1       7.049   4.451  17.172  0.00  0.00    +0.000 C 
ATOM     18  C   UNL     1       7.474   5.597  16.253  0.00  0.00    +0.000 C 
ATOM     19  O   UNL     1       6.755   5.544  15.009  0.00  0.00    +0.000 OA
ATOM     20  C   UNL     1       5.338   5.652  15.231  0.00  0.00    +0.000 C 
ATOM     21  C   UNL     1       4.823   4.523  16.136  0.00  0.00    +0.000 C 
ENDBRANCH  13  15
ENDBRANCH   1  13
TORSDOF 3
ENDMDL
MODEL 9
REMARK VINA RESULT:      -7.1      4.840      8.633
REMARK  Name = 
REMARK  3 active torsions:
REMARK  status: ('A' for Active; 'I' for Inactive)
REMARK    1  A    between atoms: C_2  and  O_3
REMARK    2  A    between atoms: O_3  and  C_4
REMARK    3  A    between atoms: C_7  and  C_8
REMARK                            x       y       z     vdW  Elec       q    Type
REMARK                         _______ _______ _______ _____ _____    ______ ____
ROOT
ATOM      1  C   UNL     1       2.670   7.266  18.897  0.00  0.00    +0.000 A 
ATOM      2  C   UNL     1       2.064   7.468  20.130  0.00  0.00    +0.000 A 
ATOM      3  C   UNL     1       1.162   8.529  20.300  0.00  0.00    +0.000 A 
ATOM      4  C   UNL     1       0.859   9.418  19.249  0.00  0.00    +0.000 A 
ATOM      5  C   UNL     1       1.473   9.170  18.009  0.00  0.00    +0.000 A 
ATOM      6  C   UNL     1       2.375   8.110  17.829  0.00  0.00    +0.000 A 
ENDROOT
BRANCH   4   7
ATOM      7  C   UNL     1      -0.035  10.589  19.455  0.00  0.00    +0.000 A 
ATOM      8  C   UNL     1       0.343  11.656  20.293  0.00  0.00    +0.000 A 
ATOM      9  C   UNL     1      -0.484  12.768  20.490  0.00  0.00    +0.000 A 
ATOM     10  C   UNL     1      -1.708  12.849  19.838  0.00  0.00    +0.000 A 
ATOM     11  C   UNL     1      -2.104  11.818  18.992  0.00  0.00    +0.000 A 
ATOM     12  C   UNL     1      -1.280  10.700  18.809  0.00  0.00    +0.000 A 
ENDBRANCH   4   7
BRANCH   1  13
ATOM     13  O   UNL     1       3.641   6.240  18.839  0.00  0.00    +0.000 OA
BRANCH  13  15
ATOM     14  O   UNL     1       3.094   4.522  17.376  0.00  0.00    +0.000 OA
ATOM     15  C   UNL     1       3.819   5.460  17.692  0.00  0.00    +0.000 C 
ATOM     16  N   UNL     1       4.913   5.845  16.939  0.00  0.00    +0.000 N 
ATOM     17  C   UNL     1       5.199   5.166  15.678  0.00  0.00    +0.000 C 
ATOM     18  C   UNL     1       6.652   4.688  15.656  0.00  0.00    +0.000 C 
ATOM     19  O   UNL     1       7.551   5.785  15.897  0.00  0.00    +0.000 OA
ATOM     20  C   UNL     1       7.298   6.382  17.181  0.00  0.00    +0.000 C 
ATOM     21  C   UNL     1       5.858   6.906  17.282  0.00  0.00    +0.000 C 
ENDBRANCH  13  15
ENDBRANCH   1  13
TORSDOF 3
ENDMDL
