MODEL 1
REMARK VINA RESULT:      -7.6      0.000      0.000
REMARK  Name = 
REMARK  7 active torsions:
REMARK  status: ('A' for Active; 'I' for Inactive)
REMARK    1  A    between atoms: C_1  and  C_2
REMARK    2  A    between atoms: C_5  and  C_6
REMARK    3  A    between atoms: N_8  and  C_9
REMARK    4  A    between atoms: C_9  and  C_10
REMARK    5  A    between atoms: C_9  and  C_19
REMARK    6  A    between atoms: C_19  and  C_20
REMARK    7  A    between atoms: C_19  and  C_21
REMARK                            x       y       z     vdW  Elec       q    Type
REMARK                         _______ _______ _______ _____ _____    ______ ____
ROOT
ATOM      1  C   UNL     1       3.027   4.586  20.090  0.00  0.00    +0.000 C 
ENDROOT
BRANCH   1   2
ATOM      2  C   UNL     1       1.985   5.694  20.334  0.00  0.00    +0.000 C 
ATOM      3  O   UNL     1       0.842   5.417  20.701  0.00  0.00    +0.000 OA
ATOM      4  N   UNL     1       2.471   6.985  20.164  0.00  0.00    +0.000 N 
ATOM      5  C   UNL     1       1.632   8.087  20.348  0.00  0.00    +0.000 A 
ATOM      6  C   UNL     1       1.037   8.315  21.585  0.00  0.00    +0.000 A 
ATOM      7  C   UNL     1       0.184   9.407  21.724  0.00  0.00    +0.000 A 
ATOM      8  C   UNL     1      -0.074  10.209  20.621  0.00  0.00    +0.000 A 
ATOM      9  C   UNL     1       0.589   9.918  19.436  0.00  0.00    +0.000 A 
ATOM     10  N   UNL     1       1.473   8.903  19.290  0.00  0.00    +0.000 NA
ATOM     11  H   UNL     1       3.138   7.111  19.412  0.00  0.00    +0.000 HD
ENDBRANCH   1   2
BRANCH   1  14
ATOM     12  C   UNL     1       4.961   5.096  18.612  0.00  0.00    +0.000 C 
ATOM     13  O   UNL     1       5.700   5.241  19.596  0.00  0.00    +0.000 OA
ATOM     14  N   UNL     1       3.641   4.779  18.767  0.00  0.00    +0.000 N 
ATOM     15  H   UNL     1       3.027   4.706  17.956  0.00  0.00    +0.000 HD
BRANCH  12  20
ATOM     16  C   UNL     1       6.947   4.089  13.205  0.00  0.00    +0.000 C 
ATOM     17  C   UNL     1       6.423   4.037  14.639  0.00  0.00    +0.000 C 
ATOM     18  C   UNL     1       7.394   4.740  15.593  0.00  0.00    +0.000 C 
ATOM     19  C   UNL     1       6.876   4.715  17.026  0.00  0.00    +0.000 C 
ATOM     20  C   UNL     1       5.455   5.291  17.176  0.00  0.00    +0.000 C 
ATOM     21  C   UNL     1       4.494   4.638  16.171  0.00  0.00    +0.000 C 
ATOM     22  C   UNL     1       5.028   4.667  14.741  0.00  0.00    +0.000 C 
ENDBRANCH  12  20
ENDBRANCH   1  14
BRANCH   1  23
ATOM     23  C   UNL     1       2.389   3.179  20.236  0.00  0.00    +0.000 C 
ATOM     24  C   UNL     1       2.929   2.174  19.211  0.00  0.00    +0.000 C 
ATOM     25  C   UNL     1       2.587   2.590  21.640  0.00  0.00    +0.000 C 
ENDBRANCH   1  23
TORSDOF 4
ENDMDL
MODEL 2
REMARK VINA RESULT:      -7.5      2.203      7.835
REMARK  Name = 
REMARK  7 active torsions:
REMARK  status: ('A' for Active; 'I' for Inactive)
REMARK    1  A    between atoms: C_1  and  C_2
REMARK    2  A    between atoms: C_5  and  C_6
REMARK    3  A    between atoms: N_8  and  C_9
REMARK    4  A    between atoms: C_9  and  C_10
REMARK    5  A    between atoms: C_9  and  C_19
REMARK    6  A    between atoms: C_19  and  C_20
REMARK    7  A    between atoms: C_19  and  C_21
REMARK                            x       y       z     vdW  Elec       q    Type
REMARK                         _______ _______ _______ _____ _____    ______ ____
ROOT
ATOM      1  C   UNL     1       4.453   5.090  17.436  0.00  0.00    +0.000 C 
ENDROOT
BRANCH   1   2
ATOM      2  C   UNL     1       5.098   5.325  16.057  0.00  0.00    +0.000 C 
ATOM      3  O   UNL     1       5.114   6.449  15.551  0.00  0.00    +0.000 OA
ATOM      4  N   UNL     1       5.688   4.197  15.500  0.00  0.00    +0.000 N 
ATOM      5  C   UNL     1       6.305   4.266  14.248  0.00  0.00    +0.000 A 
ATOM      6  C   UNL     1       7.390   5.114  14.048  0.00  0.00    +0.000 A 
ATOM      7  C   UNL     1       7.962   5.178  12.781  0.00  0.00    +0.000 A 
ATOM      8  C   UNL     1       7.413   4.426  11.751  0.00  0.00    +0.000 A 
ATOM      9  C   UNL     1       6.347   3.588  12.055  0.00  0.00    +0.000 A 
ATOM     10  N   UNL     1       5.813   3.456  13.293  0.00  0.00    +0.000 NA
ATOM     11  H   UNL     1       5.205   3.321  15.661  0.00  0.00    +0.000 HD
ENDBRANCH   1   2
BRANCH   1  14
ATOM     12  C   UNL     1       2.754   6.505  18.575  0.00  0.00    +0.000 C 
ATOM     13  O   UNL     1       1.990   5.536  18.681  0.00  0.00    +0.000 OA
ATOM     14  N   UNL     1       3.976   6.372  17.976  0.00  0.00    +0.000 N 
ATOM     15  H   UNL     1       4.581   7.183  17.849  0.00  0.00    +0.000 HD
BRANCH  12  20
ATOM     16  C   UNL     1      -0.290  11.256  20.107  0.00  0.00    +0.000 C 
ATOM     17  C   UNL     1       0.221   9.888  19.658  0.00  0.00    +0.000 C 
ATOM     18  C   UNL     1       1.093  10.021  18.407  0.00  0.00    +0.000 C 
ATOM     19  C   UNL     1       1.628   8.667  17.958  0.00  0.00    +0.000 C 
ATOM     20  C   UNL     1       2.381   7.906  19.066  0.00  0.00    +0.000 C 
ATOM     21  C   UNL     1       1.536   7.832  20.347  0.00  0.00    +0.000 C 
ATOM     22  C   UNL     1       1.004   9.196  20.781  0.00  0.00    +0.000 C 
ENDBRANCH  12  20
ENDBRANCH   1  14
BRANCH   1  23
ATOM     23  C   UNL     1       5.444   4.385  18.401  0.00  0.00    +0.000 C 
ATOM     24  C   UNL     1       6.273   5.376  19.228  0.00  0.00    +0.000 C 
ATOM     25  C   UNL     1       4.736   3.425  19.368  0.00  0.00    +0.000 C 
ENDBRANCH   1  23
TORSDOF 4
ENDMDL
MODEL 3
REMARK VINA RESULT:      -7.3      2.406      7.964
REMARK  Name = 
REMARK  7 active torsions:
REMARK  status: ('A' for Active; 'I' for Inactive)
REMARK    1  A    between atoms: C_1  and  C_2
REMARK    2  A    between atoms: C_5  and  C_6
REMARK    3  A    between atoms: N_8  and  C_9
REMARK    4  A    between atoms: C_9  and  C_10
REMARK    5  A    between atoms: C_9  and  C_19
REMARK    6  A    between atoms: C_19  and  C_20
REMARK    7  A    between atoms: C_19  and  C_21
REMARK                            x       y       z     vdW  Elec       q    Type
REMARK                         _______ _______ _______ _____ _____    ______ ____
ROOT
ATOM      1  C   UNL     1       5.545   5.903  17.584  0.00  0.00    +0.000 C 
ENDROOT
BRANCH   1   2
ATOM      2  C   UNL     1       5.787   5.843  16.064  0.00  0.00    +0.000 C 
ATOM      3  O   UNL     1       5.515   6.804  15.342  0.00  0.00    +0.000 OA
ATOM      4  N   UNL     1       6.376   4.664  15.623  0.00  0.00    +0.000 N 
ATOM      5  C   UNL     1       6.647   4.472  14.266  0.00  0.00    +0.000 A 
ATOM      6  C   UNL     1       7.515   5.330  13.597  0.00  0.00    +0.000 A 
ATOM      7  C   UNL     1       7.740   5.126  12.238  0.00  0.00    +0.000 A 
ATOM      8  C   UNL     1       7.067   4.101  11.587  0.00  0.00    +0.000 A 
ATOM      9  C   UNL     1       6.242   3.280  12.345  0.00  0.00    +0.000 A 
ATOM     10  N   UNL     1       6.056   3.415  13.680  0.00  0.00    +0.000 NA
ATOM     11  H   UNL     1       6.080   3.818  16.096  0.00  0.00    +0.000 HD
ENDBRANCH   1   2
BRANCH   1  14
ATOM     12  C   UNL     1       3.242   6.246  18.459  0.00  0.00    +0.000 C 
ATOM     13  O   UNL     1       3.173   5.056  18.796  0.00  0.00    +0.000 OA
ATOM     14  N   UNL     1       4.366   6.739  17.857  0.00  0.00    +0.000 N 
ATOM     15  H   UNL     1       4.401   7.707  17.539  0.00  0.00    +0.000 HD
BRANCH  12  20
ATOM     16  C   UNL     1       0.130  11.019  19.767  0.00  0.00    +0.000 C 
ATOM     17  C   UNL     1       1.190   9.951  19.505  0.00  0.00    +0.000 C 
ATOM     18  C   UNL     1       0.958   8.729  20.399  0.00  0.00    +0.000 C 
ATOM     19  C   UNL     1       1.995   7.645  20.135  0.00  0.00    +0.000 C 
ATOM     20  C   UNL     1       2.084   7.226  18.655  0.00  0.00    +0.000 C 
ATOM     21  C   UNL     1       2.246   8.457  17.750  0.00  0.00    +0.000 C 
ATOM     22  C   UNL     1       1.202   9.535  18.029  0.00  0.00    +0.000 C 
ENDBRANCH  12  20
ENDBRANCH   1  14
BRANCH   1  23
ATOM     23  C   UNL     1       6.807   6.414  18.329  0.00  0.00    +0.000 C 
ATOM     24  C   UNL     1       7.781   5.285  18.690  0.00  0.00    +0.000 C 
ATOM     25  C   UNL     1       7.574   7.473  17.523  0.00  0.00    +0.000 C 
ENDBRANCH   1  23
TORSDOF 4
ENDMDL
MODEL 4
REMARK VINA RESULT:      -7.3      0.857      1.440
REMARK  Name = 
REMARK  7 active torsions:
REMARK  status: ('A' for Active; 'I' for Inactive)
REMARK    1  A    between atoms: C_1  and  C_2
REMARK    2  A    between atoms: C_5  and  C_6
REMARK    3  A    between atoms: N_8  and  C_9
REMARK    4  A    between atoms: C_9  and  C_10
REMARK    5  A    between atoms: C_9  and  C_19
REMARK    6  A    between atoms: C_19  and  C_20
REMARK    7  A    between atoms: C_19  and  C_21
REMARK                            x       y       z     vdW  Elec       q    Type
REMARK                         _______ _______ _______ _____ _____    ______ ____
ROOT
ATOM      1  C   UNL     1       2.853   4.210  20.270  0.00  0.00    +0.000 C 
ENDROOT
BRANCH   1   2
ATOM      2  C   UNL     1       2.020   5.491  20.076  0.00  0.00    +0.000 C 
ATOM      3  O   UNL     1       0.812   5.502  20.321  0.00  0.00    +0.000 OA
ATOM      4  N   UNL     1       2.756   6.598  19.674  0.00  0.00    +0.000 N 
ATOM      5  C   UNL     1       2.127   7.826  19.455  0.00  0.00    +0.000 A 
ATOM      6  C   UNL     1       1.456   8.464  20.494  0.00  0.00    +0.000 A 
ATOM      7  C   UNL     1       0.816   9.672  20.233  0.00  0.00    +0.000 A 
ATOM      8  C   UNL     1       0.835  10.183  18.942  0.00  0.00    +0.000 A 
ATOM      9  C   UNL     1       1.554   9.488  17.978  0.00  0.00    +0.000 A 
ATOM     10  N   UNL     1       2.240   8.346  18.220  0.00  0.00    +0.000 NA
ATOM     11  H   UNL     1       3.512   6.415  19.025  0.00  0.00    +0.000 HD
ENDBRANCH   1   2
BRANCH   1  14
ATOM     12  C   UNL     1       4.933   4.413  18.922  0.00  0.00    +0.000 C 
ATOM     13  O   UNL     1       5.476   5.066  19.824  0.00  0.00    +0.000 OA
ATOM     14  N   UNL     1       3.651   3.961  19.059  0.00  0.00    +0.000 N 
ATOM     15  H   UNL     1       3.193   3.464  18.296  0.00  0.00    +0.000 HD
BRANCH  12  20
ATOM     16  C   UNL     1       7.143   4.886  13.530  0.00  0.00    +0.000 C 
ATOM     17  C   UNL     1       6.494   5.067  14.900  0.00  0.00    +0.000 C 
ATOM     18  C   UNL     1       5.292   4.130  15.056  0.00  0.00    +0.000 C 
ATOM     19  C   UNL     1       4.645   4.283  16.427  0.00  0.00    +0.000 C 
ATOM     20  C   UNL     1       5.632   4.101  17.597  0.00  0.00    +0.000 C 
ATOM     21  C   UNL     1       6.872   4.988  17.406  0.00  0.00    +0.000 C 
ATOM     22  C   UNL     1       7.506   4.825  16.027  0.00  0.00    +0.000 C 
ENDBRANCH  12  20
ENDBRANCH   1  14
BRANCH   1  23
ATOM     23  C   UNL     1       1.944   3.003  20.627  0.00  0.00    +0.000 C 
ATOM     24  C   UNL     1       1.809   2.001  19.473  0.00  0.00    +0.000 C 
ATOM     25  C   UNL     1       2.438   2.245  21.867  0.00  0.00    +0.000 C 
ENDBRANCH   1  23
TORSDOF 4
ENDMDL
MODEL 5
REMARK VINA RESULT:      -7.2      2.463      7.711
REMARK  Name = 
REMARK  7 active torsions:
REMARK  status: ('A' for Active; 'I' for Inactive)
REMARK    1  A    between atoms: C_1  and  C_2
REMARK    2  A    between atoms: C_5  and  C_6
REMARK    3  A    between atoms: N_8  and  C_9
REMARK    4  A    between atoms: C_9  and  C_10
REMARK    5  A    between atoms: C_9  and  C_19
REMARK    6  A    between atoms: C_19  and  C_20
REMARK    7  A    between atoms: C_19  and  C_21
REMARK                            x       y       z     vdW  Elec       q    Type
REMARK                         _______ _______ _______ _____ _____    ______ ____
ROOT
ATOM      1  C   UNL     1       6.103   5.309  17.800  0.00  0.00    +0.000 C 
ENDROOT
BRANCH   1   2
ATOM      2  C   UNL     1       6.166   4.536  16.470  0.00  0.00    +0.000 C 
ATOM      3  O   UNL     1       6.073   3.307  16.449  0.00  0.00    +0.000 OA
ATOM      4  N   UNL     1       6.270   5.341  15.342  0.00  0.00    +0.000 N 
ATOM      5  C   UNL     1       6.342   4.771  14.068  0.00  0.00    +0.000 A 
ATOM      6  C   UNL     1       5.296   3.986  13.593  0.00  0.00    +0.000 A 
ATOM      7  C   UNL     1       5.414   3.411  12.331  0.00  0.00    +0.000 A 
ATOM      8  C   UNL     1       6.580   3.606  11.604  0.00  0.00    +0.000 A 
ATOM      9  C   UNL     1       7.557   4.428  12.151  0.00  0.00    +0.000 A 
ATOM     10  N   UNL     1       7.441   5.053  13.347  0.00  0.00    +0.000 NA
ATOM     11  H   UNL     1       6.844   6.170  15.442  0.00  0.00    +0.000 HD
ENDBRANCH   1   2
BRANCH   1  14
ATOM     12  C   UNL     1       3.905   5.928  18.786  0.00  0.00    +0.000 C 
ATOM     13  O   UNL     1       4.029   5.056  19.657  0.00  0.00    +0.000 OA
ATOM     14  N   UNL     1       4.873   6.114  17.838  0.00  0.00    +0.000 N 
ATOM     15  H   UNL     1       4.744   6.801  17.095  0.00  0.00    +0.000 HD
BRANCH  12  20
ATOM     16  C   UNL     1       0.272  10.495  19.145  0.00  0.00    +0.000 C 
ATOM     17  C   UNL     1       1.434   9.504  19.167  0.00  0.00    +0.000 C 
ATOM     18  C   UNL     1       1.109   8.311  20.071  0.00  0.00    +0.000 C 
ATOM     19  C   UNL     1       2.250   7.302  20.089  0.00  0.00    +0.000 C 
ATOM     20  C   UNL     1       2.667   6.821  18.685  0.00  0.00    +0.000 C 
ATOM     21  C   UNL     1       2.925   8.016  17.755  0.00  0.00    +0.000 C 
ATOM     22  C   UNL     1       1.775   9.020  17.752  0.00  0.00    +0.000 C 
ENDBRANCH  12  20
ENDBRANCH   1  14
BRANCH   1  23
ATOM     23  C   UNL     1       7.374   6.179  17.998  0.00  0.00    +0.000 C 
ATOM     24  C   UNL     1       7.130   7.663  17.694  0.00  0.00    +0.000 C 
ATOM     25  C   UNL     1       7.944   6.066  19.420  0.00  0.00    +0.000 C 
ENDBRANCH   1  23
TORSDOF 4
ENDMDL
MODEL 6
REMARK VINA RESULT:      -7.2      1.433      2.009
REMARK  Name = 
REMARK  7 active torsions:
REMARK  status: ('A' for Active; 'I' for Inactive)
REMARK    1  A    between atoms: C_1  and  C_2
REMARK    2  A    between atoms: C_5  and  C_6
REMARK    3  A    between atoms: N_8  and  C_9
REMARK    4  A    between atoms: C_9  and  C_10
REMARK    5  A    between atoms: C_9  and  C_19
REMARK    6  A    between atoms: C_19  and  C_20
REMARK    7  A    between atoms: C_19  and  C_21
REMARK                            x       y       z     vdW  Elec       q    Type
REMARK                         _______ _______ _______ _____ _____    ______ ____
ROOT
ATOM      1  C   UNL     1       2.986   5.876  19.723  0.00  0.00    +0.000 C 
ENDROOT
BRANCH   1   2
ATOM      2  C   UNL     1       2.500   7.292  19.359  0.00  0.00    +0.000 C 
ATOM      3  O   UNL     1       2.884   7.846  18.327  0.00  0.00    +0.000 OA
ATOM      4  N   UNL     1       1.577   7.827  20.248  0.00  0.00    +0.000 N 
ATOM      5  C   UNL     1       1.056   9.107  20.044  0.00  0.00    +0.000 A 
ATOM      6  C   UNL     1       0.332   9.392  18.890  0.00  0.00    +0.000 A 
ATOM      7  C   UNL     1      -0.148  10.686  18.706  0.00  0.00    +0.000 A 
ATOM      8  C   UNL     1       0.140  11.657  19.655  0.00  0.00    +0.000 A 
ATOM      9  C   UNL     1       0.846  11.270  20.787  0.00  0.00    +0.000 A 
ATOM     10  N   UNL     1       1.267  10.004  21.023  0.00  0.00    +0.000 NA
ATOM     11  H   UNL     1       1.725   7.607  21.226  0.00  0.00    +0.000 HD
ENDBRANCH   1   2
BRANCH   1  14
ATOM     12  C   UNL     1       5.105   5.086  18.686  0.00  0.00    +0.000 C 
ATOM     13  O   UNL     1       5.729   5.337  19.726  0.00  0.00    +0.000 OA
ATOM     14  N   UNL     1       3.761   5.324  18.601  0.00  0.00    +0.000 N 
ATOM     15  H   UNL     1       3.261   5.160  17.728  0.00  0.00    +0.000 HD
BRANCH  12  20
ATOM     16  C   UNL     1       6.856   4.339  13.158  0.00  0.00    +0.000 C 
ATOM     17  C   UNL     1       6.257   4.792  14.488  0.00  0.00    +0.000 C 
ATOM     18  C   UNL     1       5.311   3.724  15.045  0.00  0.00    +0.000 C 
ATOM     19  C   UNL     1       4.720   4.152  16.383  0.00  0.00    +0.000 C 
ATOM     20  C   UNL     1       5.784   4.535  17.430  0.00  0.00    +0.000 C 
ATOM     21  C   UNL     1       6.777   5.553  16.851  0.00  0.00    +0.000 C 
ATOM     22  C   UNL     1       7.357   5.112  15.509  0.00  0.00    +0.000 C 
ENDBRANCH  12  20
ENDBRANCH   1  14
BRANCH   1  23
ATOM     23  C   UNL     1       1.795   4.961  20.113  0.00  0.00    +0.000 C 
ATOM     24  C   UNL     1       1.354   4.041  18.968  0.00  0.00    +0.000 C 
ATOM     25  C   UNL     1       2.103   4.091  21.340  0.00  0.00    +0.000 C 
ENDBRANCH   1  23
TORSDOF 4
ENDMDL
MODEL 7
REMARK VINA RESULT:      -7.2      3.179      4.754
REMARK  Name = 
REMARK  7 active torsions:
REMARK  status: ('A' for Active; 'I' for Inactive)
REMARK    1  A    between atoms: C_1  and  C_2
REMARK    2  A    between atoms: C_5  and  C_6
REMARK    3  A    between atoms: N_8  and  C_9
REMARK    4  A    between atoms: C_9  and  C_10
REMARK    5  A    between atoms: C_9  and  C_19
REMARK    6  A    between atoms: C_19  and  C_20
REMARK    7  A    between atoms: C_19  and  C_21
REMARK                            x       y       z     vdW  Elec       q    Type
REMARK                         _______ _______ _______ _____ _____    ______ ____
ROOT
ATOM      1  C   UNL     1       5.775   5.546  17.680  0.00  0.00    +0.000 C 
ENDROOT
BRANCH   1   2
ATOM      2  C   UNL     1       4.790   4.660  18.465  0.00  0.00    +0.000 C 
ATOM      3  O   UNL     1       5.191   3.895  19.344  0.00  0.00    +0.000 OA
ATOM      4  N   UNL     1       3.455   4.853  18.132  0.00  0.00    +0.000 N 
ATOM      5  C   UNL     1       2.453   4.111  18.762  0.00  0.00    +0.000 A 
ATOM      6  C   UNL     1       2.277   4.202  20.140  0.00  0.00    +0.000 A 
ATOM      7  C   UNL     1       1.288   3.426  20.738  0.00  0.00    +0.000 A 
ATOM      8  C   UNL     1       0.536   2.563  19.952  0.00  0.00    +0.000 A 
ATOM      9  C   UNL     1       0.767   2.563  18.583  0.00  0.00    +0.000 A 
ATOM     10  N   UNL     1       1.677   3.355  17.966  0.00  0.00    +0.000 NA
ATOM     11  H   UNL     1       3.265   5.032  17.153  0.00  0.00    +0.000 HD
ENDBRANCH   1   2
BRANCH   1  14
ATOM     12  C   UNL     1       5.588   5.828  15.216  0.00  0.00    +0.000 C 
ATOM     13  O   UNL     1       5.206   6.998  15.359  0.00  0.00    +0.000 OA
ATOM     14  N   UNL     1       5.884   5.049  16.299  0.00  0.00    +0.000 N 
ATOM     15  H   UNL     1       6.153   4.073  16.178  0.00  0.00    +0.000 HD
BRANCH  12  20
ATOM     16  C   UNL     1       6.970   2.113  10.917  0.00  0.00    +0.000 C 
ATOM     17  C   UNL     1       6.746   2.869  12.226  0.00  0.00    +0.000 C 
ATOM     18  C   UNL     1       7.441   4.233  12.186  0.00  0.00    +0.000 C 
ATOM     19  C   UNL     1       7.211   5.009  13.477  0.00  0.00    +0.000 C 
ATOM     20  C   UNL     1       5.722   5.168  13.841  0.00  0.00    +0.000 C 
ATOM     21  C   UNL     1       5.006   3.809  13.812  0.00  0.00    +0.000 C 
ATOM     22  C   UNL     1       5.250   3.043  12.514  0.00  0.00    +0.000 C 
ENDBRANCH  12  20
ENDBRANCH   1  14
BRANCH   1  23
ATOM     23  C   UNL     1       7.156   5.607  18.387  0.00  0.00    +0.000 C 
ATOM     24  C   UNL     1       8.115   4.510  17.908  0.00  0.00    +0.000 C 
ATOM     25  C   UNL     1       7.848   6.965  18.205  0.00  0.00    +0.000 C 
ENDBRANCH   1  23
TORSDOF 4
ENDMDL
MODEL 8
REMARK VINA RESULT:      -7.1      2.489      7.904
REMARK  Name = 
REMARK  7 active torsions:
REMARK  status: ('A' for Active; 'I' for Inactive)
REMARK    1  A    between atoms: C_1  and  C_2
REMARK    2  A    between atoms: C_5  and  C_6
REMARK    3  A    between atoms: N_8  and  C_9
REMARK    4  A    between atoms: C_9  and  C_10
REMARK    5  A    between atoms: C_9  and  C_19
REMARK    6  A    between atoms: C_19  and  C_20
REMARK    7  A    between atoms: C_19  and  C_21
REMARK                            x       y       z     vdW  Elec       q    Type
REMARK                         _______ _______ _______ _____ _____    ______ ____
ROOT
ATOM      1  C   UNL     1       6.161   5.326  17.537  0.00  0.00    +0.000 C 
ENDROOT
BRANCH   1   2
ATOM      2  C   UNL     1       6.188   5.392  15.998  0.00  0.00    +0.000 C 
ATOM      3  O   UNL     1       5.848   6.417  15.405  0.00  0.00    +0.000 OA
ATOM      4  N   UNL     1       6.673   4.245  15.383  0.00  0.00    +0.000 N 
ATOM      5  C   UNL     1       6.747   4.165  13.990  0.00  0.00    +0.000 A 
ATOM      6  C   UNL     1       7.540   5.061  13.279  0.00  0.00    +0.000 A 
ATOM      7  C   UNL     1       7.567   4.970  11.890  0.00  0.00    +0.000 A 
ATOM      8  C   UNL     1       6.779   4.018  11.258  0.00  0.00    +0.000 A 
ATOM      9  C   UNL     1       6.042   3.151  12.054  0.00  0.00    +0.000 A 
ATOM     10  N   UNL     1       6.048   3.174  13.409  0.00  0.00    +0.000 NA
ATOM     11  H   UNL     1       6.420   3.367  15.821  0.00  0.00    +0.000 HD
ENDBRANCH   1   2
BRANCH   1  14
ATOM     12  C   UNL     1       3.716   5.451  17.971  0.00  0.00    +0.000 C 
ATOM     13  O   UNL     1       3.552   4.325  17.480  0.00  0.00    +0.000 OA
ATOM     14  N   UNL     1       4.960   6.014  18.033  0.00  0.00    +0.000 N 
ATOM     15  H   UNL     1       5.083   6.959  18.396  0.00  0.00    +0.000 HD
BRANCH  12  20
ATOM     16  C   UNL     1       0.584   9.406  20.927  0.00  0.00    +0.000 C 
ATOM     17  C   UNL     1       1.648   8.506  20.300  0.00  0.00    +0.000 C 
ATOM     18  C   UNL     1       1.397   7.040  20.664  0.00  0.00    +0.000 C 
ATOM     19  C   UNL     1       2.438   6.126  20.030  0.00  0.00    +0.000 C 
ATOM     20  C   UNL     1       2.555   6.295  18.502  0.00  0.00    +0.000 C 
ATOM     21  C   UNL     1       2.735   7.774  18.129  0.00  0.00    +0.000 C 
ATOM     22  C   UNL     1       1.686   8.676  18.776  0.00  0.00    +0.000 C 
ENDBRANCH  12  20
ENDBRANCH   1  14
BRANCH   1  23
ATOM     23  C   UNL     1       7.463   5.917  18.143  0.00  0.00    +0.000 C 
ATOM     24  C   UNL     1       7.619   7.417  17.861  0.00  0.00    +0.000 C 
ATOM     25  C   UNL     1       7.554   5.699  19.660  0.00  0.00    +0.000 C 
ENDBRANCH   1  23
TORSDOF 4
ENDMDL
MODEL 9
REMARK VINA RESULT:      -6.9      3.433      6.170
REMARK  Name = 
REMARK  7 active torsions:
REMARK  status: ('A' for Active; 'I' for Inactive)
REMARK    1  A    between atoms: C_1  and  C_2
REMARK    2  A    between atoms: C_5  and  C_6
REMARK    3  A    between atoms: N_8  and  C_9
REMARK    4  A    between atoms: C_9  and  C_10
REMARK    5  A    between atoms: C_9  and  C_19
REMARK    6  A    between atoms: C_19  and  C_20
REMARK    7  A    between atoms: C_19  and  C_21
REMARK                            x       y       z     vdW  Elec       q    Type
REMARK                         _______ _______ _______ _____ _____    ______ ____
ROOT
ATOM      1  C   UNL     1       0.658   9.932  20.426  0.00  0.00    +0.000 C 
ENDROOT
BRANCH   1   2
ATOM      2  C   UNL     1      -0.086  10.319  19.134  0.00  0.00    +0.000 C 
ATOM      3  O   UNL     1       0.514  10.839  18.192  0.00  0.00    +0.000 OA
ATOM      4  N   UNL     1      -1.433   9.978  19.124  0.00  0.00    +0.000 N 
ATOM      5  C   UNL     1      -2.231  10.276  18.017  0.00  0.00    +0.000 A 
ATOM      6  C   UNL     1      -1.931   9.732  16.771  0.00  0.00    +0.000 A 
ATOM      7  C   UNL     1      -2.731  10.074  15.684  0.00  0.00    +0.000 A 
ATOM      8  C   UNL     1      -3.775  10.970  15.867  0.00  0.00    +0.000 A 
ATOM      9  C   UNL     1      -4.013  11.438  17.153  0.00  0.00    +0.000 A 
ATOM     10  N   UNL     1      -3.292  11.072  18.240  0.00  0.00    +0.000 NA
ATOM     11  H   UNL     1      -1.921  10.076  20.007  0.00  0.00    +0.000 HD
ENDBRANCH   1   2
BRANCH   1  14
ATOM     12  C   UNL     1       2.006   8.070  19.475  0.00  0.00    +0.000 C 
ATOM     13  O   UNL     1       2.567   8.851  18.693  0.00  0.00    +0.000 OA
ATOM     14  N   UNL     1       1.058   8.518  20.352  0.00  0.00    +0.000 N 
ATOM     15  H   UNL     1       0.566   7.864  20.961  0.00  0.00    +0.000 HD
BRANCH  12  20
ATOM     16  C   UNL     1       1.429   2.263  19.112  0.00  0.00    +0.000 C 
ATOM     17  C   UNL     1       1.279   3.784  19.112  0.00  0.00    +0.000 C 
ATOM     18  C   UNL     1       1.525   4.350  20.514  0.00  0.00    +0.000 C 
ATOM     19  C   UNL     1       1.399   5.868  20.527  0.00  0.00    +0.000 C 
ATOM     20  C   UNL     1       2.301   6.569  19.492  0.00  0.00    +0.000 C 
ATOM     21  C   UNL     1       2.108   5.954  18.097  0.00  0.00    +0.000 C 
ATOM     22  C   UNL     1       2.233   4.433  18.102  0.00  0.00    +0.000 C 
ENDBRANCH  12  20
ENDBRANCH   1  14
BRANCH   1  23
ATOM     23  C   UNL     1      -0.210  10.226  21.678  0.00  0.00    +0.000 C 
ATOM     24  C   UNL     1       0.274   9.475  22.925  0.00  0.00    +0.000 C 
ATOM     25  C   UNL     1      -0.268  11.724  22.011  0.00  0.00    +0.000 C 
ENDBRANCH   1  23
TORSDOF 4
ENDMDL
