MODEL 1
REMARK VINA RESULT:      -7.6      0.000      0.000
REMARK  Name = 
REMARK  5 active torsions:
REMARK  status: ('A' for Active; 'I' for Inactive)
REMARK    1  A    between atoms: N_7  and  C_8
REMARK    2  A    between atoms: C_8  and  C_9
REMARK    3  A    between atoms: C_9  and  O_10
REMARK    4  A    between atoms: C_9  and  C_11
REMARK    5  A    between atoms: C_11  and  N_12
REMARK                            x       y       z     vdW  Elec       q    Type
REMARK                         _______ _______ _______ _____ _____    ______ ____
ROOT
ATOM      1  N   UNL     1       4.537   4.664  18.522  0.00  0.00    +0.000 N 
ATOM      2  C   UNL     1       5.224   4.618  17.319  0.00  0.00    +0.000 A 
ATOM      3  C   UNL     1       6.124   3.667  16.807  0.00  0.00    +0.000 A 
ATOM      4  C   UNL     1       6.665   3.879  15.537  0.00  0.00    +0.000 A 
ATOM      5  C   UNL     1       6.327   5.012  14.807  0.00  0.00    +0.000 A 
ATOM      6 BR   UNL     1       7.065   5.263  13.083  0.00  0.00    +0.000 Br
ATOM      7  C   UNL     1       5.448   5.966  15.323  0.00  0.00    +0.000 A 
ATOM      8  C   UNL     1       4.884   5.764  16.602  0.00  0.00    +0.000 A 
ATOM      9  C   UNL     1       3.979   6.522  17.406  0.00  0.00    +0.000 A 
ATOM     10  C   UNL     1       3.347   7.771  17.221  0.00  0.00    +0.000 A 
ATOM     11  C   UNL     1       2.492   8.254  18.209  0.00  0.00    +0.000 A 
ATOM     12 BR   UNL     1       1.671   9.946  17.977  0.00  0.00    +0.000 Br
ATOM     13  C   UNL     1       2.239   7.517  19.359  0.00  0.00    +0.000 A 
ATOM     14  C   UNL     1       2.861   6.277  19.566  0.00  0.00    +0.000 A 
ATOM     15  C   UNL     1       3.745   5.801  18.582  0.00  0.00    +0.000 A 
ENDROOT
BRANCH   1  16
ATOM     16  C   UNL     1       4.790   3.748  19.630  0.00  0.00    +0.000 C 
BRANCH  16  17
ATOM     17  C   UNL     1       4.812   2.249  19.273  0.00  0.00    +0.000 C 
BRANCH  17  18
ATOM     18  O   UNL     1       5.366   1.476  20.346  0.00  0.00    +0.000 OA
ATOM     19  H   UNL     1       5.893   2.047  20.938  0.00  0.00    +0.000 HD
ENDBRANCH  17  18
BRANCH  17  20
ATOM     20  C   UNL     1       3.369   1.784  18.980  0.00  0.00    +0.000 C 
BRANCH  20  27
ATOM     21  O   UNL     1       1.055   3.162  17.928  0.00  0.00    +0.000 OA
ATOM     22  C   UNL     1       1.307   3.157  19.126  0.00  0.00    +0.000 C 
ATOM     23  C   UNL     1       0.471   3.822  20.177  0.00  0.00    +0.000 C 
ATOM     24  C   UNL     1       1.190   3.519  21.481  0.00  0.00    +0.000 C 
ATOM     25  C   UNL     1       2.321   2.620  21.075  0.00  0.00    +0.000 C 
ATOM     26  O   UNL     1       3.073   2.042  21.846  0.00  0.00    +0.000 OA
ATOM     27  N   UNL     1       2.368   2.543  19.717  0.00  0.00    +0.000 N 
ENDBRANCH  20  27
ENDBRANCH  17  20
ENDBRANCH  16  17
ENDBRANCH   1  16
TORSDOF 5
ENDMDL
MODEL 2
REMARK VINA RESULT:      -7.5      0.218      3.952
REMARK  Name = 
REMARK  5 active torsions:
REMARK  status: ('A' for Active; 'I' for Inactive)
REMARK    1  A    between atoms: N_7  and  C_8
REMARK    2  A    between atoms: C_8  and  C_9
REMARK    3  A    between atoms: C_9  and  O_10
REMARK    4  A    between atoms: C_9  and  C_11
REMARK    5  A    between atoms: C_11  and  N_12
REMARK                            x       y       z     vdW  Elec       q    Type
REMARK                         _______ _______ _______ _____ _____    ______ ____
ROOT
ATOM      1  N   UNL     1       4.758   4.791  18.744  0.00  0.00    +0.000 N 
ATOM      2  C   UNL     1       3.879   5.863  18.753  0.00  0.00    +0.000 A 
ATOM      3  C   UNL     1       2.985   6.314  19.740  0.00  0.00    +0.000 A 
ATOM      4  C   UNL     1       2.216   7.449  19.473  0.00  0.00    +0.000 A 
ATOM      5  C   UNL     1       2.328   8.105  18.253  0.00  0.00    +0.000 A 
ATOM      6 BR   UNL     1       1.284   9.649  17.926  0.00  0.00    +0.000 Br
ATOM      7  C   UNL     1       3.202   7.646  17.265  0.00  0.00    +0.000 A 
ATOM      8  C   UNL     1       3.994   6.505  17.522  0.00  0.00    +0.000 A 
ATOM      9  C   UNL     1       4.959   5.788  16.751  0.00  0.00    +0.000 A 
ATOM     10  C   UNL     1       5.445   5.946  15.434  0.00  0.00    +0.000 A 
ATOM     11  C   UNL     1       6.416   5.068  14.957  0.00  0.00    +0.000 A 
ATOM     12 BR   UNL     1       7.042   5.258  13.179  0.00  0.00    +0.000 Br
ATOM     13  C   UNL     1       6.924   4.057  15.763  0.00  0.00    +0.000 A 
ATOM     14  C   UNL     1       6.452   3.878  17.071  0.00  0.00    +0.000 A 
ATOM     15  C   UNL     1       5.452   4.747  17.544  0.00  0.00    +0.000 A 
ENDROOT
BRANCH   1  16
ATOM     16  C   UNL     1       4.778   3.756  19.774  0.00  0.00    +0.000 C 
BRANCH  16  17
ATOM     17  C   UNL     1       4.812   2.301  19.266  0.00  0.00    +0.000 C 
BRANCH  17  18
ATOM     18  O   UNL     1       5.394   1.432  20.246  0.00  0.00    +0.000 OA
ATOM     19  H   UNL     1       4.840   0.637  20.367  0.00  0.00    +0.000 HD
ENDBRANCH  17  18
BRANCH  17  20
ATOM     20  C   UNL     1       3.369   1.849  18.950  0.00  0.00    +0.000 C 
BRANCH  20  27
ATOM     21  O   UNL     1       1.095   3.294  17.905  0.00  0.00    +0.000 OA
ATOM     22  C   UNL     1       1.324   3.244  19.106  0.00  0.00    +0.000 C 
ATOM     23  C   UNL     1       0.478   3.885  20.165  0.00  0.00    +0.000 C 
ATOM     24  C   UNL     1       1.168   3.527  21.470  0.00  0.00    +0.000 C 
ATOM     25  C   UNL     1       2.294   2.627  21.054  0.00  0.00    +0.000 C 
ATOM     26  O   UNL     1       3.024   2.012  21.818  0.00  0.00    +0.000 OA
ATOM     27  N   UNL     1       2.365   2.596  19.695  0.00  0.00    +0.000 N 
ENDBRANCH  20  27
ENDBRANCH  17  20
ENDBRANCH  16  17
ENDBRANCH   1  16
TORSDOF 5
ENDMDL
MODEL 3
REMARK VINA RESULT:      -7.5      3.419      6.799
REMARK  Name = 
REMARK  5 active torsions:
REMARK  status: ('A' for Active; 'I' for Inactive)
REMARK    1  A    between atoms: N_7  and  C_8
REMARK    2  A    between atoms: C_8  and  C_9
REMARK    3  A    between atoms: C_9  and  O_10
REMARK    4  A    between atoms: C_9  and  C_11
REMARK    5  A    between atoms: C_11  and  N_12
REMARK                            x       y       z     vdW  Elec       q    Type
REMARK                         _______ _______ _______ _____ _____    ______ ____
ROOT
ATOM      1  N   UNL     1       4.194   6.265  18.076  0.00  0.00    +0.000 N 
ATOM      2  C   UNL     1       3.341   7.351  18.200  0.00  0.00    +0.000 A 
ATOM      3  C   UNL     1       3.369   8.620  17.595  0.00  0.00    +0.000 A 
ATOM      4  C   UNL     1       2.354   9.528  17.905  0.00  0.00    +0.000 A 
ATOM      5  C   UNL     1       1.351   9.184  18.802  0.00  0.00    +0.000 A 
ATOM      6 BR   UNL     1      -0.018  10.429  19.191  0.00  0.00    +0.000 Br
ATOM      7  C   UNL     1       1.334   7.930  19.419  0.00  0.00    +0.000 A 
ATOM      8  C   UNL     1       2.346   6.996  19.109  0.00  0.00    +0.000 A 
ATOM      9  C   UNL     1       2.621   5.666  19.550  0.00  0.00    +0.000 A 
ATOM     10  C   UNL     1       1.992   4.816  20.486  0.00  0.00    +0.000 A 
ATOM     11  C   UNL     1       2.506   3.538  20.698  0.00  0.00    +0.000 A 
ATOM     12 BR   UNL     1       1.682   2.411  21.980  0.00  0.00    +0.000 Br
ATOM     13  C   UNL     1       3.611   3.085  19.990  0.00  0.00    +0.000 A 
ATOM     14  C   UNL     1       4.256   3.914  19.061  0.00  0.00    +0.000 A 
ATOM     15  C   UNL     1       3.754   5.213  18.865  0.00  0.00    +0.000 A 
ENDROOT
BRANCH   1  16
ATOM     16  C   UNL     1       5.473   6.321  17.374  0.00  0.00    +0.000 C 
BRANCH  16  17
ATOM     17  C   UNL     1       5.443   5.923  15.885  0.00  0.00    +0.000 C 
BRANCH  17  18
ATOM     18  O   UNL     1       5.128   7.053  15.061  0.00  0.00    +0.000 OA
ATOM     19  H   UNL     1       5.694   7.061  14.265  0.00  0.00    +0.000 HD
ENDBRANCH  17  18
BRANCH  17  20
ATOM     20  C   UNL     1       6.823   5.352  15.493  0.00  0.00    +0.000 C 
BRANCH  20  27
ATOM     21  O   UNL     1       8.636   5.986  13.334  0.00  0.00    +0.000 OA
ATOM     22  C   UNL     1       7.746   5.157  13.199  0.00  0.00    +0.000 C 
ATOM     23  C   UNL     1       7.494   4.369  11.949  0.00  0.00    +0.000 C 
ATOM     24  C   UNL     1       6.309   3.483  12.292  0.00  0.00    +0.000 C 
ATOM     25  C   UNL     1       6.046   3.766  13.742  0.00  0.00    +0.000 C 
ATOM     26  O   UNL     1       5.249   3.163  14.444  0.00  0.00    +0.000 OA
ATOM     27  N   UNL     1       6.844   4.791  14.150  0.00  0.00    +0.000 N 
ENDBRANCH  20  27
ENDBRANCH  17  20
ENDBRANCH  16  17
ENDBRANCH   1  16
TORSDOF 5
ENDMDL
MODEL 4
REMARK VINA RESULT:      -7.4      0.090      1.473
REMARK  Name = 
REMARK  5 active torsions:
REMARK  status: ('A' for Active; 'I' for Inactive)
REMARK    1  A    between atoms: N_7  and  C_8
REMARK    2  A    between atoms: C_8  and  C_9
REMARK    3  A    between atoms: C_9  and  O_10
REMARK    4  A    between atoms: C_9  and  C_11
REMARK    5  A    between atoms: C_11  and  N_12
REMARK                            x       y       z     vdW  Elec       q    Type
REMARK                         _______ _______ _______ _____ _____    ______ ____
ROOT
ATOM      1  N   UNL     1       4.448   4.644  18.501  0.00  0.00    +0.000 N 
ATOM      2  C   UNL     1       5.152   4.593  17.308  0.00  0.00    +0.000 A 
ATOM      3  C   UNL     1       6.035   3.626  16.799  0.00  0.00    +0.000 A 
ATOM      4  C   UNL     1       6.600   3.838  15.539  0.00  0.00    +0.000 A 
ATOM      5  C   UNL     1       6.302   4.987  14.817  0.00  0.00    +0.000 A 
ATOM      6 BR   UNL     1       7.072   5.238  13.107  0.00  0.00    +0.000 Br
ATOM      7  C   UNL     1       5.440   5.957  15.331  0.00  0.00    +0.000 A 
ATOM      8  C   UNL     1       4.852   5.755  16.599  0.00  0.00    +0.000 A 
ATOM      9  C   UNL     1       3.955   6.528  17.398  0.00  0.00    +0.000 A 
ATOM     10  C   UNL     1       3.357   7.794  17.218  0.00  0.00    +0.000 A 
ATOM     11  C   UNL     1       2.500   8.288  18.199  0.00  0.00    +0.000 A 
ATOM     12 BR   UNL     1       1.727  10.003  17.974  0.00  0.00    +0.000 Br
ATOM     13  C   UNL     1       2.212   7.545  19.337  0.00  0.00    +0.000 A 
ATOM     14  C   UNL     1       2.798   6.288  19.539  0.00  0.00    +0.000 A 
ATOM     15  C   UNL     1       3.685   5.800  18.562  0.00  0.00    +0.000 A 
ENDROOT
BRANCH   1  16
ATOM     16  C   UNL     1       4.661   3.710  19.602  0.00  0.00    +0.000 C 
BRANCH  16  17
ATOM     17  C   UNL     1       4.752   2.220  19.214  0.00  0.00    +0.000 C 
BRANCH  17  18
ATOM     18  O   UNL     1       5.378   1.459  20.255  0.00  0.00    +0.000 OA
ATOM     19  H   UNL     1       4.709   1.143  20.894  0.00  0.00    +0.000 HD
ENDBRANCH  17  18
BRANCH  17  20
ATOM     20  C   UNL     1       3.327   1.685  18.952  0.00  0.00    +0.000 C 
BRANCH  20  27
ATOM     21  O   UNL     1       3.132   2.090  21.807  0.00  0.00    +0.000 OA
ATOM     22  C   UNL     1       2.302   2.554  21.038  0.00  0.00    +0.000 C 
ATOM     23  C   UNL     1       1.123   3.382  21.450  0.00  0.00    +0.000 C 
ATOM     24  C   UNL     1       0.420   3.717  20.146  0.00  0.00    +0.000 C 
ATOM     25  C   UNL     1       1.312   3.137  19.089  0.00  0.00    +0.000 C 
ATOM     26  O   UNL     1       1.174   3.295  17.885  0.00  0.00    +0.000 OA
ATOM     27  N   UNL     1       2.303   2.417  19.684  0.00  0.00    +0.000 N 
ENDBRANCH  20  27
ENDBRANCH  17  20
ENDBRANCH  16  17
ENDBRANCH   1  16
TORSDOF 5
ENDMDL
MODEL 5
REMARK VINA RESULT:      -7.4      0.207      4.217
REMARK  Name = 
REMARK  5 active torsions:
REMARK  status: ('A' for Active; 'I' for Inactive)
REMARK    1  A    between atoms: N_7  and  C_8
REMARK    2  A    between atoms: C_8  and  C_9
REMARK    3  A    between atoms: C_9  and  O_10
REMARK    4  A    between atoms: C_9  and  C_11
REMARK    5  A    between atoms: C_11  and  N_12
REMARK                            x       y       z     vdW  Elec       q    Type
REMARK                         _______ _______ _______ _____ _____    ______ ____
ROOT
ATOM      1  N   UNL     1       4.678   4.772  18.737  0.00  0.00    +0.000 N 
ATOM      2  C   UNL     1       3.826   5.865  18.752  0.00  0.00    +0.000 A 
ATOM      3  C   UNL     1       2.935   6.326  19.736  0.00  0.00    +0.000 A 
ATOM      4  C   UNL     1       2.197   7.483  19.477  0.00  0.00    +0.000 A 
ATOM      5  C   UNL     1       2.335   8.151  18.266  0.00  0.00    +0.000 A 
ATOM      6 BR   UNL     1       1.334   9.724  17.950  0.00  0.00    +0.000 Br
ATOM      7  C   UNL     1       3.206   7.682  17.280  0.00  0.00    +0.000 A 
ATOM      8  C   UNL     1       3.968   6.519  17.529  0.00  0.00    +0.000 A 
ATOM      9  C   UNL     1       4.921   5.787  16.757  0.00  0.00    +0.000 A 
ATOM     10  C   UNL     1       5.422   5.949  15.447  0.00  0.00    +0.000 A 
ATOM     11  C   UNL     1       6.374   5.052  14.967  0.00  0.00    +0.000 A 
ATOM     12 BR   UNL     1       7.020   5.248  13.196  0.00  0.00    +0.000 Br
ATOM     13  C   UNL     1       6.850   4.019  15.764  0.00  0.00    +0.000 A 
ATOM     14  C   UNL     1       6.363   3.836  17.066  0.00  0.00    +0.000 A 
ATOM     15  C   UNL     1       5.381   4.724  17.542  0.00  0.00    +0.000 A 
ENDROOT
BRANCH   1  16
ATOM     16  C   UNL     1       4.664   3.724  19.753  0.00  0.00    +0.000 C 
BRANCH  16  17
ATOM     17  C   UNL     1       4.759   2.277  19.232  0.00  0.00    +0.000 C 
BRANCH  17  18
ATOM     18  O   UNL     1       5.400   1.429  20.193  0.00  0.00    +0.000 OA
ATOM     19  H   UNL     1       6.309   1.741  20.370  0.00  0.00    +0.000 HD
ENDBRANCH  17  18
BRANCH  17  20
ATOM     20  C   UNL     1       3.336   1.758  18.936  0.00  0.00    +0.000 C 
BRANCH  20  27
ATOM     21  O   UNL     1       3.058   2.071  21.795  0.00  0.00    +0.000 OA
ATOM     22  C   UNL     1       2.262   2.579  21.016  0.00  0.00    +0.000 C 
ATOM     23  C   UNL     1       1.089   3.419  21.420  0.00  0.00    +0.000 C 
ATOM     24  C   UNL     1       0.435   3.813  20.107  0.00  0.00    +0.000 C 
ATOM     25  C   UNL     1       1.348   3.249  19.059  0.00  0.00    +0.000 C 
ATOM     26  O   UNL     1       1.253   3.451  17.857  0.00  0.00    +0.000 OA
ATOM     27  N   UNL     1       2.304   2.488  19.659  0.00  0.00    +0.000 N 
ENDBRANCH  20  27
ENDBRANCH  17  20
ENDBRANCH  16  17
ENDBRANCH   1  16
TORSDOF 5
ENDMDL
MODEL 6
REMARK VINA RESULT:      -7.3      3.246      5.892
REMARK  Name = 
REMARK  5 active torsions:
REMARK  status: ('A' for Active; 'I' for Inactive)
REMARK    1  A    between atoms: N_7  and  C_8
REMARK    2  A    between atoms: C_8  and  C_9
REMARK    3  A    between atoms: C_9  and  O_10
REMARK    4  A    between atoms: C_9  and  C_11
REMARK    5  A    between atoms: C_11  and  N_12
REMARK                            x       y       z     vdW  Elec       q    Type
REMARK                         _______ _______ _______ _____ _____    ______ ____
ROOT
ATOM      1  N   UNL     1       4.021   6.238  17.591  0.00  0.00    +0.000 N 
ATOM      2  C   UNL     1       3.730   5.194  18.456  0.00  0.00    +0.000 A 
ATOM      3  C   UNL     1       4.235   3.884  18.522  0.00  0.00    +0.000 A 
ATOM      4  C   UNL     1       3.757   3.036  19.524  0.00  0.00    +0.000 A 
ATOM      5  C   UNL     1       2.795   3.480  20.423  0.00  0.00    +0.000 A 
ATOM      6 BR   UNL     1       2.179   2.314  21.779  0.00  0.00    +0.000 Br
ATOM      7  C   UNL     1       2.279   4.775  20.345  0.00  0.00    +0.000 A 
ATOM      8  C   UNL     1       2.758   5.650  19.345  0.00  0.00    +0.000 A 
ATOM      9  C   UNL     1       2.450   6.998  18.991  0.00  0.00    +0.000 A 
ATOM     10  C   UNL     1       1.525   7.936  19.501  0.00  0.00    +0.000 A 
ATOM     11  C   UNL     1       1.464   9.208  18.935  0.00  0.00    +0.000 A 
ATOM     12 BR   UNL     1       0.198  10.454  19.595  0.00  0.00    +0.000 Br
ATOM     13  C   UNL     1       2.309   9.569  17.894  0.00  0.00    +0.000 A 
ATOM     14  C   UNL     1       3.231   8.652  17.369  0.00  0.00    +0.000 A 
ATOM     15  C   UNL     1       3.275   7.360  17.921  0.00  0.00    +0.000 A 
ENDROOT
BRANCH   1  16
ATOM     16  C   UNL     1       4.838   6.087  16.391  0.00  0.00    +0.000 C 
BRANCH  16  17
ATOM     17  C   UNL     1       6.332   6.432  16.545  0.00  0.00    +0.000 C 
BRANCH  17  18
ATOM     18  O   UNL     1       6.626   6.841  17.887  0.00  0.00    +0.000 OA
ATOM     19  H   UNL     1       5.824   6.788  18.442  0.00  0.00    +0.000 HD
ENDBRANCH  17  18
BRANCH  17  20
ATOM     20  C   UNL     1       7.172   5.190  16.175  0.00  0.00    +0.000 C 
BRANCH  20  27
ATOM     21  O   UNL     1       8.538   5.903  13.730  0.00  0.00    +0.000 OA
ATOM     22  C   UNL     1       7.612   5.103  13.735  0.00  0.00    +0.000 C 
ATOM     23  C   UNL     1       7.089   4.394  12.523  0.00  0.00    +0.000 C 
ATOM     24  C   UNL     1       5.966   3.518  13.052  0.00  0.00    +0.000 C 
ATOM     25  C   UNL     1       6.008   3.725  14.537  0.00  0.00    +0.000 C 
ATOM     26  O   UNL     1       5.346   3.102  15.354  0.00  0.00    +0.000 OA
ATOM     27  N   UNL     1       6.905   4.706  14.828  0.00  0.00    +0.000 N 
ENDBRANCH  20  27
ENDBRANCH  17  20
ENDBRANCH  16  17
ENDBRANCH   1  16
TORSDOF 5
ENDMDL
MODEL 7
REMARK VINA RESULT:      -7.1      1.470      5.005
REMARK  Name = 
REMARK  5 active torsions:
REMARK  status: ('A' for Active; 'I' for Inactive)
REMARK    1  A    between atoms: N_7  and  C_8
REMARK    2  A    between atoms: C_8  and  C_9
REMARK    3  A    between atoms: C_9  and  O_10
REMARK    4  A    between atoms: C_9  and  C_11
REMARK    5  A    between atoms: C_11  and  N_12
REMARK                            x       y       z     vdW  Elec       q    Type
REMARK                         _______ _______ _______ _____ _____    ______ ____
ROOT
ATOM      1  N   UNL     1       2.861   6.009  20.128  0.00  0.00    +0.000 N 
ATOM      2  C   UNL     1       2.153   7.193  19.994  0.00  0.00    +0.000 A 
ATOM      3  C   UNL     1       1.237   7.823  20.855  0.00  0.00    +0.000 A 
ATOM      4  C   UNL     1       0.676   9.038  20.456  0.00  0.00    +0.000 A 
ATOM      5  C   UNL     1       1.008   9.599  19.229  0.00  0.00    +0.000 A 
ATOM      6 BR   UNL     1       0.243  11.253  18.723  0.00  0.00    +0.000 Br
ATOM      7  C   UNL     1       1.902   8.963  18.365  0.00  0.00    +0.000 A 
ATOM      8  C   UNL     1       2.488   7.739  18.756  0.00  0.00    +0.000 A 
ATOM      9  C   UNL     1       3.411   6.849  18.129  0.00  0.00    +0.000 A 
ATOM     10  C   UNL     1       4.049   6.859  16.868  0.00  0.00    +0.000 A 
ATOM     11  C   UNL     1       4.924   5.826  16.540  0.00  0.00    +0.000 A 
ATOM     12 BR   UNL     1       5.751   5.821  14.836  0.00  0.00    +0.000 Br
ATOM     13  C   UNL     1       5.191   4.802  17.440  0.00  0.00    +0.000 A 
ATOM     14  C   UNL     1       4.566   4.769  18.694  0.00  0.00    +0.000 A 
ATOM     15  C   UNL     1       3.661   5.796  19.016  0.00  0.00    +0.000 A 
ENDROOT
BRANCH   1  16
ATOM     16  C   UNL     1       2.622   5.044  21.197  0.00  0.00    +0.000 C 
BRANCH  16  17
ATOM     17  C   UNL     1       1.306   4.246  21.103  0.00  0.00    +0.000 C 
BRANCH  17  18
ATOM     18  O   UNL     1       0.576   4.602  19.922  0.00  0.00    +0.000 OA
ATOM     19  H   UNL     1       0.596   3.870  19.276  0.00  0.00    +0.000 HD
ENDBRANCH  17  18
BRANCH  17  20
ATOM     20  C   UNL     1       1.638   2.738  21.083  0.00  0.00    +0.000 C 
BRANCH  20  27
ATOM     21  O   UNL     1       4.379   1.927  20.656  0.00  0.00    +0.000 OA
ATOM     22  C   UNL     1       3.568   1.944  19.741  0.00  0.00    +0.000 C 
ATOM     23  C   UNL     1       3.865   1.543  18.328  0.00  0.00    +0.000 C 
ATOM     24  C   UNL     1       2.547   1.726  17.596  0.00  0.00    +0.000 C 
ATOM     25  C   UNL     1       1.581   2.121  18.674  0.00  0.00    +0.000 C 
ATOM     26  O   UNL     1       0.373   2.242  18.529  0.00  0.00    +0.000 OA
ATOM     27  N   UNL     1       2.261   2.311  19.838  0.00  0.00    +0.000 N 
ENDBRANCH  20  27
ENDBRANCH  17  20
ENDBRANCH  16  17
ENDBRANCH   1  16
TORSDOF 5
ENDMDL
MODEL 8
REMARK VINA RESULT:      -7.1      3.259      6.311
REMARK  Name = 
REMARK  5 active torsions:
REMARK  status: ('A' for Active; 'I' for Inactive)
REMARK    1  A    between atoms: N_7  and  C_8
REMARK    2  A    between atoms: C_8  and  C_9
REMARK    3  A    between atoms: C_9  and  O_10
REMARK    4  A    between atoms: C_9  and  C_11
REMARK    5  A    between atoms: C_11  and  N_12
REMARK                            x       y       z     vdW  Elec       q    Type
REMARK                         _______ _______ _______ _____ _____    ______ ____
ROOT
ATOM      1  N   UNL     1       3.395   6.650  17.645  0.00  0.00    +0.000 N 
ATOM      2  C   UNL     1       2.716   7.764  18.113  0.00  0.00    +0.000 A 
ATOM      3  C   UNL     1       2.640   9.076  17.613  0.00  0.00    +0.000 A 
ATOM      4  C   UNL     1       1.856  10.006  18.299  0.00  0.00    +0.000 A 
ATOM      5  C   UNL     1       1.180   9.640  19.457  0.00  0.00    +0.000 A 
ATOM      6 BR   UNL     1       0.114  10.918  20.356  0.00  0.00    +0.000 Br
ATOM      7  C   UNL     1       1.271   8.343  19.965  0.00  0.00    +0.000 A 
ATOM      8  C   UNL     1       2.051   7.386  19.279  0.00  0.00    +0.000 A 
ATOM      9  C   UNL     1       2.354   6.012  19.520  0.00  0.00    +0.000 A 
ATOM     10  C   UNL     1       2.005   5.120  20.558  0.00  0.00    +0.000 A 
ATOM     11  C   UNL     1       2.461   3.805  20.508  0.00  0.00    +0.000 A 
ATOM     12 BR   UNL     1       2.022   2.618  21.919  0.00  0.00    +0.000 Br
ATOM     13  C   UNL     1       3.235   3.356  19.445  0.00  0.00    +0.000 A 
ATOM     14  C   UNL     1       3.598   4.225  18.406  0.00  0.00    +0.000 A 
ATOM     15  C   UNL     1       3.161   5.560  18.470  0.00  0.00    +0.000 A 
ENDROOT
BRANCH   1  16
ATOM     16  C   UNL     1       4.372   6.699  16.562  0.00  0.00    +0.000 C 
BRANCH  16  17
ATOM     17  C   UNL     1       5.183   5.409  16.327  0.00  0.00    +0.000 C 
BRANCH  17  18
ATOM     18  O   UNL     1       4.713   4.715  15.163  0.00  0.00    +0.000 OA
ATOM     19  H   UNL     1       5.169   5.044  14.365  0.00  0.00    +0.000 HD
ENDBRANCH  17  18
BRANCH  17  20
ATOM     20  C   UNL     1       6.672   5.779  16.155  0.00  0.00    +0.000 C 
BRANCH  20  27
ATOM     21  O   UNL     1       7.718   8.329  17.025  0.00  0.00    +0.000 OA
ATOM     22  C   UNL     1       7.785   7.334  17.735  0.00  0.00    +0.000 C 
ATOM     23  C   UNL     1       8.379   7.305  19.111  0.00  0.00    +0.000 C 
ATOM     24  C   UNL     1       8.211   5.865  19.566  0.00  0.00    +0.000 C 
ATOM     25  C   UNL     1       7.444   5.216  18.452  0.00  0.00    +0.000 C 
ATOM     26  O   UNL     1       6.990   4.082  18.476  0.00  0.00    +0.000 OA
ATOM     27  N   UNL     1       7.327   6.093  17.417  0.00  0.00    +0.000 N 
ENDBRANCH  20  27
ENDBRANCH  17  20
ENDBRANCH  16  17
ENDBRANCH   1  16
TORSDOF 5
ENDMDL
MODEL 9
REMARK VINA RESULT:      -7.0      3.243      5.837
REMARK  Name = 
REMARK  5 active torsions:
REMARK  status: ('A' for Active; 'I' for Inactive)
REMARK    1  A    between atoms: N_7  and  C_8
REMARK    2  A    between atoms: C_8  and  C_9
REMARK    3  A    between atoms: C_9  and  O_10
REMARK    4  A    between atoms: C_9  and  C_11
REMARK    5  A    between atoms: C_11  and  N_12
REMARK                            x       y       z     vdW  Elec       q    Type
REMARK                         _______ _______ _______ _____ _____    ______ ____
ROOT
ATOM      1  N   UNL     1       3.839   6.585  17.638  0.00  0.00    +0.000 N 
ATOM      2  C   UNL     1       3.576   5.530  18.497  0.00  0.00    +0.000 A 
ATOM      3  C   UNL     1       4.101   4.227  18.544  0.00  0.00    +0.000 A 
ATOM      4  C   UNL     1       3.650   3.363  19.545  0.00  0.00    +0.000 A 
ATOM      5  C   UNL     1       2.693   3.783  20.460  0.00  0.00    +0.000 A 
ATOM      6 BR   UNL     1       2.112   2.595  21.813  0.00  0.00    +0.000 Br
ATOM      7  C   UNL     1       2.156   5.071  20.401  0.00  0.00    +0.000 A 
ATOM      8  C   UNL     1       2.608   5.962  19.402  0.00  0.00    +0.000 A 
ATOM      9  C   UNL     1       2.275   7.309  19.066  0.00  0.00    +0.000 A 
ATOM     10  C   UNL     1       1.343   8.228  19.596  0.00  0.00    +0.000 A 
ATOM     11  C   UNL     1       1.255   9.503  19.042  0.00  0.00    +0.000 A 
ATOM     12 BR   UNL     1      -0.020  10.725  19.731  0.00  0.00    +0.000 Br
ATOM     13  C   UNL     1       2.082   9.887  17.994  0.00  0.00    +0.000 A 
ATOM     14  C   UNL     1       3.010   8.989  17.448  0.00  0.00    +0.000 A 
ATOM     15  C   UNL     1       3.081   7.693  17.988  0.00  0.00    +0.000 A 
ENDROOT
BRANCH   1  16
ATOM     16  C   UNL     1       4.643   6.457  16.426  0.00  0.00    +0.000 C 
BRANCH  16  17
ATOM     17  C   UNL     1       6.167   6.586  16.612  0.00  0.00    +0.000 C 
BRANCH  17  18
ATOM     18  O   UNL     1       6.483   7.068  17.924  0.00  0.00    +0.000 OA
ATOM     19  H   UNL     1       6.315   6.374  18.591  0.00  0.00    +0.000 HD
ENDBRANCH  17  18
BRANCH  17  20
ATOM     20  C   UNL     1       6.816   5.203  16.387  0.00  0.00    +0.000 C 
BRANCH  20  27
ATOM     21  O   UNL     1       4.665   3.540  15.408  0.00  0.00    +0.000 OA
ATOM     22  C   UNL     1       5.566   3.919  14.672  0.00  0.00    +0.000 C 
ATOM     23  C   UNL     1       5.665   3.602  13.210  0.00  0.00    +0.000 C 
ATOM     24  C   UNL     1       6.934   4.303  12.756  0.00  0.00    +0.000 C 
ATOM     25  C   UNL     1       7.399   5.046  13.974  0.00  0.00    +0.000 C 
ATOM     26  O   UNL     1       8.325   5.843  14.003  0.00  0.00    +0.000 OA
ATOM     27  N   UNL     1       6.620   4.699  15.035  0.00  0.00    +0.000 N 
ENDBRANCH  20  27
ENDBRANCH  17  20
ENDBRANCH  16  17
ENDBRANCH   1  16
TORSDOF 5
ENDMDL
