MODEL 1
REMARK VINA RESULT:      -5.5      0.000      0.000
REMARK  Name = 
REMARK  4 active torsions:
REMARK  status: ('A' for Active; 'I' for Inactive)
REMARK    1  A    between atoms: C_4  and  C_5
REMARK    2  A    between atoms: C_5  and  O_7
REMARK    3  A    between atoms: C_8  and  N_9
REMARK    4  A    between atoms: C_10  and  C_11
REMARK                            x       y       z     vdW  Elec       q    Type
REMARK                         _______ _______ _______ _____ _____    ______ ____
ROOT
ATOM      1  C   UNL     1       3.389   6.374  17.898  0.00  0.00    +0.000 C 
ATOM      2  C   UNL     1       2.850   5.186  18.204  0.00  0.00    +0.000 C 
ATOM      3  C   UNL     1       2.022   4.937  19.415  0.00  0.00    +0.000 C 
ATOM      4  C   UNL     1       2.747   3.712  19.950  0.00  0.00    +0.000 C 
ATOM      5  C   UNL     1       2.995   2.845  18.679  0.00  0.00    +0.000 C 
ATOM      6  C   UNL     1       3.112   3.874  17.514  0.00  0.00    +0.000 C 
ATOM      7  C   UNL     1       4.442   3.777  16.760  0.00  0.00    +0.000 C 
ENDROOT
BRANCH   5   8
ATOM      8  N   UNL     1       1.899   1.908  18.400  0.00  0.00    +0.000 NA
ATOM      9  H   UNL     1       0.996   2.416  18.261  0.00  0.00    +0.000 HD
ATOM     10  H   UNL     1       1.795   1.238  19.195  0.00  0.00    +0.000 HD
ENDBRANCH   5   8
BRANCH   4  11
ATOM     11  C   UNL     1       2.065   3.003  21.100  0.00  0.00    +0.000 C 
ATOM     12  O   UNL     1       2.719   2.563  22.034  0.00  0.00    +0.000 OA
BRANCH  11  13
ATOM     13  O   UNL     1       0.722   2.843  21.105  0.00  0.00    +0.000 OA
ATOM     14  H   UNL     1       0.127   3.603  21.082  0.00  0.00    +0.000 HD
ENDBRANCH  11  13
ENDBRANCH   4  11
TORSDOF 3
ENDMDL
MODEL 2
REMARK VINA RESULT:      -5.4      4.134      5.239
REMARK  Name = 
REMARK  4 active torsions:
REMARK  status: ('A' for Active; 'I' for Inactive)
REMARK    1  A    between atoms: C_4  and  C_5
REMARK    2  A    between atoms: C_5  and  O_7
REMARK    3  A    between atoms: C_8  and  N_9
REMARK    4  A    between atoms: C_10  and  C_11
REMARK                            x       y       z     vdW  Elec       q    Type
REMARK                         _______ _______ _______ _____ _____    ______ ____
ROOT
ATOM      1  C   UNL     1       2.609   3.355  17.453  0.00  0.00    +0.000 C 
ATOM      2  C   UNL     1       3.585   4.243  17.212  0.00  0.00    +0.000 C 
ATOM      3  C   UNL     1       4.828   3.927  16.459  0.00  0.00    +0.000 C 
ATOM      4  C   UNL     1       5.849   4.459  17.453  0.00  0.00    +0.000 C 
ATOM      5  C   UNL     1       5.243   5.820  17.911  0.00  0.00    +0.000 C 
ATOM      6  C   UNL     1       3.701   5.630  17.786  0.00  0.00    +0.000 C 
ATOM      7  C   UNL     1       2.959   5.863  19.107  0.00  0.00    +0.000 C 
ENDROOT
BRANCH   5   8
ATOM      8  N   UNL     1       5.668   6.950  17.074  0.00  0.00    +0.000 NA
ATOM      9  H   UNL     1       4.929   7.200  16.377  0.00  0.00    +0.000 HD
ATOM     10  H   UNL     1       6.546   6.702  16.565  0.00  0.00    +0.000 HD
ENDBRANCH   5   8
BRANCH   4  11
ATOM     11  C   UNL     1       7.275   4.516  16.951  0.00  0.00    +0.000 C 
ATOM     12  O   UNL     1       7.529   4.997  15.856  0.00  0.00    +0.000 OA
BRANCH  11  13
ATOM     13  O   UNL     1       8.287   4.030  17.705  0.00  0.00    +0.000 OA
ATOM     14  H   UNL     1       9.205   4.271  17.527  0.00  0.00    +0.000 HD
ENDBRANCH  11  13
ENDBRANCH   4  11
TORSDOF 3
ENDMDL
MODEL 3
REMARK VINA RESULT:      -5.4      3.522      4.479
REMARK  Name = 
REMARK  4 active torsions:
REMARK  status: ('A' for Active; 'I' for Inactive)
REMARK    1  A    between atoms: C_4  and  C_5
REMARK    2  A    between atoms: C_5  and  O_7
REMARK    3  A    between atoms: C_8  and  N_9
REMARK    4  A    between atoms: C_10  and  C_11
REMARK                            x       y       z     vdW  Elec       q    Type
REMARK                         _______ _______ _______ _____ _____    ______ ____
ROOT
ATOM      1  C   UNL     1       2.819   7.127  17.925  0.00  0.00    +0.000 C 
ATOM      2  C   UNL     1       3.649   6.101  18.160  0.00  0.00    +0.000 C 
ATOM      3  C   UNL     1       5.132   6.205  18.112  0.00  0.00    +0.000 C 
ATOM      4  C   UNL     1       5.422   5.030  17.190  0.00  0.00    +0.000 C 
ATOM      5  C   UNL     1       4.488   3.903  17.724  0.00  0.00    +0.000 C 
ATOM      6  C   UNL     1       3.266   4.655  18.333  0.00  0.00    +0.000 C 
ATOM      7  C   UNL     1       1.933   4.244  17.700  0.00  0.00    +0.000 C 
ENDROOT
BRANCH   5   8
ATOM      8  N   UNL     1       5.121   3.073  18.757  0.00  0.00    +0.000 NA
ATOM      9  H   UNL     1       4.705   2.114  18.775  0.00  0.00    +0.000 HD
ATOM     10  H   UNL     1       4.992   3.517  19.694  0.00  0.00    +0.000 HD
ENDBRANCH   5   8
BRANCH   4  11
ATOM     11  C   UNL     1       6.882   4.658  17.053  0.00  0.00    +0.000 C 
ATOM     12  O   UNL     1       7.438   4.718  15.966  0.00  0.00    +0.000 OA
BRANCH  11  13
ATOM     13  O   UNL     1       7.589   4.247  18.130  0.00  0.00    +0.000 OA
ATOM     14  H   UNL     1       7.829   3.319  18.247  0.00  0.00    +0.000 HD
ENDBRANCH  11  13
ENDBRANCH   4  11
TORSDOF 3
ENDMDL
MODEL 4
REMARK VINA RESULT:      -5.4      4.493      5.515
REMARK  Name = 
REMARK  4 active torsions:
REMARK  status: ('A' for Active; 'I' for Inactive)
REMARK    1  A    between atoms: C_4  and  C_5
REMARK    2  A    between atoms: C_5  and  O_7
REMARK    3  A    between atoms: C_8  and  N_9
REMARK    4  A    between atoms: C_10  and  C_11
REMARK                            x       y       z     vdW  Elec       q    Type
REMARK                         _______ _______ _______ _____ _____    ______ ____
ROOT
ATOM      1  C   UNL     1       3.439   7.132  17.754  0.00  0.00    +0.000 C 
ATOM      2  C   UNL     1       4.582   6.445  17.612  0.00  0.00    +0.000 C 
ATOM      3  C   UNL     1       5.428   6.485  16.389  0.00  0.00    +0.000 C 
ATOM      4  C   UNL     1       5.577   4.990  16.154  0.00  0.00    +0.000 C 
ATOM      5  C   UNL     1       5.854   4.419  17.577  0.00  0.00    +0.000 C 
ATOM      6  C   UNL     1       5.125   5.397  18.547  0.00  0.00    +0.000 C 
ATOM      7  C   UNL     1       4.087   4.701  19.433  0.00  0.00    +0.000 C 
ENDROOT
BRANCH   5   8
ATOM      8  N   UNL     1       7.284   4.372  17.909  0.00  0.00    +0.000 NA
ATOM      9  H   UNL     1       7.871   4.571  17.068  0.00  0.00    +0.000 HD
ATOM     10  H   UNL     1       7.530   3.426  18.280  0.00  0.00    +0.000 HD
ENDBRANCH   5   8
BRANCH   4  11
ATOM     11  C   UNL     1       6.574   4.596  15.087  0.00  0.00    +0.000 C 
ATOM     12  O   UNL     1       7.589   5.255  14.913  0.00  0.00    +0.000 OA
BRANCH  11  13
ATOM     13  O   UNL     1       6.353   3.512  14.309  0.00  0.00    +0.000 OA
ATOM     14  H   UNL     1       5.905   3.591  13.457  0.00  0.00    +0.000 HD
ENDBRANCH  11  13
ENDBRANCH   4  11
TORSDOF 3
ENDMDL
MODEL 5
REMARK VINA RESULT:      -5.4      4.089      5.061
REMARK  Name = 
REMARK  4 active torsions:
REMARK  status: ('A' for Active; 'I' for Inactive)
REMARK    1  A    between atoms: C_4  and  C_5
REMARK    2  A    between atoms: C_5  and  O_7
REMARK    3  A    between atoms: C_8  and  N_9
REMARK    4  A    between atoms: C_10  and  C_11
REMARK                            x       y       z     vdW  Elec       q    Type
REMARK                         _______ _______ _______ _____ _____    ______ ____
ROOT
ATOM      1  C   UNL     1       2.361   5.602  17.789  0.00  0.00    +0.000 C 
ATOM      2  C   UNL     1       3.649   5.605  18.157  0.00  0.00    +0.000 C 
ATOM      3  C   UNL     1       4.764   6.044  17.276  0.00  0.00    +0.000 C 
ATOM      4  C   UNL     1       5.677   4.837  17.430  0.00  0.00    +0.000 C 
ATOM      5  C   UNL     1       5.634   4.535  18.958  0.00  0.00    +0.000 C 
ATOM      6  C   UNL     1       4.226   5.019  19.419  0.00  0.00    +0.000 C 
ATOM      7  C   UNL     1       3.395   3.911  20.073  0.00  0.00    +0.000 C 
ENDROOT
BRANCH   5   8
ATOM      8  N   UNL     1       6.671   5.247  19.715  0.00  0.00    +0.000 NA
ATOM      9  H   UNL     1       7.469   5.518  19.095  0.00  0.00    +0.000 HD
ATOM     10  H   UNL     1       7.030   4.637  20.484  0.00  0.00    +0.000 HD
ENDBRANCH   5   8
BRANCH   4  11
ATOM     11  C   UNL     1       7.060   4.989  16.834  0.00  0.00    +0.000 C 
ATOM     12  O   UNL     1       7.287   5.861  16.009  0.00  0.00    +0.000 OA
BRANCH  11  13
ATOM     13  O   UNL     1       8.059   4.156  17.202  0.00  0.00    +0.000 OA
ATOM     14  H   UNL     1       8.561   4.304  18.014  0.00  0.00    +0.000 HD
ENDBRANCH  11  13
ENDBRANCH   4  11
TORSDOF 3
ENDMDL
MODEL 6
REMARK VINA RESULT:      -5.4      4.246      5.083
REMARK  Name = 
REMARK  4 active torsions:
REMARK  status: ('A' for Active; 'I' for Inactive)
REMARK    1  A    between atoms: C_4  and  C_5
REMARK    2  A    between atoms: C_5  and  O_7
REMARK    3  A    between atoms: C_8  and  N_9
REMARK    4  A    between atoms: C_10  and  C_11
REMARK                            x       y       z     vdW  Elec       q    Type
REMARK                         _______ _______ _______ _____ _____    ______ ____
ROOT
ATOM      1  C   UNL     1       3.399   4.707  17.485  0.00  0.00    +0.000 C 
ATOM      2  C   UNL     1       4.723   4.548  17.614  0.00  0.00    +0.000 C 
ATOM      3  C   UNL     1       5.471   4.799  18.875  0.00  0.00    +0.000 C 
ATOM      4  C   UNL     1       6.562   5.707  18.328  0.00  0.00    +0.000 C 
ATOM      5  C   UNL     1       6.990   5.010  17.001  0.00  0.00    +0.000 C 
ATOM      6  C   UNL     1       5.709   4.270  16.510  0.00  0.00    +0.000 C 
ATOM      7  C   UNL     1       5.268   4.701  15.107  0.00  0.00    +0.000 C 
ENDROOT
BRANCH   5   8
ATOM      8  N   UNL     1       8.077   4.041  17.186  0.00  0.00    +0.000 NA
ATOM      9  H   UNL     1       8.332   3.951  18.197  0.00  0.00    +0.000 HD
ATOM     10  H   UNL     1       8.919   4.346  16.649  0.00  0.00    +0.000 HD
ENDBRANCH   5   8
BRANCH   4  11
ATOM     11  C   UNL     1       7.685   6.026  19.289  0.00  0.00    +0.000 C 
ATOM     12  O   UNL     1       7.875   5.328  20.275  0.00  0.00    +0.000 OA
BRANCH  11  13
ATOM     13  O   UNL     1       8.490   7.091  19.074  0.00  0.00    +0.000 OA
ATOM     14  H   UNL     1       8.321   7.709  18.351  0.00  0.00    +0.000 HD
ENDBRANCH  11  13
ENDBRANCH   4  11
TORSDOF 3
ENDMDL
MODEL 7
REMARK VINA RESULT:      -5.4      4.904      5.971
REMARK  Name = 
REMARK  4 active torsions:
REMARK  status: ('A' for Active; 'I' for Inactive)
REMARK    1  A    between atoms: C_4  and  C_5
REMARK    2  A    between atoms: C_5  and  O_7
REMARK    3  A    between atoms: C_8  and  N_9
REMARK    4  A    between atoms: C_10  and  C_11
REMARK                            x       y       z     vdW  Elec       q    Type
REMARK                         _______ _______ _______ _____ _____    ______ ____
ROOT
ATOM      1  C   UNL     1       3.789   6.647  17.770  0.00  0.00    +0.000 C 
ATOM      2  C   UNL     1       4.951   6.097  17.393  0.00  0.00    +0.000 C 
ATOM      3  C   UNL     1       5.580   6.314  16.063  0.00  0.00    +0.000 C 
ATOM      4  C   UNL     1       5.825   4.864  15.676  0.00  0.00    +0.000 C 
ATOM      5  C   UNL     1       6.381   4.223  16.982  0.00  0.00    +0.000 C 
ATOM      6  C   UNL     1       5.733   5.046  18.136  0.00  0.00    +0.000 C 
ATOM      7  C   UNL     1       4.922   4.182  19.107  0.00  0.00    +0.000 C 
ENDROOT
BRANCH   5   8
ATOM      8  N   UNL     1       7.845   4.301  17.084  0.00  0.00    +0.000 NA
ATOM      9  H   UNL     1       8.224   3.511  17.654  0.00  0.00    +0.000 HD
ATOM     10  H   UNL     1       8.120   5.205  17.529  0.00  0.00    +0.000 HD
ENDBRANCH   5   8
BRANCH   4  11
ATOM     11  C   UNL     1       6.668   4.656  14.437  0.00  0.00    +0.000 C 
ATOM     12  O   UNL     1       6.370   3.795  13.621  0.00  0.00    +0.000 OA
BRANCH  11  13
ATOM     13  O   UNL     1       7.765   5.415  14.218  0.00  0.00    +0.000 OA
ATOM     14  H   UNL     1       8.634   5.015  14.089  0.00  0.00    +0.000 HD
ENDBRANCH  11  13
ENDBRANCH   4  11
TORSDOF 3
ENDMDL
MODEL 8
REMARK VINA RESULT:      -5.4      4.191      5.129
REMARK  Name = 
REMARK  4 active torsions:
REMARK  status: ('A' for Active; 'I' for Inactive)
REMARK    1  A    between atoms: C_4  and  C_5
REMARK    2  A    between atoms: C_5  and  O_7
REMARK    3  A    between atoms: C_8  and  N_9
REMARK    4  A    between atoms: C_10  and  C_11
REMARK                            x       y       z     vdW  Elec       q    Type
REMARK                         _______ _______ _______ _____ _____    ______ ____
ROOT
ATOM      1  C   UNL     1       2.536   6.321  17.865  0.00  0.00    +0.000 C 
ATOM      2  C   UNL     1       3.812   6.137  18.230  0.00  0.00    +0.000 C 
ATOM      3  C   UNL     1       4.980   6.522  17.393  0.00  0.00    +0.000 C 
ATOM      4  C   UNL     1       5.743   5.207  17.430  0.00  0.00    +0.000 C 
ATOM      5  C   UNL     1       5.649   4.768  18.923  0.00  0.00    +0.000 C 
ATOM      6  C   UNL     1       4.304   5.370  19.429  0.00  0.00    +0.000 C 
ATOM      7  C   UNL     1       3.341   4.311  19.977  0.00  0.00    +0.000 C 
ENDROOT
BRANCH   5   8
ATOM      8  N   UNL     1       6.756   5.277  19.742  0.00  0.00    +0.000 NA
ATOM      9  H   UNL     1       6.960   6.278  19.517  0.00  0.00    +0.000 HD
ATOM     10  H   UNL     1       7.614   4.708  19.571  0.00  0.00    +0.000 HD
ENDBRANCH   5   8
BRANCH   4  11
ATOM     11  C   UNL     1       7.139   5.249  16.849  0.00  0.00    +0.000 C 
ATOM     12  O   UNL     1       7.943   4.363  17.100  0.00  0.00    +0.000 OA
BRANCH  11  13
ATOM     13  O   UNL     1       7.518   6.272  16.049  0.00  0.00    +0.000 OA
ATOM     14  H   UNL     1       8.431   6.360  15.748  0.00  0.00    +0.000 HD
ENDBRANCH  11  13
ENDBRANCH   4  11
TORSDOF 3
ENDMDL
MODEL 9
REMARK VINA RESULT:      -5.3      2.982      3.973
REMARK  Name = 
REMARK  4 active torsions:
REMARK  status: ('A' for Active; 'I' for Inactive)
REMARK    1  A    between atoms: C_4  and  C_5
REMARK    2  A    between atoms: C_5  and  O_7
REMARK    3  A    between atoms: C_8  and  N_9
REMARK    4  A    between atoms: C_10  and  C_11
REMARK                            x       y       z     vdW  Elec       q    Type
REMARK                         _______ _______ _______ _____ _____    ______ ____
ROOT
ATOM      1  C   UNL     1       1.725   5.701  20.578  0.00  0.00    +0.000 C 
ATOM      2  C   UNL     1       2.741   4.869  20.310  0.00  0.00    +0.000 C 
ATOM      3  C   UNL     1       3.964   5.264  19.561  0.00  0.00    +0.000 C 
ATOM      4  C   UNL     1       3.985   4.144  18.532  0.00  0.00    +0.000 C 
ATOM      5  C   UNL     1       3.660   2.870  19.369  0.00  0.00    +0.000 C 
ATOM      6  C   UNL     1       2.772   3.382  20.543  0.00  0.00    +0.000 C 
ATOM      7  C   UNL     1       1.404   2.694  20.604  0.00  0.00    +0.000 C 
ENDROOT
BRANCH   5   8
ATOM      8  N   UNL     1       4.859   2.215  19.908  0.00  0.00    +0.000 NA
ATOM      9  H   UNL     1       4.612   1.327  20.402  0.00  0.00    +0.000 HD
ATOM     10  H   UNL     1       5.340   2.855  20.579  0.00  0.00    +0.000 HD
ENDBRANCH   5   8
BRANCH   4  11
ATOM     11  C   UNL     1       5.234   4.066  17.683  0.00  0.00    +0.000 C 
ATOM     12  O   UNL     1       5.153   3.997  16.465  0.00  0.00    +0.000 OA
BRANCH  11  13
ATOM     13  O   UNL     1       6.457   4.064  18.260  0.00  0.00    +0.000 OA
ATOM     14  H   UNL     1       6.610   3.627  19.108  0.00  0.00    +0.000 HD
ENDBRANCH  11  13
ENDBRANCH   4  11
TORSDOF 3
ENDMDL
