MODEL 1
REMARK VINA RESULT:      -8.4      0.000      0.000
REMARK  Name = 
REMARK  7 active torsions:
REMARK  status: ('A' for Active; 'I' for Inactive)
REMARK    1  A    between atoms: C_1  and  C_2
REMARK    2  A    between atoms: C_2  and  N_3
REMARK    3  A    between atoms: C_7  and  C_9
REMARK    4  A    between atoms: N_11  and  C_12
REMARK    5  A    between atoms: C_12  and  C_13
REMARK    6  A    between atoms: C_20  and  O_21
REMARK    7  A    between atoms: O_21  and  C_22
REMARK                            x       y       z     vdW  Elec       q    Type
REMARK                         _______ _______ _______ _____ _____    ______ ____
ROOT
ATOM      1  C   UNL     1       2.179   6.947  19.602  0.00  0.00    +0.000 A 
ATOM      2  C   UNL     1       3.117   6.991  18.577  0.00  0.00    +0.000 A 
ATOM      3  N   UNL     1       3.518   5.749  18.229  0.00  0.00    +0.000 N 
ATOM      4  C   UNL     1       2.803   4.879  18.991  0.00  0.00    +0.000 A 
ATOM      5  C   UNL     1       2.825   3.469  19.006  0.00  0.00    +0.000 A 
ATOM      6  C   UNL     1       1.956   2.803  19.904  0.00  0.00    +0.000 A 
ATOM      7  C   UNL     1       1.103   3.534  20.747  0.00  0.00    +0.000 A 
ATOM      8  C   UNL     1       1.103   4.933  20.722  0.00  0.00    +0.000 A 
ATOM      9  C   UNL     1       1.962   5.586  19.830  0.00  0.00    +0.000 A 
ENDROOT
BRANCH   1  14
ATOM     10  N   UNL     1       1.265  12.031  19.108  0.00  0.00    +0.000 NA
ATOM     11  C   UNL     1       1.088  11.513  20.477  0.00  0.00    +0.000 C 
ATOM     12  C   UNL     1       0.282  10.222  20.485  0.00  0.00    +0.000 C 
ATOM     13  N   UNL     1       1.001   9.233  19.691  0.00  0.00    +0.000 N 
ATOM     14  C   UNL     1       1.496   8.085  20.298  0.00  0.00    +0.000 C 
ATOM     15  O   UNL     1       1.387   7.972  21.509  0.00  0.00    +0.000 OA
ATOM     16  C   UNL     1       1.171   9.616  18.287  0.00  0.00    +0.000 C 
ATOM     17  C   UNL     1       1.800  11.025  18.161  0.00  0.00    +0.000 C 
BRANCH  10  19
ATOM     18  C   UNL     1       0.271  14.251  19.458  0.00  0.00    +0.000 C 
ATOM     19  C   UNL     1       0.217  12.954  18.631  0.00  0.00    +0.000 C 
ENDBRANCH  10  19
ENDBRANCH   1  14
BRANCH   5  20
ATOM     20  O   UNL     1       3.659   2.779  18.179  0.00  0.00    +0.000 OA
ATOM     21  C   UNL     1       3.765   1.406  18.097  0.00  0.00    +0.000 C 
ENDBRANCH   5  20
BRANCH   3  22
ATOM     22  C   UNL     1       4.543   5.516  17.209  0.00  0.00    +0.000 C 
BRANCH  22  23
ATOM     23  C   UNL     1       5.874   6.040  17.695  0.00  0.00    +0.000 A 
ATOM     24  C   UNL     1       6.545   5.398  18.751  0.00  0.00    +0.000 A 
ATOM     25  C   UNL     1       7.767   5.895  19.217  0.00  0.00    +0.000 A 
ATOM     26  C   UNL     1       8.331   7.032  18.631  0.00  0.00    +0.000 A 
ATOM     27  C   UNL     1       7.671   7.676  17.581  0.00  0.00    +0.000 A 
ATOM     28  C   UNL     1       6.447   7.186  17.114  0.00  0.00    +0.000 A 
ENDBRANCH  22  23
ENDBRANCH   3  22
TORSDOF 5
ENDMDL
MODEL 2
REMARK VINA RESULT:      -8.1      2.063      2.901
REMARK  Name = 
REMARK  7 active torsions:
REMARK  status: ('A' for Active; 'I' for Inactive)
REMARK    1  A    between atoms: C_1  and  C_2
REMARK    2  A    between atoms: C_2  and  N_3
REMARK    3  A    between atoms: C_7  and  C_9
REMARK    4  A    between atoms: N_11  and  C_12
REMARK    5  A    between atoms: C_12  and  C_13
REMARK    6  A    between atoms: C_20  and  O_21
REMARK    7  A    between atoms: O_21  and  C_22
REMARK                            x       y       z     vdW  Elec       q    Type
REMARK                         _______ _______ _______ _____ _____    ______ ____
ROOT
ATOM      1  C   UNL     1       2.904   6.682  18.588  0.00  0.00    +0.000 A 
ATOM      2  C   UNL     1       4.176   6.324  18.154  0.00  0.00    +0.000 A 
ATOM      3  N   UNL     1       4.475   5.058  18.516  0.00  0.00    +0.000 N 
ATOM      4  C   UNL     1       3.377   4.560  19.145  0.00  0.00    +0.000 A 
ATOM      5  C   UNL     1       3.160   3.280  19.696  0.00  0.00    +0.000 A 
ATOM      6  C   UNL     1       1.901   3.020  20.290  0.00  0.00    +0.000 A 
ATOM      7  C   UNL     1       0.908   4.013  20.322  0.00  0.00    +0.000 A 
ATOM      8  C   UNL     1       1.147   5.279  19.777  0.00  0.00    +0.000 A 
ATOM      9  C   UNL     1       2.393   5.528  19.188  0.00  0.00    +0.000 A 
ENDROOT
BRANCH   1  14
ATOM     10  N   UNL     1      -0.455   9.800  21.023  0.00  0.00    +0.000 NA
ATOM     11  C   UNL     1      -0.331  10.053  19.577  0.00  0.00    +0.000 C 
ATOM     12  C   UNL     1       1.127  10.094  19.140  0.00  0.00    +0.000 C 
ATOM     13  N   UNL     1       1.730   8.803  19.450  0.00  0.00    +0.000 N 
ATOM     14  C   UNL     1       2.191   7.990  18.423  0.00  0.00    +0.000 C 
ATOM     15  O   UNL     1       2.003   8.344  17.269  0.00  0.00    +0.000 OA
ATOM     16  C   UNL     1       1.725   8.480  20.879  0.00  0.00    +0.000 C 
ATOM     17  C   UNL     1       0.306   8.613  21.482  0.00  0.00    +0.000 C 
BRANCH  10  19
ATOM     18  C   UNL     1      -1.205  10.666  23.196  0.00  0.00    +0.000 C 
ATOM     19  C   UNL     1      -0.471  10.998  21.885  0.00  0.00    +0.000 C 
ENDBRANCH  10  19
ENDBRANCH   1  14
BRANCH   5  20
ATOM     20  O   UNL     1       4.136   2.331  19.654  0.00  0.00    +0.000 OA
ATOM     21  C   UNL     1       4.782   1.783  20.743  0.00  0.00    +0.000 C 
ENDBRANCH   5  20
BRANCH   3  22
ATOM     22  C   UNL     1       5.777   4.450  18.230  0.00  0.00    +0.000 C 
BRANCH  22  23
ATOM     23  C   UNL     1       6.038   4.482  16.743  0.00  0.00    +0.000 A 
ATOM     24  C   UNL     1       5.136   3.872  15.853  0.00  0.00    +0.000 A 
ATOM     25  C   UNL     1       5.386   3.882  14.477  0.00  0.00    +0.000 A 
ATOM     26  C   UNL     1       6.534   4.503  13.977  0.00  0.00    +0.000 A 
ATOM     27  C   UNL     1       7.436   5.112  14.854  0.00  0.00    +0.000 A 
ATOM     28  C   UNL     1       7.193   5.102  16.231  0.00  0.00    +0.000 A 
ENDBRANCH  22  23
ENDBRANCH   3  22
TORSDOF 5
ENDMDL
MODEL 3
REMARK VINA RESULT:      -7.4      1.245      1.776
REMARK  Name = 
REMARK  7 active torsions:
REMARK  status: ('A' for Active; 'I' for Inactive)
REMARK    1  A    between atoms: C_1  and  C_2
REMARK    2  A    between atoms: C_2  and  N_3
REMARK    3  A    between atoms: C_7  and  C_9
REMARK    4  A    between atoms: N_11  and  C_12
REMARK    5  A    between atoms: C_12  and  C_13
REMARK    6  A    between atoms: C_20  and  O_21
REMARK    7  A    between atoms: O_21  and  C_22
REMARK                            x       y       z     vdW  Elec       q    Type
REMARK                         _______ _______ _______ _____ _____    ______ ____
ROOT
ATOM      1  C   UNL     1       2.378   6.614  20.080  0.00  0.00    +0.000 A 
ATOM      2  C   UNL     1       3.684   6.615  19.603  0.00  0.00    +0.000 A 
ATOM      3  N   UNL     1       4.110   5.360  19.346  0.00  0.00    +0.000 N 
ATOM      4  C   UNL     1       3.064   4.530  19.604  0.00  0.00    +0.000 A 
ATOM      5  C   UNL     1       2.976   3.128  19.478  0.00  0.00    +0.000 A 
ATOM      6  C   UNL     1       1.745   2.511  19.808  0.00  0.00    +0.000 A 
ATOM      7  C   UNL     1       0.654   3.280  20.244  0.00  0.00    +0.000 A 
ATOM      8  C   UNL     1       0.766   4.669  20.370  0.00  0.00    +0.000 A 
ATOM      9  C   UNL     1       1.984   5.275  20.039  0.00  0.00    +0.000 A 
ENDROOT
BRANCH   1  14
ATOM     10  N   UNL     1       1.403  11.565  18.872  0.00  0.00    +0.000 NA
ATOM     11  C   UNL     1       0.982  11.179  20.230  0.00  0.00    +0.000 C 
ATOM     12  C   UNL     1       0.234   9.852  20.226  0.00  0.00    +0.000 C 
ATOM     13  N   UNL     1       1.127   8.830  19.695  0.00  0.00    +0.000 N 
ATOM     14  C   UNL     1       1.535   7.777  20.506  0.00  0.00    +0.000 C 
ATOM     15  O   UNL     1       1.196   7.780  21.680  0.00  0.00    +0.000 OA
ATOM     16  C   UNL     1       1.553   9.079  18.316  0.00  0.00    +0.000 C 
ATOM     17  C   UNL     1       2.146  10.500  18.158  0.00  0.00    +0.000 C 
BRANCH  10  19
ATOM     18  C   UNL     1      -0.170  13.446  19.035  0.00  0.00    +0.000 C 
ATOM     19  C   UNL     1       0.436  12.378  18.108  0.00  0.00    +0.000 C 
ENDBRANCH  10  19
ENDBRANCH   1  14
BRANCH   5  20
ATOM     20  O   UNL     1       4.045   2.401  19.052  0.00  0.00    +0.000 OA
ATOM     21  C   UNL     1       3.993   1.180  18.411  0.00  0.00    +0.000 C 
ENDBRANCH   5  20
BRANCH   3  22
ATOM     22  C   UNL     1       5.471   5.075  18.884  0.00  0.00    +0.000 C 
BRANCH  22  23
ATOM     23  C   UNL     1       5.510   5.096  17.374  0.00  0.00    +0.000 A 
ATOM     24  C   UNL     1       5.857   3.936  16.658  0.00  0.00    +0.000 A 
ATOM     25  C   UNL     1       5.915   3.959  15.261  0.00  0.00    +0.000 A 
ATOM     26  C   UNL     1       5.622   5.136  14.567  0.00  0.00    +0.000 A 
ATOM     27  C   UNL     1       5.276   6.294  15.269  0.00  0.00    +0.000 A 
ATOM     28  C   UNL     1       5.221   6.277  16.666  0.00  0.00    +0.000 A 
ENDBRANCH  22  23
ENDBRANCH   3  22
TORSDOF 5
ENDMDL
MODEL 4
REMARK VINA RESULT:      -7.2      1.517      2.344
REMARK  Name = 
REMARK  7 active torsions:
REMARK  status: ('A' for Active; 'I' for Inactive)
REMARK    1  A    between atoms: C_1  and  C_2
REMARK    2  A    between atoms: C_2  and  N_3
REMARK    3  A    between atoms: C_7  and  C_9
REMARK    4  A    between atoms: N_11  and  C_12
REMARK    5  A    between atoms: C_12  and  C_13
REMARK    6  A    between atoms: C_20  and  O_21
REMARK    7  A    between atoms: O_21  and  C_22
REMARK                            x       y       z     vdW  Elec       q    Type
REMARK                         _______ _______ _______ _____ _____    ______ ____
ROOT
ATOM      1  C   UNL     1       2.276   7.247  18.539  0.00  0.00    +0.000 A 
ATOM      2  C   UNL     1       3.396   7.009  17.750  0.00  0.00    +0.000 A 
ATOM      3  N   UNL     1       3.834   5.740  17.897  0.00  0.00    +0.000 N 
ATOM      4  C   UNL     1       2.970   5.122  18.746  0.00  0.00    +0.000 A 
ATOM      5  C   UNL     1       2.964   3.791  19.211  0.00  0.00    +0.000 A 
ATOM      6  C   UNL     1       1.926   3.403  20.092  0.00  0.00    +0.000 A 
ATOM      7  C   UNL     1       0.939   4.323  20.483  0.00  0.00    +0.000 A 
ATOM      8  C   UNL     1       0.968   5.642  20.015  0.00  0.00    +0.000 A 
ATOM      9  C   UNL     1       1.996   6.019  19.141  0.00  0.00    +0.000 A 
ENDROOT
BRANCH   1  14
ATOM     10  N   UNL     1      -0.709   9.769  21.954  0.00  0.00    +0.000 NA
ATOM     11  C   UNL     1      -0.861  10.227  20.562  0.00  0.00    +0.000 C 
ATOM     12  C   UNL     1       0.491  10.425  19.889  0.00  0.00    +0.000 C 
ATOM     13  N   UNL     1       1.192   9.147  19.896  0.00  0.00    +0.000 N 
ATOM     14  C   UNL     1       1.492   8.515  18.695  0.00  0.00    +0.000 C 
ATOM     15  O   UNL     1       1.083   9.011  17.656  0.00  0.00    +0.000 OA
ATOM     16  C   UNL     1       1.461   8.630  21.240  0.00  0.00    +0.000 C 
ATOM     17  C   UNL     1       0.170   8.584  22.094  0.00  0.00    +0.000 C 
BRANCH  10  19
ATOM     18  C   UNL     1      -1.908  11.669  22.948  0.00  0.00    +0.000 C 
ATOM     19  C   UNL     1      -0.617  10.833  22.973  0.00  0.00    +0.000 C 
ENDBRANCH  10  19
ENDBRANCH   1  14
BRANCH   5  20
ATOM     20  O   UNL     1       3.929   2.914  18.819  0.00  0.00    +0.000 OA
ATOM     21  C   UNL     1       3.742   1.579  18.528  0.00  0.00    +0.000 C 
ENDBRANCH   5  20
BRANCH   3  22
ATOM     22  C   UNL     1       5.034   5.244  17.217  0.00  0.00    +0.000 C 
BRANCH  22  23
ATOM     23  C   UNL     1       6.252   5.967  17.740  0.00  0.00    +0.000 A 
ATOM     24  C   UNL     1       6.680   7.162  17.135  0.00  0.00    +0.000 A 
ATOM     25  C   UNL     1       7.820   7.822  17.606  0.00  0.00    +0.000 A 
ATOM     26  C   UNL     1       8.538   7.299  18.684  0.00  0.00    +0.000 A 
ATOM     27  C   UNL     1       8.120   6.112  19.292  0.00  0.00    +0.000 A 
ATOM     28  C   UNL     1       6.983   5.446  18.824  0.00  0.00    +0.000 A 
ENDBRANCH  22  23
ENDBRANCH   3  22
TORSDOF 5
ENDMDL
MODEL 5
REMARK VINA RESULT:      -7.1      0.933      1.060
REMARK  Name = 
REMARK  7 active torsions:
REMARK  status: ('A' for Active; 'I' for Inactive)
REMARK    1  A    between atoms: C_1  and  C_2
REMARK    2  A    between atoms: C_2  and  N_3
REMARK    3  A    between atoms: C_7  and  C_9
REMARK    4  A    between atoms: N_11  and  C_12
REMARK    5  A    between atoms: C_12  and  C_13
REMARK    6  A    between atoms: C_20  and  O_21
REMARK    7  A    between atoms: O_21  and  C_22
REMARK                            x       y       z     vdW  Elec       q    Type
REMARK                         _______ _______ _______ _____ _____    ______ ____
ROOT
ATOM      1  C   UNL     1       2.062   7.212  19.730  0.00  0.00    +0.000 A 
ATOM      2  C   UNL     1       2.891   7.360  18.624  0.00  0.00    +0.000 A 
ATOM      3  N   UNL     1       3.227   6.161  18.103  0.00  0.00    +0.000 N 
ATOM      4  C   UNL     1       2.575   5.218  18.835  0.00  0.00    +0.000 A 
ATOM      5  C   UNL     1       2.567   3.815  18.693  0.00  0.00    +0.000 A 
ATOM      6  C   UNL     1       1.780   3.063  19.598  0.00  0.00    +0.000 A 
ATOM      7  C   UNL     1       1.034   3.704  20.600  0.00  0.00    +0.000 A 
ATOM      8  C   UNL     1       1.062   5.098  20.729  0.00  0.00    +0.000 A 
ATOM      9  C   UNL     1       1.840   5.837  19.828  0.00  0.00    +0.000 A 
ENDROOT
BRANCH   1  14
ATOM     10  N   UNL     1       0.662  12.209  19.673  0.00  0.00    +0.000 NA
ATOM     11  C   UNL     1       0.859  11.650  21.022  0.00  0.00    +0.000 C 
ATOM     12  C   UNL     1       0.181  10.294  21.169  0.00  0.00    +0.000 C 
ATOM     13  N   UNL     1       0.765   9.387  20.188  0.00  0.00    +0.000 N 
ATOM     14  C   UNL     1       1.479   8.273  20.613  0.00  0.00    +0.000 C 
ATOM     15  O   UNL     1       1.672   8.126  21.810  0.00  0.00    +0.000 OA
ATOM     16  C   UNL     1       0.563   9.812  18.801  0.00  0.00    +0.000 C 
ATOM     17  C   UNL     1       1.032  11.272  18.586  0.00  0.00    +0.000 C 
BRANCH  10  19
ATOM     18  C   UNL     1      -0.166  14.295  18.674  0.00  0.00    +0.000 C 
ATOM     19  C   UNL     1      -0.538  13.049  19.496  0.00  0.00    +0.000 C 
ENDBRANCH  10  19
ENDBRANCH   1  14
BRANCH   5  20
ATOM     20  O   UNL     1       3.297   3.213  17.714  0.00  0.00    +0.000 OA
ATOM     21  C   UNL     1       3.786   1.923  17.744  0.00  0.00    +0.000 C 
ENDBRANCH   5  20
BRANCH   3  22
ATOM     22  C   UNL     1       4.137   6.031  16.962  0.00  0.00    +0.000 C 
BRANCH  22  23
ATOM     23  C   UNL     1       5.502   5.599  17.446  0.00  0.00    +0.000 A 
ATOM     24  C   UNL     1       5.946   5.965  18.729  0.00  0.00    +0.000 A 
ATOM     25  C   UNL     1       7.217   5.584  19.172  0.00  0.00    +0.000 A 
ATOM     26  C   UNL     1       8.052   4.833  18.341  0.00  0.00    +0.000 A 
ATOM     27  C   UNL     1       7.620   4.465  17.064  0.00  0.00    +0.000 A 
ATOM     28  C   UNL     1       6.351   4.846  16.615  0.00  0.00    +0.000 A 
ENDBRANCH  22  23
ENDBRANCH   3  22
TORSDOF 5
ENDMDL
MODEL 6
REMARK VINA RESULT:      -7.1      1.954      4.571
REMARK  Name = 
REMARK  7 active torsions:
REMARK  status: ('A' for Active; 'I' for Inactive)
REMARK    1  A    between atoms: C_1  and  C_2
REMARK    2  A    between atoms: C_2  and  N_3
REMARK    3  A    between atoms: C_7  and  C_9
REMARK    4  A    between atoms: N_11  and  C_12
REMARK    5  A    between atoms: C_12  and  C_13
REMARK    6  A    between atoms: C_20  and  O_21
REMARK    7  A    between atoms: O_21  and  C_22
REMARK                            x       y       z     vdW  Elec       q    Type
REMARK                         _______ _______ _______ _____ _____    ______ ____
ROOT
ATOM      1  C   UNL     1       2.577   7.449  18.035  0.00  0.00    +0.000 A 
ATOM      2  C   UNL     1       1.979   6.197  18.126  0.00  0.00    +0.000 A 
ATOM      3  N   UNL     1       2.836   5.220  17.759  0.00  0.00    +0.000 N 
ATOM      4  C   UNL     1       4.021   5.824  17.475  0.00  0.00    +0.000 A 
ATOM      5  C   UNL     1       5.245   5.255  17.066  0.00  0.00    +0.000 A 
ATOM      6  C   UNL     1       6.339   6.127  16.847  0.00  0.00    +0.000 A 
ATOM      7  C   UNL     1       6.199   7.511  17.036  0.00  0.00    +0.000 A 
ATOM      8  C   UNL     1       4.973   8.056  17.435  0.00  0.00    +0.000 A 
ATOM      9  C   UNL     1       3.895   7.188  17.653  0.00  0.00    +0.000 A 
ENDROOT
BRANCH   1  14
ATOM     10  N   UNL     1      -0.587   9.847  21.377  0.00  0.00    +0.000 NA
ATOM     11  C   UNL     1      -0.393  10.564  20.104  0.00  0.00    +0.000 C 
ATOM     12  C   UNL     1       1.077  10.618  19.712  0.00  0.00    +0.000 C 
ATOM     13  N   UNL     1       1.558   9.249  19.565  0.00  0.00    +0.000 N 
ATOM     14  C   UNL     1       1.983   8.794  18.324  0.00  0.00    +0.000 C 
ATOM     15  O   UNL     1       1.865   9.535  17.359  0.00  0.00    +0.000 OA
ATOM     16  C   UNL     1       1.477   8.462  20.798  0.00  0.00    +0.000 C 
ATOM     17  C   UNL     1       0.054   8.511  21.406  0.00  0.00    +0.000 C 
BRANCH  10  19
ATOM     18  C   UNL     1      -1.518  11.850  22.454  0.00  0.00    +0.000 C 
ATOM     19  C   UNL     1      -0.531  10.677  22.596  0.00  0.00    +0.000 C 
ENDBRANCH  10  19
ENDBRANCH   1  14
BRANCH   5  20
ATOM     20  O   UNL     1       5.361   3.910  16.889  0.00  0.00    +0.000 OA
ATOM     21  C   UNL     1       5.756   3.275  15.730  0.00  0.00    +0.000 C 
ENDBRANCH   5  20
BRANCH   3  22
ATOM     22  C   UNL     1       2.441   3.810  17.712  0.00  0.00    +0.000 C 
BRANCH  22  23
ATOM     23  C   UNL     1       2.324   3.267  19.117  0.00  0.00    +0.000 A 
ATOM     24  C   UNL     1       1.077   3.247  19.767  0.00  0.00    +0.000 A 
ATOM     25  C   UNL     1       0.971   2.765  21.076  0.00  0.00    +0.000 A 
ATOM     26  C   UNL     1       2.105   2.295  21.744  0.00  0.00    +0.000 A 
ATOM     27  C   UNL     1       3.348   2.310  21.106  0.00  0.00    +0.000 A 
ATOM     28  C   UNL     1       3.461   2.795  19.799  0.00  0.00    +0.000 A 
ENDBRANCH  22  23
ENDBRANCH   3  22
TORSDOF 5
ENDMDL
MODEL 7
REMARK VINA RESULT:      -7.0      1.998      2.955
REMARK  Name = 
REMARK  7 active torsions:
REMARK  status: ('A' for Active; 'I' for Inactive)
REMARK    1  A    between atoms: C_1  and  C_2
REMARK    2  A    between atoms: C_2  and  N_3
REMARK    3  A    between atoms: C_7  and  C_9
REMARK    4  A    between atoms: N_11  and  C_12
REMARK    5  A    between atoms: C_12  and  C_13
REMARK    6  A    between atoms: C_20  and  O_21
REMARK    7  A    between atoms: O_21  and  C_22
REMARK                            x       y       z     vdW  Elec       q    Type
REMARK                         _______ _______ _______ _____ _____    ______ ____
ROOT
ATOM      1  C   UNL     1       2.594   7.291  18.989  0.00  0.00    +0.000 A 
ATOM      2  C   UNL     1       3.879   7.130  18.483  0.00  0.00    +0.000 A 
ATOM      3  N   UNL     1       4.359   5.897  18.755  0.00  0.00    +0.000 N 
ATOM      4  C   UNL     1       3.368   5.224  19.398  0.00  0.00    +0.000 A 
ATOM      5  C   UNL     1       3.346   3.898  19.880  0.00  0.00    +0.000 A 
ATOM      6  C   UNL     1       2.163   3.441  20.508  0.00  0.00    +0.000 A 
ATOM      7  C   UNL     1       1.052   4.289  20.641  0.00  0.00    +0.000 A 
ATOM      8  C   UNL     1       1.096   5.604  20.163  0.00  0.00    +0.000 A 
ATOM      9  C   UNL     1       2.268   6.049  19.539  0.00  0.00    +0.000 A 
ENDROOT
BRANCH   1  14
ATOM     10  N   UNL     1      -0.680  10.054  21.917  0.00  0.00    +0.000 NA
ATOM     11  C   UNL     1      -0.825  10.279  20.468  0.00  0.00    +0.000 C 
ATOM     12  C   UNL     1       0.527  10.481  19.797  0.00  0.00    +0.000 C 
ATOM     13  N   UNL     1       1.325   9.281  20.015  0.00  0.00    +0.000 N 
ATOM     14  C   UNL     1       1.709   8.499  18.932  0.00  0.00    +0.000 C 
ATOM     15  O   UNL     1       1.294   8.795  17.822  0.00  0.00    +0.000 OA
ATOM     16  C   UNL     1       1.592   9.000  21.428  0.00  0.00    +0.000 C 
ATOM     17  C   UNL     1       0.284   8.980  22.255  0.00  0.00    +0.000 C 
BRANCH  10  19
ATOM     18  C   UNL     1      -2.160  11.716  22.959  0.00  0.00    +0.000 C 
ATOM     19  C   UNL     1      -0.703  11.265  22.760  0.00  0.00    +0.000 C 
ENDBRANCH  10  19
ENDBRANCH   1  14
BRANCH   5  20
ATOM     20  O   UNL     1       4.435   3.092  19.740  0.00  0.00    +0.000 OA
ATOM     21  C   UNL     1       4.638   1.885  20.378  0.00  0.00    +0.000 C 
ENDBRANCH   5  20
BRANCH   3  22
ATOM     22  C   UNL     1       5.714   5.485  18.380  0.00  0.00    +0.000 C 
BRANCH  22  23
ATOM     23  C   UNL     1       5.747   5.121  16.914  0.00  0.00    +0.000 A 
ATOM     24  C   UNL     1       5.389   6.070  15.940  0.00  0.00    +0.000 A 
ATOM     25  C   UNL     1       5.398   5.728  14.584  0.00  0.00    +0.000 A 
ATOM     26  C   UNL     1       5.769   4.440  14.188  0.00  0.00    +0.000 A 
ATOM     27  C   UNL     1       6.127   3.490  15.149  0.00  0.00    +0.000 A 
ATOM     28  C   UNL     1       6.116   3.825  16.506  0.00  0.00    +0.000 A 
ENDBRANCH  22  23
ENDBRANCH   3  22
TORSDOF 5
ENDMDL
MODEL 8
REMARK VINA RESULT:      -6.8      2.531      8.178
REMARK  Name = 
REMARK  7 active torsions:
REMARK  status: ('A' for Active; 'I' for Inactive)
REMARK    1  A    between atoms: C_1  and  C_2
REMARK    2  A    between atoms: C_2  and  N_3
REMARK    3  A    between atoms: C_7  and  C_9
REMARK    4  A    between atoms: N_11  and  C_12
REMARK    5  A    between atoms: C_12  and  C_13
REMARK    6  A    between atoms: C_20  and  O_21
REMARK    7  A    between atoms: O_21  and  C_22
REMARK                            x       y       z     vdW  Elec       q    Type
REMARK                         _______ _______ _______ _____ _____    ______ ____
ROOT
ATOM      1  C   UNL     1       1.848   8.593  18.678  0.00  0.00    +0.000 A 
ATOM      2  C   UNL     1       1.299   9.653  17.963  0.00  0.00    +0.000 A 
ATOM      3  N   UNL     1       0.527  10.427  18.755  0.00  0.00    +0.000 N 
ATOM      4  C   UNL     1       0.609   9.908  20.010  0.00  0.00    +0.000 A 
ATOM      5  C   UNL     1       0.011  10.352  21.207  0.00  0.00    +0.000 A 
ATOM      6  C   UNL     1       0.277   9.622  22.390  0.00  0.00    +0.000 A 
ATOM      7  C   UNL     1       1.113   8.494  22.361  0.00  0.00    +0.000 A 
ATOM      8  C   UNL     1       1.691   8.065  21.160  0.00  0.00    +0.000 A 
ATOM      9  C   UNL     1       1.426   8.794  19.994  0.00  0.00    +0.000 A 
ENDROOT
BRANCH   1  14
ATOM     10  N   UNL     1       2.983   3.607  19.555  0.00  0.00    +0.000 NA
ATOM     11  C   UNL     1       4.015   4.339  18.800  0.00  0.00    +0.000 C 
ATOM     12  C   UNL     1       3.402   5.173  17.683  0.00  0.00    +0.000 C 
ATOM     13  N   UNL     1       2.482   6.131  18.284  0.00  0.00    +0.000 N 
ATOM     14  C   UNL     1       2.738   7.492  18.186  0.00  0.00    +0.000 C 
ATOM     15  O   UNL     1       3.782   7.854  17.664  0.00  0.00    +0.000 OA
ATOM     16  C   UNL     1       1.369   5.505  19.004  0.00  0.00    +0.000 C 
ATOM     17  C   UNL     1       1.878   4.469  20.035  0.00  0.00    +0.000 C 
BRANCH  10  19
ATOM     18  C   UNL     1       1.128   2.155  18.854  0.00  0.00    +0.000 C 
ATOM     19  C   UNL     1       2.651   2.261  19.047  0.00  0.00    +0.000 C 
ENDBRANCH  10  19
ENDBRANCH   1  14
BRANCH   5  20
ATOM     20  O   UNL     1      -0.796  11.449  21.215  0.00  0.00    +0.000 OA
ATOM     21  C   UNL     1      -0.539  12.640  21.862  0.00  0.00    +0.000 C 
ENDBRANCH   5  20
BRANCH   3  22
ATOM     22  C   UNL     1      -0.213  11.581  18.239  0.00  0.00    +0.000 C 
BRANCH  22  23
ATOM     23  C   UNL     1      -1.647  11.188  17.973  0.00  0.00    +0.000 A 
ATOM     24  C   UNL     1      -1.940  10.127  17.098  0.00  0.00    +0.000 A 
ATOM     25  C   UNL     1      -3.268   9.775  16.835  0.00  0.00    +0.000 A 
ATOM     26  C   UNL     1      -4.313  10.475  17.444  0.00  0.00    +0.000 A 
ATOM     27  C   UNL     1      -4.032  11.531  18.315  0.00  0.00    +0.000 A 
ATOM     28  C   UNL     1      -2.706  11.889  18.579  0.00  0.00    +0.000 A 
ENDBRANCH  22  23
ENDBRANCH   3  22
TORSDOF 5
ENDMDL
MODEL 9
REMARK VINA RESULT:      -6.7      2.540      8.231
REMARK  Name = 
REMARK  7 active torsions:
REMARK  status: ('A' for Active; 'I' for Inactive)
REMARK    1  A    between atoms: C_1  and  C_2
REMARK    2  A    between atoms: C_2  and  N_3
REMARK    3  A    between atoms: C_7  and  C_9
REMARK    4  A    between atoms: N_11  and  C_12
REMARK    5  A    between atoms: C_12  and  C_13
REMARK    6  A    between atoms: C_20  and  O_21
REMARK    7  A    between atoms: O_21  and  C_22
REMARK                            x       y       z     vdW  Elec       q    Type
REMARK                         _______ _______ _______ _____ _____    ______ ____
ROOT
ATOM      1  C   UNL     1       1.880   8.510  18.667  0.00  0.00    +0.000 A 
ATOM      2  C   UNL     1       1.349   9.573  17.945  0.00  0.00    +0.000 A 
ATOM      3  N   UNL     1       0.594  10.368  18.734  0.00  0.00    +0.000 N 
ATOM      4  C   UNL     1       0.670   9.857  19.993  0.00  0.00    +0.000 A 
ATOM      5  C   UNL     1       0.084  10.322  21.189  0.00  0.00    +0.000 A 
ATOM      6  C   UNL     1       0.341   9.596  22.376  0.00  0.00    +0.000 A 
ATOM      7  C   UNL     1       1.156   8.452  22.353  0.00  0.00    +0.000 A 
ATOM      8  C   UNL     1       1.722   8.004  21.154  0.00  0.00    +0.000 A 
ATOM      9  C   UNL     1       1.467   8.728  19.983  0.00  0.00    +0.000 A 
ENDROOT
BRANCH   1  14
ATOM     10  N   UNL     1       2.804   3.466  19.463  0.00  0.00    +0.000 NA
ATOM     11  C   UNL     1       3.888   4.178  18.764  0.00  0.00    +0.000 C 
ATOM     12  C   UNL     1       3.347   5.059  17.646  0.00  0.00    +0.000 C 
ATOM     13  N   UNL     1       2.440   6.035  18.236  0.00  0.00    +0.000 N 
ATOM     14  C   UNL     1       2.749   7.389  18.181  0.00  0.00    +0.000 C 
ATOM     15  O   UNL     1       3.823   7.724  17.706  0.00  0.00    +0.000 OA
ATOM     16  C   UNL     1       1.281   5.435  18.900  0.00  0.00    +0.000 C 
ATOM     17  C   UNL     1       1.713   4.357  19.924  0.00  0.00    +0.000 C 
BRANCH  10  19
ATOM     18  C   UNL     1       3.726   1.406  18.491  0.00  0.00    +0.000 C 
ATOM     19  C   UNL     1       2.443   2.145  18.911  0.00  0.00    +0.000 C 
ENDBRANCH  10  19
ENDBRANCH   1  14
BRANCH   5  20
ATOM     20  O   UNL     1      -0.702  11.434  21.190  0.00  0.00    +0.000 OA
ATOM     21  C   UNL     1      -0.381  12.653  21.749  0.00  0.00    +0.000 C 
ENDBRANCH   5  20
BRANCH   3  22
ATOM     22  C   UNL     1      -0.127  11.531  18.211  0.00  0.00    +0.000 C 
BRANCH  22  23
ATOM     23  C   UNL     1      -1.574  11.169  17.974  0.00  0.00    +0.000 A 
ATOM     24  C   UNL     1      -2.600  11.923  18.572  0.00  0.00    +0.000 A 
ATOM     25  C   UNL     1      -3.940  11.575  18.370  0.00  0.00    +0.000 A 
ATOM     26  C   UNL     1      -4.267  10.478  17.569  0.00  0.00    +0.000 A 
ATOM     27  C   UNL     1      -3.255   9.723  16.972  0.00  0.00    +0.000 A 
ATOM     28  C   UNL     1      -1.913  10.063  17.172  0.00  0.00    +0.000 A 
ENDBRANCH  22  23
ENDBRANCH   3  22
TORSDOF 5
ENDMDL
