MODEL 1
REMARK VINA RESULT:      -6.3      0.000      0.000
REMARK  Name = 
REMARK  9 active torsions:
REMARK  status: ('A' for Active; 'I' for Inactive)
REMARK    1  A    between atoms: C_1  and  C_2
REMARK    2  A    between atoms: C_2  and  O_3
REMARK    3  A    between atoms: O_3  and  C_4
REMARK    4  A    between atoms: C_4  and  C_6
REMARK    5  A    between atoms: C_7  and  C_8
REMARK    6  A    between atoms: C_11  and  C_12
REMARK    7  A    between atoms: C_14  and  C_15
REMARK    8  A    between atoms: N_16  and  C_17
REMARK    9  A    between atoms: C_24  and  C_25
REMARK                            x       y       z     vdW  Elec       q    Type
REMARK                         _______ _______ _______ _____ _____    ______ ____
ROOT
ATOM      1  C   UNL     1       2.388   6.251  19.639  0.00  0.00    +0.000 C 
ATOM      2  C   UNL     1       3.291   6.295  18.630  0.00  0.00    +0.000 C 
ATOM      3  C   UNL     1       4.160   5.195  18.110  0.00  0.00    +0.000 C 
ATOM      4  N   UNL     1       3.296   7.518  17.978  0.00  0.00    +0.000 N 
ATOM      5  C   UNL     1       2.257   8.300  18.421  0.00  0.00    +0.000 C 
ATOM      6  C   UNL     1       1.720   9.396  17.871  0.00  0.00    +0.000 C 
ATOM      7  C   UNL     1       1.728   7.589  19.641  0.00  0.00    +0.000 C 
ATOM      8  O   UNL     1       0.948   8.013  20.471  0.00  0.00    +0.000 OA
ATOM      9  H   UNL     1       3.644   7.605  17.033  0.00  0.00    +0.000 HD
ENDROOT
BRANCH   6  10
ATOM     10  C   UNL     1       0.566  10.084  18.342  0.00  0.00    +0.000 A 
ATOM     11  C   UNL     1      -0.746   9.887  17.894  0.00  0.00    +0.000 A 
ATOM     12  C   UNL     1      -1.559  10.787  18.555  0.00  0.00    +0.000 A 
ATOM     13  C   UNL     1      -2.999  11.033  18.252  0.00  0.00    +0.000 C 
ATOM     14  N   UNL     1      -0.771  11.528  19.446  0.00  0.00    +0.000 N 
ATOM     15  C   UNL     1       0.549  11.058  19.328  0.00  0.00    +0.000 A 
ATOM     16  C   UNL     1       1.711  11.499  20.161  0.00  0.00    +0.000 C 
BRANCH  14  17
ATOM     17  C   UNL     1      -1.239  12.583  20.301  0.00  0.00    +0.000 A 
ATOM     18  C   UNL     1      -1.776  12.291  21.563  0.00  0.00    +0.000 A 
ATOM     19  C   UNL     1      -2.260  13.310  22.389  0.00  0.00    +0.000 A 
ATOM     20  C   UNL     1      -2.179  14.635  21.971  0.00  0.00    +0.000 A 
ATOM     21 BR   UNL     1      -2.817  16.013  23.097  0.00  0.00    +0.000 Br
ATOM     22  C   UNL     1      -1.632  14.946  20.730  0.00  0.00    +0.000 A 
ATOM     23  C   UNL     1      -1.179  13.922  19.888  0.00  0.00    +0.000 A 
ENDBRANCH  14  17
ENDBRANCH   6  10
BRANCH   1  24
ATOM     24  C   UNL     1       1.978   5.092  20.436  0.00  0.00    +0.000 C 
ATOM     25  O   UNL     1       2.515   4.732  21.475  0.00  0.00    +0.000 OA
BRANCH  24  26
ATOM     26  O   UNL     1       1.039   4.399  19.754  0.00  0.00    +0.000 OA
BRANCH  26  28
ATOM     27  C   UNL     1       1.353   2.327  18.626  0.00  0.00    +0.000 C 
ATOM     28  C   UNL     1       1.012   2.982  19.953  0.00  0.00    +0.000 C 
ENDBRANCH  26  28
ENDBRANCH  24  26
ENDBRANCH   1  24
TORSDOF 5
ENDMDL
MODEL 2
REMARK VINA RESULT:      -6.3      1.390      2.202
REMARK  Name = 
REMARK  9 active torsions:
REMARK  status: ('A' for Active; 'I' for Inactive)
REMARK    1  A    between atoms: C_1  and  C_2
REMARK    2  A    between atoms: C_2  and  O_3
REMARK    3  A    between atoms: O_3  and  C_4
REMARK    4  A    between atoms: C_4  and  C_6
REMARK    5  A    between atoms: C_7  and  C_8
REMARK    6  A    between atoms: C_11  and  C_12
REMARK    7  A    between atoms: C_14  and  C_15
REMARK    8  A    between atoms: N_16  and  C_17
REMARK    9  A    between atoms: C_24  and  C_25
REMARK                            x       y       z     vdW  Elec       q    Type
REMARK                         _______ _______ _______ _____ _____    ______ ____
ROOT
ATOM      1  C   UNL     1       2.217   6.357  19.591  0.00  0.00    +0.000 C 
ATOM      2  C   UNL     1       2.619   6.188  18.309  0.00  0.00    +0.000 C 
ATOM      3  C   UNL     1       2.873   4.910  17.575  0.00  0.00    +0.000 C 
ATOM      4  N   UNL     1       2.699   7.385  17.617  0.00  0.00    +0.000 N 
ATOM      5  C   UNL     1       2.178   8.409  18.370  0.00  0.00    +0.000 C 
ATOM      6  C   UNL     1       1.788   9.633  17.994  0.00  0.00    +0.000 C 
ATOM      7  C   UNL     1       2.005   7.825  19.751  0.00  0.00    +0.000 C 
ATOM      8  O   UNL     1       1.767   8.417  20.785  0.00  0.00    +0.000 OA
ATOM      9  H   UNL     1       2.652   7.410  16.607  0.00  0.00    +0.000 HD
ENDROOT
BRANCH   6  10
ATOM     10  C   UNL     1       1.152  10.598  18.826  0.00  0.00    +0.000 A 
ATOM     11  C   UNL     1       1.777  11.692  19.435  0.00  0.00    +0.000 A 
ATOM     12  C   UNL     1       0.832  12.345  20.202  0.00  0.00    +0.000 A 
ATOM     13  C   UNL     1       1.112  13.461  21.153  0.00  0.00    +0.000 C 
ATOM     14  N   UNL     1      -0.397  11.688  20.051  0.00  0.00    +0.000 N 
ATOM     15  C   UNL     1      -0.192  10.617  19.163  0.00  0.00    +0.000 A 
ATOM     16  C   UNL     1      -1.252   9.702  18.639  0.00  0.00    +0.000 C 
BRANCH  14  17
ATOM     17  C   UNL     1      -1.625  12.045  20.705  0.00  0.00    +0.000 A 
ATOM     18  C   UNL     1      -2.703  12.553  19.966  0.00  0.00    +0.000 A 
ATOM     19  C   UNL     1      -3.891  12.929  20.599  0.00  0.00    +0.000 A 
ATOM     20  C   UNL     1      -4.022  12.768  21.975  0.00  0.00    +0.000 A 
ATOM     21 BR   UNL     1      -5.636  13.261  22.828  0.00  0.00    +0.000 Br
ATOM     22  C   UNL     1      -2.969  12.248  22.723  0.00  0.00    +0.000 A 
ATOM     23  C   UNL     1      -1.767  11.904  22.093  0.00  0.00    +0.000 A 
ENDBRANCH  14  17
ENDBRANCH   6  10
BRANCH   1  24
ATOM     24  C   UNL     1       1.858   5.328  20.571  0.00  0.00    +0.000 C 
ATOM     25  O   UNL     1       2.497   5.071  21.582  0.00  0.00    +0.000 OA
BRANCH  24  26
ATOM     26  O   UNL     1       0.820   4.607  20.091  0.00  0.00    +0.000 OA
BRANCH  26  28
ATOM     27  C   UNL     1       0.700   2.530  18.935  0.00  0.00    +0.000 C 
ATOM     28  C   UNL     1       0.870   3.192  20.292  0.00  0.00    +0.000 C 
ENDBRANCH  26  28
ENDBRANCH  24  26
ENDBRANCH   1  24
TORSDOF 5
ENDMDL
MODEL 3
REMARK VINA RESULT:      -6.2      0.425      1.021
REMARK  Name = 
REMARK  9 active torsions:
REMARK  status: ('A' for Active; 'I' for Inactive)
REMARK    1  A    between atoms: C_1  and  C_2
REMARK    2  A    between atoms: C_2  and  O_3
REMARK    3  A    between atoms: O_3  and  C_4
REMARK    4  A    between atoms: C_4  and  C_6
REMARK    5  A    between atoms: C_7  and  C_8
REMARK    6  A    between atoms: C_11  and  C_12
REMARK    7  A    between atoms: C_14  and  C_15
REMARK    8  A    between atoms: N_16  and  C_17
REMARK    9  A    between atoms: C_24  and  C_25
REMARK                            x       y       z     vdW  Elec       q    Type
REMARK                         _______ _______ _______ _____ _____    ______ ____
ROOT
ATOM      1  C   UNL     1       2.456   6.379  19.368  0.00  0.00    +0.000 C 
ATOM      2  C   UNL     1       3.361   6.540  18.373  0.00  0.00    +0.000 C 
ATOM      3  C   UNL     1       4.267   5.517  17.765  0.00  0.00    +0.000 C 
ATOM      4  N   UNL     1       3.330   7.814  17.830  0.00  0.00    +0.000 N 
ATOM      5  C   UNL     1       2.264   8.522  18.331  0.00  0.00    +0.000 C 
ATOM      6  C   UNL     1       1.694   9.643  17.875  0.00  0.00    +0.000 C 
ATOM      7  C   UNL     1       1.754   7.690  19.481  0.00  0.00    +0.000 C 
ATOM      8  O   UNL     1       0.957   8.015  20.339  0.00  0.00    +0.000 OA
ATOM      9  H   UNL     1       3.679   7.994  16.898  0.00  0.00    +0.000 HD
ENDROOT
BRANCH   6  10
ATOM     10  C   UNL     1       0.517  10.251  18.396  0.00  0.00    +0.000 A 
ATOM     11  C   UNL     1      -0.790  10.021  17.949  0.00  0.00    +0.000 A 
ATOM     12  C   UNL     1      -1.634  10.844  18.669  0.00  0.00    +0.000 A 
ATOM     13  C   UNL     1      -3.087  11.043  18.394  0.00  0.00    +0.000 C 
ATOM     14  N   UNL     1      -0.869  11.568  19.593  0.00  0.00    +0.000 N 
ATOM     15  C   UNL     1       0.469  11.165  19.436  0.00  0.00    +0.000 A 
ATOM     16  C   UNL     1       1.620  11.609  20.282  0.00  0.00    +0.000 C 
BRANCH  14  17
ATOM     17  C   UNL     1      -1.373  12.550  20.512  0.00  0.00    +0.000 A 
ATOM     18  C   UNL     1      -1.408  13.906  20.156  0.00  0.00    +0.000 A 
ATOM     19  C   UNL     1      -1.870  14.871  21.056  0.00  0.00    +0.000 A 
ATOM     20  C   UNL     1      -2.333  14.482  22.310  0.00  0.00    +0.000 A 
ATOM     21 BR   UNL     1      -2.974  15.786  23.518  0.00  0.00    +0.000 Br
ATOM     22  C   UNL     1      -2.323  13.139  22.674  0.00  0.00    +0.000 A 
ATOM     23  C   UNL     1      -1.827  12.177  21.786  0.00  0.00    +0.000 A 
ENDBRANCH  14  17
ENDBRANCH   6  10
BRANCH   1  24
ATOM     24  C   UNL     1       2.080   5.143  20.058  0.00  0.00    +0.000 C 
ATOM     25  O   UNL     1       2.410   4.851  21.200  0.00  0.00    +0.000 OA
BRANCH  24  26
ATOM     26  O   UNL     1       1.468   4.317  19.180  0.00  0.00    +0.000 OA
BRANCH  26  28
ATOM     27  C   UNL     1       2.206   2.441  17.917  0.00  0.00    +0.000 C 
ATOM     28  C   UNL     1       1.768   2.923  19.288  0.00  0.00    +0.000 C 
ENDBRANCH  26  28
ENDBRANCH  24  26
ENDBRANCH   1  24
TORSDOF 5
ENDMDL
MODEL 4
REMARK VINA RESULT:      -6.1      1.516      2.320
REMARK  Name = 
REMARK  9 active torsions:
REMARK  status: ('A' for Active; 'I' for Inactive)
REMARK    1  A    between atoms: C_1  and  C_2
REMARK    2  A    between atoms: C_2  and  O_3
REMARK    3  A    between atoms: O_3  and  C_4
REMARK    4  A    between atoms: C_4  and  C_6
REMARK    5  A    between atoms: C_7  and  C_8
REMARK    6  A    between atoms: C_11  and  C_12
REMARK    7  A    between atoms: C_14  and  C_15
REMARK    8  A    between atoms: N_16  and  C_17
REMARK    9  A    between atoms: C_24  and  C_25
REMARK                            x       y       z     vdW  Elec       q    Type
REMARK                         _______ _______ _______ _____ _____    ______ ____
ROOT
ATOM      1  C   UNL     1       2.328   6.202  19.600  0.00  0.00    +0.000 C 
ATOM      2  C   UNL     1       2.939   6.061  18.400  0.00  0.00    +0.000 C 
ATOM      3  C   UNL     1       3.410   4.806  17.738  0.00  0.00    +0.000 C 
ATOM      4  N   UNL     1       3.027   7.257  17.707  0.00  0.00    +0.000 N 
ATOM      5  C   UNL     1       2.311   8.237  18.351  0.00  0.00    +0.000 C 
ATOM      6  C   UNL     1       1.886   9.422  17.896  0.00  0.00    +0.000 C 
ATOM      7  C   UNL     1       1.973   7.648  19.698  0.00  0.00    +0.000 C 
ATOM      8  O   UNL     1       1.527   8.223  20.671  0.00  0.00    +0.000 OA
ATOM      9  H   UNL     1       3.138   7.272  16.702  0.00  0.00    +0.000 HD
ENDROOT
BRANCH   6  10
ATOM     10  C   UNL     1       1.049  10.333  18.601  0.00  0.00    +0.000 A 
ATOM     11  C   UNL     1       1.477  11.272  19.547  0.00  0.00    +0.000 A 
ATOM     12  C   UNL     1       0.358  11.916  20.039  0.00  0.00    +0.000 A 
ATOM     13  C   UNL     1       0.345  12.868  21.188  0.00  0.00    +0.000 C 
ATOM     14  N   UNL     1      -0.771  11.413  19.379  0.00  0.00    +0.000 N 
ATOM     15  C   UNL     1      -0.324  10.448  18.460  0.00  0.00    +0.000 A 
ATOM     16  C   UNL     1      -1.180   9.720  17.472  0.00  0.00    +0.000 C 
BRANCH  14  17
ATOM     17  C   UNL     1      -2.131  11.808  19.624  0.00  0.00    +0.000 A 
ATOM     18  C   UNL     1      -2.501  12.355  20.861  0.00  0.00    +0.000 A 
ATOM     19  C   UNL     1      -3.828  12.716  21.116  0.00  0.00    +0.000 A 
ATOM     20  C   UNL     1      -4.789  12.562  20.122  0.00  0.00    +0.000 A 
ATOM     21 BR   UNL     1      -6.579  13.066  20.463  0.00  0.00    +0.000 Br
ATOM     22  C   UNL     1      -4.437  12.038  18.881  0.00  0.00    +0.000 A 
ATOM     23  C   UNL     1      -3.115  11.644  18.638  0.00  0.00    +0.000 A 
ENDBRANCH  14  17
ENDBRANCH   6  10
BRANCH   1  24
ATOM     24  C   UNL     1       1.905   5.152  20.530  0.00  0.00    +0.000 C 
ATOM     25  O   UNL     1       2.550   4.775  21.500  0.00  0.00    +0.000 OA
BRANCH  24  26
ATOM     26  O   UNL     1       0.789   4.560  20.048  0.00  0.00    +0.000 OA
BRANCH  26  28
ATOM     27  C   UNL     1       0.828   2.518  18.826  0.00  0.00    +0.000 C 
ATOM     28  C   UNL     1       0.692   3.141  20.204  0.00  0.00    +0.000 C 
ENDBRANCH  26  28
ENDBRANCH  24  26
ENDBRANCH   1  24
TORSDOF 5
ENDMDL
MODEL 5
REMARK VINA RESULT:      -6.1      5.338      8.506
REMARK  Name = 
REMARK  9 active torsions:
REMARK  status: ('A' for Active; 'I' for Inactive)
REMARK    1  A    between atoms: C_1  and  C_2
REMARK    2  A    between atoms: C_2  and  O_3
REMARK    3  A    between atoms: O_3  and  C_4
REMARK    4  A    between atoms: C_4  and  C_6
REMARK    5  A    between atoms: C_7  and  C_8
REMARK    6  A    between atoms: C_11  and  C_12
REMARK    7  A    between atoms: C_14  and  C_15
REMARK    8  A    between atoms: N_16  and  C_17
REMARK    9  A    between atoms: C_24  and  C_25
REMARK                            x       y       z     vdW  Elec       q    Type
REMARK                         _______ _______ _______ _____ _____    ______ ____
ROOT
ATOM      1  C   UNL     1      -5.921  12.935  22.020  0.00  0.00    +0.000 C 
ATOM      2  C   UNL     1      -6.149  13.275  23.311  0.00  0.00    +0.000 C 
ATOM      3  C   UNL     1      -7.436  13.232  24.070  0.00  0.00    +0.000 C 
ATOM      4  N   UNL     1      -4.985  13.609  23.984  0.00  0.00    +0.000 N 
ATOM      5  C   UNL     1      -3.887  13.335  23.205  0.00  0.00    +0.000 C 
ATOM      6  C   UNL     1      -2.600  13.220  23.555  0.00  0.00    +0.000 C 
ATOM      7  C   UNL     1      -4.446  13.054  21.832  0.00  0.00    +0.000 C 
ATOM      8  O   UNL     1      -3.836  12.965  20.785  0.00  0.00    +0.000 OA
ATOM      9  H   UNL     1      -4.931  13.557  24.993  0.00  0.00    +0.000 HD
ENDROOT
BRANCH   6  10
ATOM     10  C   UNL     1      -1.536  12.823  22.697  0.00  0.00    +0.000 A 
ATOM     11  C   UNL     1      -1.149  11.504  22.429  0.00  0.00    +0.000 A 
ATOM     12  C   UNL     1      -0.044  11.548  21.601  0.00  0.00    +0.000 A 
ATOM     13  C   UNL     1       0.789  10.373  21.211  0.00  0.00    +0.000 C 
ATOM     14  N   UNL     1       0.246  12.889  21.316  0.00  0.00    +0.000 N 
ATOM     15  C   UNL     1      -0.712  13.675  21.980  0.00  0.00    +0.000 A 
ATOM     16  C   UNL     1      -0.843  15.161  21.879  0.00  0.00    +0.000 C 
BRANCH  14  17
ATOM     17  C   UNL     1       1.337  13.357  20.507  0.00  0.00    +0.000 A 
ATOM     18  C   UNL     1       2.499  13.865  21.105  0.00  0.00    +0.000 A 
ATOM     19  C   UNL     1       3.554  14.349  20.325  0.00  0.00    +0.000 A 
ATOM     20  C   UNL     1       3.467  14.297  18.937  0.00  0.00    +0.000 A 
ATOM     21 BR   UNL     1       4.901  14.934  17.884  0.00  0.00    +0.000 Br
ATOM     22  C   UNL     1       2.330  13.778  18.325  0.00  0.00    +0.000 A 
ATOM     23  C   UNL     1       1.259  13.326  19.107  0.00  0.00    +0.000 A 
ENDBRANCH  14  17
ENDBRANCH   6  10
BRANCH   1  24
ATOM     24  C   UNL     1      -6.864  12.369  21.052  0.00  0.00    +0.000 C 
ATOM     25  O   UNL     1      -7.505  13.019  20.237  0.00  0.00    +0.000 OA
BRANCH  24  26
ATOM     26  O   UNL     1      -7.036  11.056  21.322  0.00  0.00    +0.000 OA
BRANCH  26  28
ATOM     27  C   UNL     1      -7.808   8.883  20.730  0.00  0.00    +0.000 C 
ATOM     28  C   UNL     1      -7.235  10.188  20.202  0.00  0.00    +0.000 C 
ENDBRANCH  26  28
ENDBRANCH  24  26
ENDBRANCH   1  24
TORSDOF 5
ENDMDL
MODEL 6
REMARK VINA RESULT:      -6.1      1.570      1.955
REMARK  Name = 
REMARK  9 active torsions:
REMARK  status: ('A' for Active; 'I' for Inactive)
REMARK    1  A    between atoms: C_1  and  C_2
REMARK    2  A    between atoms: C_2  and  O_3
REMARK    3  A    between atoms: O_3  and  C_4
REMARK    4  A    between atoms: C_4  and  C_6
REMARK    5  A    between atoms: C_7  and  C_8
REMARK    6  A    between atoms: C_11  and  C_12
REMARK    7  A    between atoms: C_14  and  C_15
REMARK    8  A    between atoms: N_16  and  C_17
REMARK    9  A    between atoms: C_24  and  C_25
REMARK                            x       y       z     vdW  Elec       q    Type
REMARK                         _______ _______ _______ _____ _____    ______ ____
ROOT
ATOM      1  C   UNL     1       2.396   6.135  19.568  0.00  0.00    +0.000 C 
ATOM      2  C   UNL     1       2.978   5.923  18.363  0.00  0.00    +0.000 C 
ATOM      3  C   UNL     1       3.403   4.627  17.751  0.00  0.00    +0.000 C 
ATOM      4  N   UNL     1       3.080   7.083  17.613  0.00  0.00    +0.000 N 
ATOM      5  C   UNL     1       2.403   8.110  18.225  0.00  0.00    +0.000 C 
ATOM      6  C   UNL     1       1.996   9.282  17.723  0.00  0.00    +0.000 C 
ATOM      7  C   UNL     1       2.078   7.592  19.604  0.00  0.00    +0.000 C 
ATOM      8  O   UNL     1       1.668   8.223  20.558  0.00  0.00    +0.000 OA
ATOM      9  H   UNL     1       3.170   7.049  16.606  0.00  0.00    +0.000 HD
ENDROOT
BRANCH   6  10
ATOM     10  C   UNL     1       1.198  10.247  18.401  0.00  0.00    +0.000 A 
ATOM     11  C   UNL     1      -0.041  10.005  19.006  0.00  0.00    +0.000 A 
ATOM     12  C   UNL     1      -0.513  11.206  19.498  0.00  0.00    +0.000 A 
ATOM     13  C   UNL     1      -1.875  11.431  20.065  0.00  0.00    +0.000 C 
ATOM     14  N   UNL     1       0.440  12.199  19.238  0.00  0.00    +0.000 N 
ATOM     15  C   UNL     1       1.519  11.583  18.581  0.00  0.00    +0.000 A 
ATOM     16  C   UNL     1       2.803  12.247  18.198  0.00  0.00    +0.000 C 
BRANCH  14  17
ATOM     17  C   UNL     1       0.313  13.591  19.570  0.00  0.00    +0.000 A 
ATOM     18  C   UNL     1      -0.175  14.507  18.627  0.00  0.00    +0.000 A 
ATOM     19  C   UNL     1      -0.275  15.867  18.934  0.00  0.00    +0.000 A 
ATOM     20  C   UNL     1       0.083  16.318  20.201  0.00  0.00    +0.000 A 
ATOM     21 BR   UNL     1      -0.070  18.154  20.621  0.00  0.00    +0.000 Br
ATOM     22  C   UNL     1       0.552  15.421  21.157  0.00  0.00    +0.000 A 
ATOM     23  C   UNL     1       0.684  14.064  20.837  0.00  0.00    +0.000 A 
ENDBRANCH  14  17
ENDBRANCH   6  10
BRANCH   1  24
ATOM     24  C   UNL     1       1.968   5.140  20.554  0.00  0.00    +0.000 C 
ATOM     25  O   UNL     1       2.578   4.862  21.577  0.00  0.00    +0.000 OA
BRANCH  24  26
ATOM     26  O   UNL     1       0.898   4.471  20.069  0.00  0.00    +0.000 OA
BRANCH  26  28
ATOM     27  C   UNL     1       0.715   2.407  18.897  0.00  0.00    +0.000 C 
ATOM     28  C   UNL     1       0.882   3.053  20.261  0.00  0.00    +0.000 C 
ENDBRANCH  26  28
ENDBRANCH  24  26
ENDBRANCH   1  24
TORSDOF 5
ENDMDL
MODEL 7
REMARK VINA RESULT:      -6.0      1.089      1.224
REMARK  Name = 
REMARK  9 active torsions:
REMARK  status: ('A' for Active; 'I' for Inactive)
REMARK    1  A    between atoms: C_1  and  C_2
REMARK    2  A    between atoms: C_2  and  O_3
REMARK    3  A    between atoms: O_3  and  C_4
REMARK    4  A    between atoms: C_4  and  C_6
REMARK    5  A    between atoms: C_7  and  C_8
REMARK    6  A    between atoms: C_11  and  C_12
REMARK    7  A    between atoms: C_14  and  C_15
REMARK    8  A    between atoms: N_16  and  C_17
REMARK    9  A    between atoms: C_24  and  C_25
REMARK                            x       y       z     vdW  Elec       q    Type
REMARK                         _______ _______ _______ _____ _____    ______ ____
ROOT
ATOM      1  C   UNL     1       2.415   6.267  19.548  0.00  0.00    +0.000 C 
ATOM      2  C   UNL     1       3.202   6.124  18.456  0.00  0.00    +0.000 C 
ATOM      3  C   UNL     1       3.853   4.884  17.933  0.00  0.00    +0.000 C 
ATOM      4  N   UNL     1       3.304   7.294  17.721  0.00  0.00    +0.000 N 
ATOM      5  C   UNL     1       2.433   8.241  18.205  0.00  0.00    +0.000 C 
ATOM      6  C   UNL     1       1.994   9.368  17.633  0.00  0.00    +0.000 C 
ATOM      7  C   UNL     1       1.946   7.683  19.519  0.00  0.00    +0.000 C 
ATOM      8  O   UNL     1       1.324   8.260  20.388  0.00  0.00    +0.000 OA
ATOM      9  H   UNL     1       3.558   7.277  16.742  0.00  0.00    +0.000 HD
ENDROOT
BRANCH   6  10
ATOM     10  C   UNL     1       1.001  10.239  18.164  0.00  0.00    +0.000 A 
ATOM     11  C   UNL     1      -0.367   9.959  18.261  0.00  0.00    +0.000 A 
ATOM     12  C   UNL     1      -0.993  11.079  18.772  0.00  0.00    +0.000 A 
ATOM     13  C   UNL     1      -2.470  11.271  18.877  0.00  0.00    +0.000 C 
ATOM     14  N   UNL     1      -0.020  12.053  19.032  0.00  0.00    +0.000 N 
ATOM     15  C   UNL     1       1.225  11.506  18.678  0.00  0.00    +0.000 A 
ATOM     16  C   UNL     1       2.555  12.161  18.878  0.00  0.00    +0.000 C 
BRANCH  14  17
ATOM     17  C   UNL     1      -0.270  13.370  19.548  0.00  0.00    +0.000 A 
ATOM     18  C   UNL     1      -0.511  13.566  20.915  0.00  0.00    +0.000 A 
ATOM     19  C   UNL     1      -0.784  14.841  21.419  0.00  0.00    +0.000 A 
ATOM     20  C   UNL     1      -0.783  15.938  20.563  0.00  0.00    +0.000 A 
ATOM     21 BR   UNL     1      -1.133  17.664  21.249  0.00  0.00    +0.000 Br
ATOM     22  C   UNL     1      -0.527  15.766  19.205  0.00  0.00    +0.000 A 
ATOM     23  C   UNL     1      -0.290  14.484  18.695  0.00  0.00    +0.000 A 
ENDBRANCH  14  17
ENDBRANCH   6  10
BRANCH   1  24
ATOM     24  C   UNL     1       1.939   5.225  20.463  0.00  0.00    +0.000 C 
ATOM     25  O   UNL     1       2.505   4.887  21.493  0.00  0.00    +0.000 OA
BRANCH  24  26
ATOM     26  O   UNL     1       0.885   4.593  19.900  0.00  0.00    +0.000 OA
BRANCH  26  28
ATOM     27  C   UNL     1       1.025   2.560  18.670  0.00  0.00    +0.000 C 
ATOM     28  C   UNL     1       0.831   3.171  20.047  0.00  0.00    +0.000 C 
ENDBRANCH  26  28
ENDBRANCH  24  26
ENDBRANCH   1  24
TORSDOF 5
ENDMDL
MODEL 8
REMARK VINA RESULT:      -6.0      1.109      1.384
REMARK  Name = 
REMARK  9 active torsions:
REMARK  status: ('A' for Active; 'I' for Inactive)
REMARK    1  A    between atoms: C_1  and  C_2
REMARK    2  A    between atoms: C_2  and  O_3
REMARK    3  A    between atoms: O_3  and  C_4
REMARK    4  A    between atoms: C_4  and  C_6
REMARK    5  A    between atoms: C_7  and  C_8
REMARK    6  A    between atoms: C_11  and  C_12
REMARK    7  A    between atoms: C_14  and  C_15
REMARK    8  A    between atoms: N_16  and  C_17
REMARK    9  A    between atoms: C_24  and  C_25
REMARK                            x       y       z     vdW  Elec       q    Type
REMARK                         _______ _______ _______ _____ _____    ______ ____
ROOT
ATOM      1  C   UNL     1       2.804   6.272  18.633  0.00  0.00    +0.000 C 
ATOM      2  C   UNL     1       3.743   6.674  17.744  0.00  0.00    +0.000 C 
ATOM      3  C   UNL     1       4.718   5.838  16.979  0.00  0.00    +0.000 C 
ATOM      4  N   UNL     1       3.680   8.034  17.487  0.00  0.00    +0.000 N 
ATOM      5  C   UNL     1       2.564   8.580  18.073  0.00  0.00    +0.000 C 
ATOM      6  C   UNL     1       1.967   9.755  17.839  0.00  0.00    +0.000 C 
ATOM      7  C   UNL     1       2.041   7.503  18.990  0.00  0.00    +0.000 C 
ATOM      8  O   UNL     1       1.194   7.608  19.855  0.00  0.00    +0.000 OA
ATOM      9  H   UNL     1       4.061   8.423  16.635  0.00  0.00    +0.000 HD
ENDROOT
BRANCH   6  10
ATOM     10  C   UNL     1       0.742  10.197  18.417  0.00  0.00    +0.000 A 
ATOM     11  C   UNL     1      -0.538   9.962  17.901  0.00  0.00    +0.000 A 
ATOM     12  C   UNL     1      -1.447  10.604  18.719  0.00  0.00    +0.000 A 
ATOM     13  C   UNL     1      -2.905  10.755  18.438  0.00  0.00    +0.000 C 
ATOM     14  N   UNL     1      -0.748  11.213  19.770  0.00  0.00    +0.000 N 
ATOM     15  C   UNL     1       0.615  10.924  19.589  0.00  0.00    +0.000 A 
ATOM     16  C   UNL     1       1.719  11.294  20.529  0.00  0.00    +0.000 C 
BRANCH  14  17
ATOM     17  C   UNL     1      -1.332  11.999  20.821  0.00  0.00    +0.000 A 
ATOM     18  C   UNL     1      -1.536  11.448  22.094  0.00  0.00    +0.000 A 
ATOM     19  C   UNL     1      -2.130  12.199  23.113  0.00  0.00    +0.000 A 
ATOM     20  C   UNL     1      -2.496  13.520  22.875  0.00  0.00    +0.000 A 
ATOM     21 BR   UNL     1      -3.282  14.539  24.259  0.00  0.00    +0.000 Br
ATOM     22  C   UNL     1      -2.285  14.091  21.623  0.00  0.00    +0.000 A 
ATOM     23  C   UNL     1      -1.722  13.327  20.592  0.00  0.00    +0.000 A 
ENDBRANCH  14  17
ENDBRANCH   6  10
BRANCH   1  24
ATOM     24  C   UNL     1       2.452   4.903  19.022  0.00  0.00    +0.000 C 
ATOM     25  O   UNL     1       1.638   4.199  18.441  0.00  0.00    +0.000 OA
BRANCH  24  26
ATOM     26  O   UNL     1       3.036   4.619  20.207  0.00  0.00    +0.000 OA
BRANCH  26  28
ATOM     27  C   UNL     1       2.254   2.874  21.625  0.00  0.00    +0.000 C 
ATOM     28  C   UNL     1       2.164   4.357  21.310  0.00  0.00    +0.000 C 
ENDBRANCH  26  28
ENDBRANCH  24  26
ENDBRANCH   1  24
TORSDOF 5
ENDMDL
MODEL 9
REMARK VINA RESULT:      -5.9      4.009      8.339
REMARK  Name = 
REMARK  9 active torsions:
REMARK  status: ('A' for Active; 'I' for Inactive)
REMARK    1  A    between atoms: C_1  and  C_2
REMARK    2  A    between atoms: C_2  and  O_3
REMARK    3  A    between atoms: O_3  and  C_4
REMARK    4  A    between atoms: C_4  and  C_6
REMARK    5  A    between atoms: C_7  and  C_8
REMARK    6  A    between atoms: C_11  and  C_12
REMARK    7  A    between atoms: C_14  and  C_15
REMARK    8  A    between atoms: N_16  and  C_17
REMARK    9  A    between atoms: C_24  and  C_25
REMARK                            x       y       z     vdW  Elec       q    Type
REMARK                         _______ _______ _______ _____ _____    ______ ____
ROOT
ATOM      1  C   UNL     1      -2.088  11.078  18.521  0.00  0.00    +0.000 C 
ATOM      2  C   UNL     1      -1.931  12.029  19.472  0.00  0.00    +0.000 C 
ATOM      3  C   UNL     1      -2.887  13.104  19.880  0.00  0.00    +0.000 C 
ATOM      4  N   UNL     1      -0.752  11.877  20.184  0.00  0.00    +0.000 N 
ATOM      5  C   UNL     1      -0.141  10.693  19.848  0.00  0.00    +0.000 C 
ATOM      6  C   UNL     1       0.825  10.020  20.487  0.00  0.00    +0.000 C 
ATOM      7  C   UNL     1      -0.883  10.205  18.629  0.00  0.00    +0.000 C 
ATOM      8  O   UNL     1      -0.564   9.309  17.872  0.00  0.00    +0.000 OA
ATOM      9  H   UNL     1      -0.645  12.271  21.109  0.00  0.00    +0.000 HD
ENDROOT
BRANCH   6  10
ATOM     10  C   UNL     1       1.325   8.737  20.125  0.00  0.00    +0.000 A 
ATOM     11  C   UNL     1       1.115   7.547  20.831  0.00  0.00    +0.000 A 
ATOM     12  C   UNL     1       1.814   6.544  20.188  0.00  0.00    +0.000 A 
ATOM     13  C   UNL     1       2.002   5.156  20.703  0.00  0.00    +0.000 C 
ATOM     14  N   UNL     1       2.435   7.090  19.057  0.00  0.00    +0.000 N 
ATOM     15  C   UNL     1       2.097   8.453  19.010  0.00  0.00    +0.000 A 
ATOM     16  C   UNL     1       2.463   9.406  17.917  0.00  0.00    +0.000 C 
BRANCH  14  17
ATOM     17  C   UNL     1       3.277   6.376  18.137  0.00  0.00    +0.000 A 
ATOM     18  C   UNL     1       2.979   5.053  17.780  0.00  0.00    +0.000 A 
ATOM     19  C   UNL     1       3.809   4.342  16.908  0.00  0.00    +0.000 A 
ATOM     20  C   UNL     1       4.927   4.963  16.358  0.00  0.00    +0.000 A 
ATOM     21 BR   UNL     1       6.038   4.007  15.164  0.00  0.00    +0.000 Br
ATOM     22  C   UNL     1       5.228   6.282  16.686  0.00  0.00    +0.000 A 
ATOM     23  C   UNL     1       4.416   6.981  17.587  0.00  0.00    +0.000 A 
ENDBRANCH  14  17
ENDBRANCH   6  10
BRANCH   1  24
ATOM     24  C   UNL     1      -3.267  10.812  17.693  0.00  0.00    +0.000 C 
ATOM     25  O   UNL     1      -4.327  10.362  18.108  0.00  0.00    +0.000 OA
BRANCH  24  26
ATOM     26  O   UNL     1      -2.938  10.977  16.392  0.00  0.00    +0.000 OA
BRANCH  26  28
ATOM     27  C   UNL     1      -3.642  10.173  14.266  0.00  0.00    +0.000 C 
ATOM     28  C   UNL     1      -2.952   9.808  15.569  0.00  0.00    +0.000 C 
ENDBRANCH  26  28
ENDBRANCH  24  26
ENDBRANCH   1  24
TORSDOF 5
ENDMDL
