MODEL 1
REMARK VINA RESULT:      -6.2      0.000      0.000
REMARK  Name = 
REMARK  12 active torsions:
REMARK  status: ('A' for Active; 'I' for Inactive)
REMARK    1  A    between atoms: C_1  and  C_2
REMARK    2  A    between atoms: C_2  and  O_3
REMARK    3  A    between atoms: O_3  and  C_4
REMARK    4  A    between atoms: C_4  and  C_6
REMARK    5  A    between atoms: C_6  and  N_7
REMARK    6  A    between atoms: C_12  and  N_13
REMARK    7  A    between atoms: C_14  and  C_16
REMARK    8  A    between atoms: C_16  and  N_17
REMARK    9  A    between atoms: C_16  and  C_18
REMARK   10  A    between atoms: C_18  and  C_19
REMARK   11  A    between atoms: C_19  and  S_20
REMARK   12  A    between atoms: S_20  and  C_21
REMARK                            x       y       z     vdW  Elec       q    Type
REMARK                         _______ _______ _______ _____ _____    ______ ____
ROOT
ATOM      1  N   UNL     1       3.994   4.399  17.523  0.00  0.00    +0.000 N 
ATOM      2  C   UNL     1       5.158   4.882  16.965  0.00  0.00    +0.000 C 
ATOM      3  O   UNL     1       6.136   4.162  16.823  0.00  0.00    +0.000 OA
ATOM      4  C   UNL     1       5.243   6.304  16.470  0.00  0.00    +0.000 C 
ATOM      5  C   UNL     1       4.523   7.198  17.455  0.00  0.00    +0.000 C 
ATOM      6  C   UNL     1       3.052   6.757  17.554  0.00  0.00    +0.000 C 
ATOM      7  C   UNL     1       2.942   5.252  17.777  0.00  0.00    +0.000 C 
ATOM      8  O   UNL     1       1.868   4.804  18.158  0.00  0.00    +0.000 OA
ENDROOT
BRANCH   6   9
ATOM      9  N   UNL     1       2.424   7.499  18.643  0.00  0.00    +0.000 N 
ATOM     10  C   UNL     1       1.821   8.711  18.469  0.00  0.00    +0.000 C 
ATOM     11  O   UNL     1       1.745   9.212  17.355  0.00  0.00    +0.000 OA
ATOM     12  H   UNL     1       2.455   7.088  19.589  0.00  0.00    +0.000 HD
BRANCH  10  13
ATOM     13  C   UNL     1       1.244   9.472  19.652  0.00  0.00    +0.000 C 
BRANCH  13  14
ATOM     14  N   UNL     1      -0.062  10.031  19.301  0.00  0.00    +0.000 NA
ATOM     15  H   UNL     1      -0.124  10.187  18.267  0.00  0.00    +0.000 HD
ATOM     16  H   UNL     1      -0.194  10.946  19.787  0.00  0.00    +0.000 HD
ENDBRANCH  13  14
BRANCH  13  17
ATOM     17  C   UNL     1       1.092   8.571  20.896  0.00  0.00    +0.000 C 
BRANCH  17  18
ATOM     18  C   UNL     1      -0.252   8.741  21.606  0.00  0.00    +0.000 C 
BRANCH  18  19
ATOM     19  S   UNL     1      -0.014   9.515  23.242  0.00  0.00    +0.000 S 
ATOM     20  C   UNL     1      -1.042  10.950  22.842  0.00  0.00    +0.000 C 
ENDBRANCH  18  19
ENDBRANCH  17  18
ENDBRANCH  13  17
ENDBRANCH  10  13
ENDBRANCH   6   9
BRANCH   1  21
ATOM     21  C   UNL     1       3.867   2.965  17.814  0.00  0.00    +0.000 C 
BRANCH  21  22
ATOM     22  C   UNL     1       4.081   2.662  19.267  0.00  0.00    +0.000 C 
ATOM     23  O   UNL     1       5.197   2.794  19.751  0.00  0.00    +0.000 OA
BRANCH  22  24
ATOM     24  O   UNL     1       3.038   2.215  20.013  0.00  0.00    +0.000 OA
BRANCH  24  26
ATOM     25  C   UNL     1       1.198   3.105  21.170  0.00  0.00    +0.000 C 
ATOM     26  C   UNL     1       2.655   2.719  21.244  0.00  0.00    +0.000 C 
ENDBRANCH  24  26
ENDBRANCH  22  24
ENDBRANCH  21  22
ENDBRANCH   1  21
TORSDOF 10
ENDMDL
MODEL 2
REMARK VINA RESULT:      -6.2      3.389      5.492
REMARK  Name = 
REMARK  12 active torsions:
REMARK  status: ('A' for Active; 'I' for Inactive)
REMARK    1  A    between atoms: C_1  and  C_2
REMARK    2  A    between atoms: C_2  and  O_3
REMARK    3  A    between atoms: O_3  and  C_4
REMARK    4  A    between atoms: C_4  and  C_6
REMARK    5  A    between atoms: C_6  and  N_7
REMARK    6  A    between atoms: C_12  and  N_13
REMARK    7  A    between atoms: C_14  and  C_16
REMARK    8  A    between atoms: C_16  and  N_17
REMARK    9  A    between atoms: C_16  and  C_18
REMARK   10  A    between atoms: C_18  and  C_19
REMARK   11  A    between atoms: C_19  and  S_20
REMARK   12  A    between atoms: S_20  and  C_21
REMARK                            x       y       z     vdW  Elec       q    Type
REMARK                         _______ _______ _______ _____ _____    ______ ____
ROOT
ATOM      1  N   UNL     1       6.111   4.403  16.858  0.00  0.00    +0.000 N 
ATOM      2  C   UNL     1       7.373   4.648  17.353  0.00  0.00    +0.000 C 
ATOM      3  O   UNL     1       8.357   4.108  16.868  0.00  0.00    +0.000 OA
ATOM      4  C   UNL     1       7.582   5.629  18.479  0.00  0.00    +0.000 C 
ATOM      5  C   UNL     1       6.467   5.449  19.484  0.00  0.00    +0.000 C 
ATOM      6  C   UNL     1       5.117   5.713  18.794  0.00  0.00    +0.000 C 
ATOM      7  C   UNL     1       5.005   4.933  17.488  0.00  0.00    +0.000 C 
ATOM      8  O   UNL     1       3.896   4.816  16.981  0.00  0.00    +0.000 OA
ENDROOT
BRANCH   6   9
ATOM      9  N   UNL     1       4.049   5.349  19.719  0.00  0.00    +0.000 N 
ATOM     10  C   UNL     1       2.881   6.048  19.823  0.00  0.00    +0.000 C 
ATOM     11  O   UNL     1       2.664   7.005  19.091  0.00  0.00    +0.000 OA
ATOM     12  H   UNL     1       4.198   4.533  20.332  0.00  0.00    +0.000 HD
BRANCH  10  13
ATOM     13  C   UNL     1       1.832   5.665  20.853  0.00  0.00    +0.000 C 
BRANCH  13  14
ATOM     14  N   UNL     1       1.096   6.853  21.287  0.00  0.00    +0.000 NA
ATOM     15  H   UNL     1       0.453   6.613  22.078  0.00  0.00    +0.000 HD
ATOM     16  H   UNL     1       0.527   7.222  20.492  0.00  0.00    +0.000 HD
ENDBRANCH  13  14
BRANCH  13  17
ATOM     17  C   UNL     1       0.834   4.625  20.299  0.00  0.00    +0.000 C 
BRANCH  17  18
ATOM     18  C   UNL     1       1.354   3.188  20.374  0.00  0.00    +0.000 C 
BRANCH  18  19
ATOM     19  S   UNL     1       1.366   2.429  18.714  0.00  0.00    +0.000 S 
ATOM     20  C   UNL     1       3.099   1.917  18.833  0.00  0.00    +0.000 C 
ENDBRANCH  18  19
ENDBRANCH  17  18
ENDBRANCH  13  17
ENDBRANCH  10  13
ENDBRANCH   6   9
BRANCH   1  21
ATOM     21  C   UNL     1       5.950   3.602  15.638  0.00  0.00    +0.000 C 
BRANCH  21  22
ATOM     22  C   UNL     1       5.951   4.449  14.401  0.00  0.00    +0.000 C 
ATOM     23  O   UNL     1       6.517   5.534  14.415  0.00  0.00    +0.000 OA
BRANCH  22  24
ATOM     24  O   UNL     1       5.297   4.010  13.294  0.00  0.00    +0.000 OA
BRANCH  24  26
ATOM     25  C   UNL     1       7.065   3.781  11.765  0.00  0.00    +0.000 C 
ATOM     26  C   UNL     1       5.818   3.154  12.340  0.00  0.00    +0.000 C 
ENDBRANCH  24  26
ENDBRANCH  22  24
ENDBRANCH  21  22
ENDBRANCH   1  21
TORSDOF 10
ENDMDL
MODEL 3
REMARK VINA RESULT:      -6.0      3.547      5.969
REMARK  Name = 
REMARK  12 active torsions:
REMARK  status: ('A' for Active; 'I' for Inactive)
REMARK    1  A    between atoms: C_1  and  C_2
REMARK    2  A    between atoms: C_2  and  O_3
REMARK    3  A    between atoms: O_3  and  C_4
REMARK    4  A    between atoms: C_4  and  C_6
REMARK    5  A    between atoms: C_6  and  N_7
REMARK    6  A    between atoms: C_12  and  N_13
REMARK    7  A    between atoms: C_14  and  C_16
REMARK    8  A    between atoms: C_16  and  N_17
REMARK    9  A    between atoms: C_16  and  C_18
REMARK   10  A    between atoms: C_18  and  C_19
REMARK   11  A    between atoms: C_19  and  S_20
REMARK   12  A    between atoms: S_20  and  C_21
REMARK                            x       y       z     vdW  Elec       q    Type
REMARK                         _______ _______ _______ _____ _____    ______ ____
ROOT
ATOM      1  N   UNL     1       6.916   4.983  16.908  0.00  0.00    +0.000 N 
ATOM      2  C   UNL     1       7.087   5.007  15.542  0.00  0.00    +0.000 C 
ATOM      3  O   UNL     1       7.889   5.769  15.019  0.00  0.00    +0.000 OA
ATOM      4  C   UNL     1       6.323   4.060  14.652  0.00  0.00    +0.000 C 
ATOM      5  C   UNL     1       4.907   3.952  15.170  0.00  0.00    +0.000 C 
ATOM      6  C   UNL     1       4.937   3.419  16.614  0.00  0.00    +0.000 C 
ATOM      7  C   UNL     1       5.930   4.199  17.468  0.00  0.00    +0.000 C 
ATOM      8  O   UNL     1       5.857   4.083  18.686  0.00  0.00    +0.000 OA
ENDROOT
BRANCH   6   9
ATOM      9  N   UNL     1       3.587   3.504  17.162  0.00  0.00    +0.000 N 
ATOM     10  C   UNL     1       2.977   2.466  17.806  0.00  0.00    +0.000 C 
ATOM     11  O   UNL     1       3.573   1.413  17.990  0.00  0.00    +0.000 OA
ATOM     12  H   UNL     1       3.071   4.388  17.040  0.00  0.00    +0.000 HD
BRANCH  10  13
ATOM     13  C   UNL     1       1.543   2.588  18.296  0.00  0.00    +0.000 C 
BRANCH  13  14
ATOM     14  N   UNL     1       1.311   1.662  19.405  0.00  0.00    +0.000 NA
ATOM     15  H   UNL     1       1.444   2.152  20.321  0.00  0.00    +0.000 HD
ATOM     16  H   UNL     1       1.988   0.869  19.347  0.00  0.00    +0.000 HD
ENDBRANCH  13  14
BRANCH  13  17
ATOM     17  C   UNL     1       1.213   4.024  18.757  0.00  0.00    +0.000 C 
BRANCH  17  18
ATOM     18  C   UNL     1       1.138   4.170  20.278  0.00  0.00    +0.000 C 
BRANCH  18  19
ATOM     19  S   UNL     1       1.843   5.771  20.799  0.00  0.00    +0.000 S 
ATOM     20  C   UNL     1       2.525   6.136  19.162  0.00  0.00    +0.000 C 
ENDBRANCH  18  19
ENDBRANCH  17  18
ENDBRANCH  13  17
ENDBRANCH  10  13
ENDBRANCH   6   9
BRANCH   1  21
ATOM     21  C   UNL     1       7.809   5.770  17.769  0.00  0.00    +0.000 C 
BRANCH  21  22
ATOM     22  C   UNL     1       7.425   7.219  17.807  0.00  0.00    +0.000 C 
ATOM     23  O   UNL     1       6.353   7.571  17.333  0.00  0.00    +0.000 OA
BRANCH  22  24
ATOM     24  O   UNL     1       8.290   8.121  18.339  0.00  0.00    +0.000 OA
BRANCH  24  26
ATOM     25  C   UNL     1       9.175  10.170  19.069  0.00  0.00    +0.000 C 
ATOM     26  C   UNL     1       8.340   9.468  18.026  0.00  0.00    +0.000 C 
ENDBRANCH  24  26
ENDBRANCH  22  24
ENDBRANCH  21  22
ENDBRANCH   1  21
TORSDOF 10
ENDMDL
MODEL 4
REMARK VINA RESULT:      -5.9      1.485      2.070
REMARK  Name = 
REMARK  12 active torsions:
REMARK  status: ('A' for Active; 'I' for Inactive)
REMARK    1  A    between atoms: C_1  and  C_2
REMARK    2  A    between atoms: C_2  and  O_3
REMARK    3  A    between atoms: O_3  and  C_4
REMARK    4  A    between atoms: C_4  and  C_6
REMARK    5  A    between atoms: C_6  and  N_7
REMARK    6  A    between atoms: C_12  and  N_13
REMARK    7  A    between atoms: C_14  and  C_16
REMARK    8  A    between atoms: C_16  and  N_17
REMARK    9  A    between atoms: C_16  and  C_18
REMARK   10  A    between atoms: C_18  and  C_19
REMARK   11  A    between atoms: C_19  and  S_20
REMARK   12  A    between atoms: S_20  and  C_21
REMARK                            x       y       z     vdW  Elec       q    Type
REMARK                         _______ _______ _______ _____ _____    ______ ____
ROOT
ATOM      1  N   UNL     1       3.208   3.613  18.353  0.00  0.00    +0.000 N 
ATOM      2  C   UNL     1       4.463   3.488  18.909  0.00  0.00    +0.000 C 
ATOM      3  O   UNL     1       4.865   2.411  19.326  0.00  0.00    +0.000 OA
ATOM      4  C   UNL     1       5.397   4.670  18.976  0.00  0.00    +0.000 C 
ATOM      5  C   UNL     1       4.594   5.895  19.348  0.00  0.00    +0.000 C 
ATOM      6  C   UNL     1       3.512   6.133  18.279  0.00  0.00    +0.000 C 
ATOM      7  C   UNL     1       2.732   4.855  17.992  0.00  0.00    +0.000 C 
ATOM      8  O   UNL     1       1.670   4.952  17.389  0.00  0.00    +0.000 OA
ENDROOT
BRANCH   6   9
ATOM      9  N   UNL     1       2.629   7.196  18.749  0.00  0.00    +0.000 N 
ATOM     10  C   UNL     1       2.421   8.354  18.057  0.00  0.00    +0.000 C 
ATOM     11  O   UNL     1       2.947   8.527  16.965  0.00  0.00    +0.000 OA
ATOM     12  H   UNL     1       2.156   7.065  19.657  0.00  0.00    +0.000 HD
BRANCH  10  13
ATOM     13  C   UNL     1       1.544   9.457  18.627  0.00  0.00    +0.000 C 
BRANCH  13  14
ATOM     14  N   UNL     1       0.356   9.637  17.793  0.00  0.00    +0.000 NA
ATOM     15  H   UNL     1       0.315  10.616  17.425  0.00  0.00    +0.000 HD
ATOM     16  H   UNL     1      -0.502   9.455  18.361  0.00  0.00    +0.000 HD
ENDBRANCH  13  14
BRANCH  13  17
ATOM     17  C   UNL     1       1.106   9.152  20.076  0.00  0.00    +0.000 C 
BRANCH  17  18
ATOM     18  C   UNL     1       0.709  10.401  20.864  0.00  0.00    +0.000 C 
BRANCH  18  19
ATOM     19  S   UNL     1      -0.036   9.935  22.463  0.00  0.00    +0.000 S 
ATOM     20  C   UNL     1      -0.568   8.308  21.873  0.00  0.00    +0.000 C 
ENDBRANCH  18  19
ENDBRANCH  17  18
ENDBRANCH  13  17
ENDBRANCH  10  13
ENDBRANCH   6   9
BRANCH   1  21
ATOM     21  C   UNL     1       2.394   2.414  18.117  0.00  0.00    +0.000 C 
BRANCH  21  22
ATOM     22  C   UNL     1       1.343   2.227  19.170  0.00  0.00    +0.000 C 
ATOM     23  O   UNL     1       0.161   2.300  18.860  0.00  0.00    +0.000 OA
BRANCH  22  24
ATOM     24  O   UNL     1       1.721   2.012  20.456  0.00  0.00    +0.000 OA
BRANCH  24  26
ATOM     25  C   UNL     1       2.160   4.023  21.587  0.00  0.00    +0.000 C 
ATOM     26  C   UNL     1       1.326   2.766  21.547  0.00  0.00    +0.000 C 
ENDBRANCH  24  26
ENDBRANCH  22  24
ENDBRANCH  21  22
ENDBRANCH   1  21
TORSDOF 10
ENDMDL
MODEL 5
REMARK VINA RESULT:      -5.8      3.930      5.871
REMARK  Name = 
REMARK  12 active torsions:
REMARK  status: ('A' for Active; 'I' for Inactive)
REMARK    1  A    between atoms: C_1  and  C_2
REMARK    2  A    between atoms: C_2  and  O_3
REMARK    3  A    between atoms: O_3  and  C_4
REMARK    4  A    between atoms: C_4  and  C_6
REMARK    5  A    between atoms: C_6  and  N_7
REMARK    6  A    between atoms: C_12  and  N_13
REMARK    7  A    between atoms: C_14  and  C_16
REMARK    8  A    between atoms: C_16  and  N_17
REMARK    9  A    between atoms: C_16  and  C_18
REMARK   10  A    between atoms: C_18  and  C_19
REMARK   11  A    between atoms: C_19  and  S_20
REMARK   12  A    between atoms: S_20  and  C_21
REMARK                            x       y       z     vdW  Elec       q    Type
REMARK                         _______ _______ _______ _____ _____    ______ ____
ROOT
ATOM      1  N   UNL     1       5.705   5.855  16.566  0.00  0.00    +0.000 N 
ATOM      2  C   UNL     1       6.992   6.041  17.021  0.00  0.00    +0.000 C 
ATOM      3  O   UNL     1       7.942   6.029  16.251  0.00  0.00    +0.000 OA
ATOM      4  C   UNL     1       7.262   6.313  18.479  0.00  0.00    +0.000 C 
ATOM      5  C   UNL     1       6.356   5.431  19.307  0.00  0.00    +0.000 C 
ATOM      6  C   UNL     1       4.889   5.755  18.969  0.00  0.00    +0.000 C 
ATOM      7  C   UNL     1       4.661   5.761  17.461  0.00  0.00    +0.000 C 
ATOM      8  O   UNL     1       3.507   5.718  17.054  0.00  0.00    +0.000 OA
ENDROOT
BRANCH   6   9
ATOM      9  N   UNL     1       4.038   4.769  19.627  0.00  0.00    +0.000 N 
ATOM     10  C   UNL     1       2.833   5.080  20.188  0.00  0.00    +0.000 C 
ATOM     11  O   UNL     1       2.391   6.219  20.116  0.00  0.00    +0.000 OA
ATOM     12  H   UNL     1       4.378   3.797  19.682  0.00  0.00    +0.000 HD
BRANCH  10  13
ATOM     13  C   UNL     1       2.019   4.027  20.922  0.00  0.00    +0.000 C 
BRANCH  13  14
ATOM     14  N   UNL     1       0.596   4.203  20.638  0.00  0.00    +0.000 NA
ATOM     15  H   UNL     1       0.369   3.845  19.680  0.00  0.00    +0.000 HD
ATOM     16  H   UNL     1       0.352   5.218  20.683  0.00  0.00    +0.000 HD
ENDBRANCH  13  14
BRANCH  13  17
ATOM     17  C   UNL     1       2.442   2.595  20.527  0.00  0.00    +0.000 C 
BRANCH  17  18
ATOM     18  C   UNL     1       1.591   2.001  19.404  0.00  0.00    +0.000 C 
BRANCH  18  19
ATOM     19  S   UNL     1       2.437   2.188  17.797  0.00  0.00    +0.000 S 
ATOM     20  C   UNL     1       3.936   1.341  18.356  0.00  0.00    +0.000 C 
ENDBRANCH  18  19
ENDBRANCH  17  18
ENDBRANCH  13  17
ENDBRANCH  10  13
ENDBRANCH   6   9
BRANCH   1  21
ATOM     21  C   UNL     1       5.445   5.790  15.122  0.00  0.00    +0.000 C 
BRANCH  21  22
ATOM     22  C   UNL     1       5.521   4.388  14.595  0.00  0.00    +0.000 C 
ATOM     23  O   UNL     1       6.141   3.542  15.225  0.00  0.00    +0.000 OA
BRANCH  22  24
ATOM     24  O   UNL     1       4.927   4.090  13.411  0.00  0.00    +0.000 OA
BRANCH  24  26
ATOM     25  C   UNL     1       4.443   3.090  11.342  0.00  0.00    +0.000 C 
ATOM     26  C   UNL     1       5.500   3.360  12.385  0.00  0.00    +0.000 C 
ENDBRANCH  24  26
ENDBRANCH  22  24
ENDBRANCH  21  22
ENDBRANCH   1  21
TORSDOF 10
ENDMDL
MODEL 6
REMARK VINA RESULT:      -5.7      2.762      6.894
REMARK  Name = 
REMARK  12 active torsions:
REMARK  status: ('A' for Active; 'I' for Inactive)
REMARK    1  A    between atoms: C_1  and  C_2
REMARK    2  A    between atoms: C_2  and  O_3
REMARK    3  A    between atoms: O_3  and  C_4
REMARK    4  A    between atoms: C_4  and  C_6
REMARK    5  A    between atoms: C_6  and  N_7
REMARK    6  A    between atoms: C_12  and  N_13
REMARK    7  A    between atoms: C_14  and  C_16
REMARK    8  A    between atoms: C_16  and  N_17
REMARK    9  A    between atoms: C_16  and  C_18
REMARK   10  A    between atoms: C_18  and  C_19
REMARK   11  A    between atoms: C_19  and  S_20
REMARK   12  A    between atoms: S_20  and  C_21
REMARK                            x       y       z     vdW  Elec       q    Type
REMARK                         _______ _______ _______ _____ _____    ______ ____
ROOT
ATOM      1  N   UNL     1       0.755   9.044  20.022  0.00  0.00    +0.000 N 
ATOM      2  C   UNL     1       0.800   9.965  18.997  0.00  0.00    +0.000 C 
ATOM      3  O   UNL     1      -0.018  10.871  18.927  0.00  0.00    +0.000 OA
ATOM      4  C   UNL     1       1.889   9.907  17.957  0.00  0.00    +0.000 C 
ATOM      5  C   UNL     1       2.134   8.459  17.598  0.00  0.00    +0.000 C 
ATOM      6  C   UNL     1       2.565   7.692  18.861  0.00  0.00    +0.000 C 
ATOM      7  C   UNL     1       1.615   7.967  20.022  0.00  0.00    +0.000 C 
ATOM      8  O   UNL     1       1.659   7.218  20.991  0.00  0.00    +0.000 OA
ENDROOT
BRANCH   6   9
ATOM      9  N   UNL     1       2.609   6.269  18.541  0.00  0.00    +0.000 N 
ATOM     10  C   UNL     1       3.711   5.656  18.017  0.00  0.00    +0.000 C 
ATOM     11  O   UNL     1       4.744   6.287  17.835  0.00  0.00    +0.000 OA
ATOM     12  H   UNL     1       1.757   5.710  18.705  0.00  0.00    +0.000 HD
BRANCH  10  13
ATOM     13  C   UNL     1       3.678   4.184  17.637  0.00  0.00    +0.000 C 
BRANCH  13  14
ATOM     14  N   UNL     1       4.895   3.519  18.100  0.00  0.00    +0.000 NA
ATOM     15  H   UNL     1       5.720   4.156  17.995  0.00  0.00    +0.000 HD
ATOM     16  H   UNL     1       5.061   2.658  17.532  0.00  0.00    +0.000 HD
ENDBRANCH  13  14
BRANCH  13  17
ATOM     17  C   UNL     1       2.449   3.464  18.233  0.00  0.00    +0.000 C 
BRANCH  17  18
ATOM     18  C   UNL     1       2.816   2.359  19.224  0.00  0.00    +0.000 C 
BRANCH  18  19
ATOM     19  S   UNL     1       2.516   2.914  20.937  0.00  0.00    +0.000 S 
ATOM     20  C   UNL     1       0.990   3.790  20.509  0.00  0.00    +0.000 C 
ENDBRANCH  18  19
ENDBRANCH  17  18
ENDBRANCH  13  17
ENDBRANCH  10  13
ENDBRANCH   6   9
BRANCH   1  21
ATOM     21  C   UNL     1      -0.189   9.234  21.130  0.00  0.00    +0.000 C 
BRANCH  21  22
ATOM     22  C   UNL     1       0.366  10.126  22.200  0.00  0.00    +0.000 C 
ATOM     23  O   UNL     1       0.788   9.632  23.237  0.00  0.00    +0.000 OA
BRANCH  22  24
ATOM     24  O   UNL     1       0.362  11.471  22.012  0.00  0.00    +0.000 OA
BRANCH  24  26
ATOM     25  C   UNL     1      -1.728  11.549  23.080  0.00  0.00    +0.000 C 
ATOM     26  C   UNL     1      -0.694  12.319  22.295  0.00  0.00    +0.000 C 
ENDBRANCH  24  26
ENDBRANCH  22  24
ENDBRANCH  21  22
ENDBRANCH   1  21
TORSDOF 10
ENDMDL
MODEL 7
REMARK VINA RESULT:      -5.7      4.038      6.718
REMARK  Name = 
REMARK  12 active torsions:
REMARK  status: ('A' for Active; 'I' for Inactive)
REMARK    1  A    between atoms: C_1  and  C_2
REMARK    2  A    between atoms: C_2  and  O_3
REMARK    3  A    between atoms: O_3  and  C_4
REMARK    4  A    between atoms: C_4  and  C_6
REMARK    5  A    between atoms: C_6  and  N_7
REMARK    6  A    between atoms: C_12  and  N_13
REMARK    7  A    between atoms: C_14  and  C_16
REMARK    8  A    between atoms: C_16  and  N_17
REMARK    9  A    between atoms: C_16  and  C_18
REMARK   10  A    between atoms: C_18  and  C_19
REMARK   11  A    between atoms: C_19  and  S_20
REMARK   12  A    between atoms: S_20  and  C_21
REMARK                            x       y       z     vdW  Elec       q    Type
REMARK                         _______ _______ _______ _____ _____    ______ ____
ROOT
ATOM      1  N   UNL     1       3.248   5.116  19.982  0.00  0.00    +0.000 N 
ATOM      2  C   UNL     1       2.339   6.152  20.002  0.00  0.00    +0.000 C 
ATOM      3  O   UNL     1       1.350   6.110  20.720  0.00  0.00    +0.000 OA
ATOM      4  C   UNL     1       2.564   7.390  19.172  0.00  0.00    +0.000 C 
ATOM      5  C   UNL     1       3.109   6.972  17.825  0.00  0.00    +0.000 C 
ATOM      6  C   UNL     1       4.437   6.220  18.028  0.00  0.00    +0.000 C 
ATOM      7  C   UNL     1       4.296   5.131  19.087  0.00  0.00    +0.000 C 
ATOM      8  O   UNL     1       5.169   4.275  19.151  0.00  0.00    +0.000 OA
ENDROOT
BRANCH   6   9
ATOM      9  N   UNL     1       4.847   5.659  16.745  0.00  0.00    +0.000 N 
ATOM     10  C   UNL     1       6.062   5.911  16.176  0.00  0.00    +0.000 C 
ATOM     11  O   UNL     1       6.890   6.598  16.759  0.00  0.00    +0.000 OA
ATOM     12  H   UNL     1       4.175   5.058  16.243  0.00  0.00    +0.000 HD
BRANCH  10  13
ATOM     13  C   UNL     1       6.410   5.355  14.804  0.00  0.00    +0.000 C 
BRANCH  13  14
ATOM     14  N   UNL     1       7.838   5.528  14.540  0.00  0.00    +0.000 NA
ATOM     15  H   UNL     1       8.406   5.061  15.286  0.00  0.00    +0.000 HD
ATOM     16  H   UNL     1       8.072   6.547  14.528  0.00  0.00    +0.000 HD
ENDBRANCH  13  14
BRANCH  13  17
ATOM     17  C   UNL     1       6.049   3.859  14.681  0.00  0.00    +0.000 C 
BRANCH  17  18
ATOM     18  C   UNL     1       4.976   3.580  13.628  0.00  0.00    +0.000 C 
BRANCH  18  19
ATOM     19  S   UNL     1       5.748   3.147  12.032  0.00  0.00    +0.000 S 
ATOM     20  C   UNL     1       4.169   3.100  11.148  0.00  0.00    +0.000 C 
ENDBRANCH  18  19
ENDBRANCH  17  18
ENDBRANCH  13  17
ENDBRANCH  10  13
ENDBRANCH   6   9
BRANCH   1  21
ATOM     21  C   UNL     1       3.115   4.012  20.942  0.00  0.00    +0.000 C 
BRANCH  21  22
ATOM     22  C   UNL     1       2.216   2.925  20.432  0.00  0.00    +0.000 C 
ATOM     23  O   UNL     1       1.139   2.730  20.980  0.00  0.00    +0.000 OA
BRANCH  22  24
ATOM     24  O   UNL     1       2.628   2.155  19.392  0.00  0.00    +0.000 OA
BRANCH  24  26
ATOM     25  C   UNL     1       1.344   3.439  17.903  0.00  0.00    +0.000 C 
ATOM     26  C   UNL     1       2.048   2.124  18.136  0.00  0.00    +0.000 C 
ENDBRANCH  24  26
ENDBRANCH  22  24
ENDBRANCH  21  22
ENDBRANCH   1  21
TORSDOF 10
ENDMDL
MODEL 8
REMARK VINA RESULT:      -5.7      3.859      6.696
REMARK  Name = 
REMARK  12 active torsions:
REMARK  status: ('A' for Active; 'I' for Inactive)
REMARK    1  A    between atoms: C_1  and  C_2
REMARK    2  A    between atoms: C_2  and  O_3
REMARK    3  A    between atoms: O_3  and  C_4
REMARK    4  A    between atoms: C_4  and  C_6
REMARK    5  A    between atoms: C_6  and  N_7
REMARK    6  A    between atoms: C_12  and  N_13
REMARK    7  A    between atoms: C_14  and  C_16
REMARK    8  A    between atoms: C_16  and  N_17
REMARK    9  A    between atoms: C_16  and  C_18
REMARK   10  A    between atoms: C_18  and  C_19
REMARK   11  A    between atoms: C_19  and  S_20
REMARK   12  A    between atoms: S_20  and  C_21
REMARK                            x       y       z     vdW  Elec       q    Type
REMARK                         _______ _______ _______ _____ _____    ______ ____
ROOT
ATOM      1  N   UNL     1       2.735   5.478  20.301  0.00  0.00    +0.000 N 
ATOM      2  C   UNL     1       1.861   6.543  20.257  0.00  0.00    +0.000 C 
ATOM      3  O   UNL     1       0.832   6.543  20.917  0.00  0.00    +0.000 OA
ATOM      4  C   UNL     1       2.173   7.762  19.426  0.00  0.00    +0.000 C 
ATOM      5  C   UNL     1       2.779   7.307  18.117  0.00  0.00    +0.000 C 
ATOM      6  C   UNL     1       4.067   6.517  18.405  0.00  0.00    +0.000 C 
ATOM      7  C   UNL     1       3.831   5.448  19.467  0.00  0.00    +0.000 C 
ATOM      8  O   UNL     1       4.671   4.565  19.590  0.00  0.00    +0.000 OA
ENDROOT
BRANCH   6   9
ATOM      9  N   UNL     1       4.531   5.925  17.154  0.00  0.00    +0.000 N 
ATOM     10  C   UNL     1       5.638   6.363  16.487  0.00  0.00    +0.000 C 
ATOM     11  O   UNL     1       6.326   7.264  16.950  0.00  0.00    +0.000 OA
ATOM     12  H   UNL     1       3.981   5.149  16.753  0.00  0.00    +0.000 HD
BRANCH  10  13
ATOM     13  C   UNL     1       6.036   5.755  15.151  0.00  0.00    +0.000 C 
BRANCH  13  14
ATOM     14  N   UNL     1       7.479   5.518  15.117  0.00  0.00    +0.000 NA
ATOM     15  H   UNL     1       7.785   5.014  15.981  0.00  0.00    +0.000 HD
ATOM     16  H   UNL     1       7.983   6.432  15.065  0.00  0.00    +0.000 HD
ENDBRANCH  13  14
BRANCH  13  17
ATOM     17  C   UNL     1       5.297   4.426  14.882  0.00  0.00    +0.000 C 
BRANCH  17  18
ATOM     18  C   UNL     1       6.140   3.411  14.108  0.00  0.00    +0.000 C 
BRANCH  18  19
ATOM     19  S   UNL     1       5.652   3.387  12.350  0.00  0.00    +0.000 S 
ATOM     20  C   UNL     1       7.223   4.088  11.784  0.00  0.00    +0.000 C 
ENDBRANCH  18  19
ENDBRANCH  17  18
ENDBRANCH  13  17
ENDBRANCH  10  13
ENDBRANCH   6   9
BRANCH   1  21
ATOM     21  C   UNL     1       2.512   4.393  21.265  0.00  0.00    +0.000 C 
BRANCH  21  22
ATOM     22  C   UNL     1       1.524   3.383  20.761  0.00  0.00    +0.000 C 
ATOM     23  O   UNL     1       1.066   2.552  21.534  0.00  0.00    +0.000 OA
BRANCH  22  24
ATOM     24  O   UNL     1       1.179   3.389  19.448  0.00  0.00    +0.000 OA
BRANCH  24  26
ATOM     25  C   UNL     1       2.388   2.805  17.522  0.00  0.00    +0.000 C 
ATOM     26  C   UNL     1       1.388   2.351  18.557  0.00  0.00    +0.000 C 
ENDBRANCH  24  26
ENDBRANCH  22  24
ENDBRANCH  21  22
ENDBRANCH   1  21
TORSDOF 10
ENDMDL
MODEL 9
REMARK VINA RESULT:      -5.7      3.539      5.575
REMARK  Name = 
REMARK  12 active torsions:
REMARK  status: ('A' for Active; 'I' for Inactive)
REMARK    1  A    between atoms: C_1  and  C_2
REMARK    2  A    between atoms: C_2  and  O_3
REMARK    3  A    between atoms: O_3  and  C_4
REMARK    4  A    between atoms: C_4  and  C_6
REMARK    5  A    between atoms: C_6  and  N_7
REMARK    6  A    between atoms: C_12  and  N_13
REMARK    7  A    between atoms: C_14  and  C_16
REMARK    8  A    between atoms: C_16  and  N_17
REMARK    9  A    between atoms: C_16  and  C_18
REMARK   10  A    between atoms: C_18  and  C_19
REMARK   11  A    between atoms: C_19  and  S_20
REMARK   12  A    between atoms: S_20  and  C_21
REMARK                            x       y       z     vdW  Elec       q    Type
REMARK                         _______ _______ _______ _____ _____    ______ ____
ROOT
ATOM      1  N   UNL     1       6.702   5.305  16.611  0.00  0.00    +0.000 N 
ATOM      2  C   UNL     1       7.542   4.871  17.614  0.00  0.00    +0.000 C 
ATOM      3  O   UNL     1       8.506   4.160  17.366  0.00  0.00    +0.000 OA
ATOM      4  C   UNL     1       7.321   5.298  19.043  0.00  0.00    +0.000 C 
ATOM      5  C   UNL     1       5.836   5.278  19.325  0.00  0.00    +0.000 C 
ATOM      6  C   UNL     1       5.126   6.249  18.365  0.00  0.00    +0.000 C 
ATOM      7  C   UNL     1       5.560   6.011  16.922  0.00  0.00    +0.000 C 
ATOM      8  O   UNL     1       4.880   6.501  16.029  0.00  0.00    +0.000 OA
ENDROOT
BRANCH   6   9
ATOM      9  N   UNL     1       3.685   6.074  18.518  0.00  0.00    +0.000 N 
ATOM     10  C   UNL     1       3.043   4.901  18.243  0.00  0.00    +0.000 C 
ATOM     11  O   UNL     1       3.676   3.914  17.892  0.00  0.00    +0.000 OA
ATOM     12  H   UNL     1       3.131   6.885  18.834  0.00  0.00    +0.000 HD
BRANCH  10  13
ATOM     13  C   UNL     1       1.530   4.796  18.354  0.00  0.00    +0.000 C 
BRANCH  13  14
ATOM     14  N   UNL     1       0.970   4.273  17.108  0.00  0.00    +0.000 NA
ATOM     15  H   UNL     1       0.718   5.059  16.464  0.00  0.00    +0.000 HD
ATOM     16  H   UNL     1       0.108   3.720  17.316  0.00  0.00    +0.000 HD
ENDBRANCH  13  14
BRANCH  13  17
ATOM     17  C   UNL     1       1.102   3.885  19.525  0.00  0.00    +0.000 C 
BRANCH  17  18
ATOM     18  C   UNL     1       1.733   4.280  20.861  0.00  0.00    +0.000 C 
BRANCH  18  19
ATOM     19  S   UNL     1       2.117   2.793  21.847  0.00  0.00    +0.000 S 
ATOM     20  C   UNL     1       3.583   2.380  20.869  0.00  0.00    +0.000 C 
ENDBRANCH  18  19
ENDBRANCH  17  18
ENDBRANCH  13  17
ENDBRANCH  10  13
ENDBRANCH   6   9
BRANCH   1  21
ATOM     21  C   UNL     1       7.047   5.043  15.208  0.00  0.00    +0.000 C 
BRANCH  21  22
ATOM     22  C   UNL     1       6.182   3.977  14.602  0.00  0.00    +0.000 C 
ATOM     23  O   UNL     1       5.833   3.025  15.287  0.00  0.00    +0.000 OA
BRANCH  22  24
ATOM     24  O   UNL     1       5.829   4.073  13.295  0.00  0.00    +0.000 OA
BRANCH  24  26
ATOM     25  C   UNL     1       5.322   2.524  11.604  0.00  0.00    +0.000 C 
ATOM     26  C   UNL     1       6.398   3.359  12.254  0.00  0.00    +0.000 C 
ENDBRANCH  24  26
ENDBRANCH  22  24
ENDBRANCH  21  22
ENDBRANCH   1  21
TORSDOF 10
ENDMDL
