MODEL 1
REMARK VINA RESULT:      -5.1      0.000      0.000
REMARK  Name = 
REMARK  4 active torsions:
REMARK  status: ('A' for Active; 'I' for Inactive)
REMARK    1  A    between atoms: C_2  and  S_4
REMARK    2  A    between atoms: S_4  and  C_5
REMARK    3  A    between atoms: C_5  and  C_6
REMARK    4  A    between atoms: C_6  and  C_7
REMARK                            x       y       z     vdW  Elec       q    Type
REMARK                         _______ _______ _______ _____ _____    ______ ____
ROOT
ATOM      1  C   UNL     1       2.340   6.003  17.962  0.00  0.00    +0.000 C 
ENDROOT
BRANCH   1   2
ATOM      2  C   UNL     1       1.997   4.907  18.945  0.00  0.00    +0.000 A 
ATOM      3  C   UNL     1       1.381   3.728  18.505  0.00  0.00    +0.000 A 
ATOM      4  C   UNL     1       1.074   2.711  19.410  0.00  0.00    +0.000 A 
ATOM      5  C   UNL     1       1.371   2.865  20.763  0.00  0.00    +0.000 A 
ATOM      6  C   UNL     1       1.973   4.039  21.212  0.00  0.00    +0.000 A 
ATOM      7  C   UNL     1       2.282   5.059  20.309  0.00  0.00    +0.000 A 
ENDBRANCH   1   2
BRANCH   1   8
ATOM      8  C   UNL     1       3.836   6.316  17.949  0.00  0.00    +0.000 C 
BRANCH   8   9
ATOM      9  S   UNL     1       4.748   4.918  17.220  0.00  0.00    +0.000 S 
BRANCH   9  11
ATOM     10  F   UNL     1       5.576   5.339  19.649  0.00  0.00    +0.000 F 
ATOM     11  C   UNL     1       5.590   4.363  18.708  0.00  0.00    +0.000 C 
ATOM     12  F   UNL     1       4.945   3.296  19.243  0.00  0.00    +0.000 F 
ENDBRANCH   9  11
ENDBRANCH   8   9
ENDBRANCH   1   8
TORSDOF 4
ENDMDL
MODEL 2
REMARK VINA RESULT:      -5.0      1.738      2.318
REMARK  Name = 
REMARK  4 active torsions:
REMARK  status: ('A' for Active; 'I' for Inactive)
REMARK    1  A    between atoms: C_2  and  S_4
REMARK    2  A    between atoms: S_4  and  C_5
REMARK    3  A    between atoms: C_5  and  C_6
REMARK    4  A    between atoms: C_6  and  C_7
REMARK                            x       y       z     vdW  Elec       q    Type
REMARK                         _______ _______ _______ _____ _____    ______ ____
ROOT
ATOM      1  C   UNL     1       3.555   5.362  17.623  0.00  0.00    +0.000 C 
ENDROOT
BRANCH   1   2
ATOM      2  C   UNL     1       2.554   4.572  18.435  0.00  0.00    +0.000 A 
ATOM      3  C   UNL     1       2.169   5.012  19.708  0.00  0.00    +0.000 A 
ATOM      4  C   UNL     1       1.236   4.290  20.454  0.00  0.00    +0.000 A 
ATOM      5  C   UNL     1       0.686   3.118  19.938  0.00  0.00    +0.000 A 
ATOM      6  C   UNL     1       1.072   2.665  18.678  0.00  0.00    +0.000 A 
ATOM      7  C   UNL     1       2.004   3.386  17.929  0.00  0.00    +0.000 A 
ENDBRANCH   1   2
BRANCH   1   8
ATOM      8  C   UNL     1       4.919   4.675  17.567  0.00  0.00    +0.000 C 
BRANCH   8   9
ATOM      9  S   UNL     1       5.922   5.187  18.999  0.00  0.00    +0.000 S 
BRANCH   9  11
ATOM     10  F   UNL     1       8.285   6.267  18.896  0.00  0.00    +0.000 F 
ATOM     11  C   UNL     1       7.459   5.514  18.127  0.00  0.00    +0.000 C 
ATOM     12  F   UNL     1       8.112   4.353  17.872  0.00  0.00    +0.000 F 
ENDBRANCH   9  11
ENDBRANCH   8   9
ENDBRANCH   1   8
TORSDOF 4
ENDMDL
MODEL 3
REMARK VINA RESULT:      -5.0      1.782      2.264
REMARK  Name = 
REMARK  4 active torsions:
REMARK  status: ('A' for Active; 'I' for Inactive)
REMARK    1  A    between atoms: C_2  and  S_4
REMARK    2  A    between atoms: S_4  and  C_5
REMARK    3  A    between atoms: C_5  and  C_6
REMARK    4  A    between atoms: C_6  and  C_7
REMARK                            x       y       z     vdW  Elec       q    Type
REMARK                         _______ _______ _______ _____ _____    ______ ____
ROOT
ATOM      1  C   UNL     1       3.285   6.009  17.919  0.00  0.00    +0.000 C 
ENDROOT
BRANCH   1   2
ATOM      2  C   UNL     1       2.404   4.992  18.607  0.00  0.00    +0.000 A 
ATOM      3  C   UNL     1       2.068   5.144  19.959  0.00  0.00    +0.000 A 
ATOM      4  C   UNL     1       1.246   4.212  20.592  0.00  0.00    +0.000 A 
ATOM      5  C   UNL     1       0.757   3.116  19.884  0.00  0.00    +0.000 A 
ATOM      6  C   UNL     1       1.093   2.949  18.542  0.00  0.00    +0.000 A 
ATOM      7  C   UNL     1       1.916   3.881  17.905  0.00  0.00    +0.000 A 
ENDBRANCH   1   2
BRANCH   1   8
ATOM      8  C   UNL     1       4.446   5.352  17.172  0.00  0.00    +0.000 C 
BRANCH   8   9
ATOM      9  S   UNL     1       5.892   5.230  18.273  0.00  0.00    +0.000 S 
BRANCH   9  11
ATOM     10  F   UNL     1       8.185   4.189  17.624  0.00  0.00    +0.000 F 
ATOM     11  C   UNL     1       7.115   4.780  17.036  0.00  0.00    +0.000 C 
ATOM     12  F   UNL     1       6.596   3.876  16.168  0.00  0.00    +0.000 F 
ENDBRANCH   9  11
ENDBRANCH   8   9
ENDBRANCH   1   8
TORSDOF 4
ENDMDL
MODEL 4
REMARK VINA RESULT:      -4.9      1.503      2.065
REMARK  Name = 
REMARK  4 active torsions:
REMARK  status: ('A' for Active; 'I' for Inactive)
REMARK    1  A    between atoms: C_2  and  S_4
REMARK    2  A    between atoms: S_4  and  C_5
REMARK    3  A    between atoms: C_5  and  C_6
REMARK    4  A    between atoms: C_6  and  C_7
REMARK                            x       y       z     vdW  Elec       q    Type
REMARK                         _______ _______ _______ _____ _____    ______ ____
ROOT
ATOM      1  C   UNL     1       3.015   6.295  17.979  0.00  0.00    +0.000 C 
ENDROOT
BRANCH   1   2
ATOM      2  C   UNL     1       2.268   5.152  18.626  0.00  0.00    +0.000 A 
ATOM      3  C   UNL     1       1.983   5.177  19.998  0.00  0.00    +0.000 A 
ATOM      4  C   UNL     1       1.284   4.127  20.594  0.00  0.00    +0.000 A 
ATOM      5  C   UNL     1       0.870   3.039  19.828  0.00  0.00    +0.000 A 
ATOM      6  C   UNL     1       1.159   2.998  18.466  0.00  0.00    +0.000 A 
ATOM      7  C   UNL     1       1.858   4.048  17.866  0.00  0.00    +0.000 A 
ENDBRANCH   1   2
BRANCH   1   8
ATOM      8  C   UNL     1       4.529   6.081  18.006  0.00  0.00    +0.000 C 
BRANCH   8   9
ATOM      9  S   UNL     1       5.156   5.930  16.303  0.00  0.00    +0.000 S 
BRANCH   9  11
ATOM     10  F   UNL     1       6.998   4.110  16.542  0.00  0.00    +0.000 F 
ATOM     11  C   UNL     1       5.656   4.205  16.370  0.00  0.00    +0.000 C 
ATOM     12  F   UNL     1       5.080   3.589  17.433  0.00  0.00    +0.000 F 
ENDBRANCH   9  11
ENDBRANCH   8   9
ENDBRANCH   1   8
TORSDOF 4
ENDMDL
MODEL 5
REMARK VINA RESULT:      -4.9      1.856      2.327
REMARK  Name = 
REMARK  4 active torsions:
REMARK  status: ('A' for Active; 'I' for Inactive)
REMARK    1  A    between atoms: C_2  and  S_4
REMARK    2  A    between atoms: S_4  and  C_5
REMARK    3  A    between atoms: C_5  and  C_6
REMARK    4  A    between atoms: C_6  and  C_7
REMARK                            x       y       z     vdW  Elec       q    Type
REMARK                         _______ _______ _______ _____ _____    ______ ____
ROOT
ATOM      1  C   UNL     1       3.708   2.453  17.762  0.00  0.00    +0.000 C 
ENDROOT
BRANCH   1   2
ATOM      2  C   UNL     1       2.860   2.668  18.995  0.00  0.00    +0.000 A 
ATOM      3  C   UNL     1       1.508   3.016  18.874  0.00  0.00    +0.000 A 
ATOM      4  C   UNL     1       0.722   3.204  20.012  0.00  0.00    +0.000 A 
ATOM      5  C   UNL     1       1.280   3.055  21.280  0.00  0.00    +0.000 A 
ATOM      6  C   UNL     1       2.627   2.721  21.411  0.00  0.00    +0.000 A 
ATOM      7  C   UNL     1       3.416   2.531  20.275  0.00  0.00    +0.000 A 
ENDBRANCH   1   2
BRANCH   1   8
ATOM      8  C   UNL     1       3.902   3.743  16.966  0.00  0.00    +0.000 C 
BRANCH   8   9
ATOM      9  S   UNL     1       5.111   4.810  17.813  0.00  0.00    +0.000 S 
BRANCH   9  11
ATOM     10  F   UNL     1       2.756   5.912  17.853  0.00  0.00    +0.000 F 
ATOM     11  C   UNL     1       3.960   6.025  18.468  0.00  0.00    +0.000 C 
ATOM     12  F   UNL     1       3.746   5.805  19.790  0.00  0.00    +0.000 F 
ENDBRANCH   9  11
ENDBRANCH   8   9
ENDBRANCH   1   8
TORSDOF 4
ENDMDL
MODEL 6
REMARK VINA RESULT:      -4.8      2.801      4.770
REMARK  Name = 
REMARK  4 active torsions:
REMARK  status: ('A' for Active; 'I' for Inactive)
REMARK    1  A    between atoms: C_2  and  S_4
REMARK    2  A    between atoms: S_4  and  C_5
REMARK    3  A    between atoms: C_5  and  C_6
REMARK    4  A    between atoms: C_6  and  C_7
REMARK                            x       y       z     vdW  Elec       q    Type
REMARK                         _______ _______ _______ _____ _____    ______ ____
ROOT
ATOM      1  C   UNL     1       3.469   3.366  18.578  0.00  0.00    +0.000 C 
ENDROOT
BRANCH   1   2
ATOM      2  C   UNL     1       4.041   4.458  17.703  0.00  0.00    +0.000 A 
ATOM      3  C   UNL     1       3.826   5.805  18.020  0.00  0.00    +0.000 A 
ATOM      4  C   UNL     1       4.363   6.815  17.220  0.00  0.00    +0.000 A 
ATOM      5  C   UNL     1       5.113   6.487  16.092  0.00  0.00    +0.000 A 
ATOM      6  C   UNL     1       5.323   5.150  15.761  0.00  0.00    +0.000 A 
ATOM      7  C   UNL     1       4.788   4.138  16.561  0.00  0.00    +0.000 A 
ENDBRANCH   1   2
BRANCH   1   8
ATOM      8  C   UNL     1       2.424   2.528  17.841  0.00  0.00    +0.000 C 
BRANCH   8   9
ATOM      9  S   UNL     1       0.918   2.394  18.857  0.00  0.00    +0.000 S 
BRANCH   9  11
ATOM     10  F   UNL     1       0.816   4.554  20.301  0.00  0.00    +0.000 F 
ATOM     11  C   UNL     1       1.474   3.368  20.262  0.00  0.00    +0.000 C 
ATOM     12  F   UNL     1       1.191   2.725  21.422  0.00  0.00    +0.000 F 
ENDBRANCH   9  11
ENDBRANCH   8   9
ENDBRANCH   1   8
TORSDOF 4
ENDMDL
MODEL 7
REMARK VINA RESULT:      -4.8      1.623      1.970
REMARK  Name = 
REMARK  4 active torsions:
REMARK  status: ('A' for Active; 'I' for Inactive)
REMARK    1  A    between atoms: C_2  and  S_4
REMARK    2  A    between atoms: S_4  and  C_5
REMARK    3  A    between atoms: C_5  and  C_6
REMARK    4  A    between atoms: C_6  and  C_7
REMARK                            x       y       z     vdW  Elec       q    Type
REMARK                         _______ _______ _______ _____ _____    ______ ____
ROOT
ATOM      1  C   UNL     1       3.997   5.409  17.514  0.00  0.00    +0.000 C 
ENDROOT
BRANCH   1   2
ATOM      2  C   UNL     1       2.938   4.860  18.443  0.00  0.00    +0.000 A 
ATOM      3  C   UNL     1       1.999   3.930  17.976  0.00  0.00    +0.000 A 
ATOM      4  C   UNL     1       1.028   3.414  18.835  0.00  0.00    +0.000 A 
ATOM      5  C   UNL     1       0.981   3.826  20.165  0.00  0.00    +0.000 A 
ATOM      6  C   UNL     1       1.903   4.759  20.636  0.00  0.00    +0.000 A 
ATOM      7  C   UNL     1       2.877   5.277  19.779  0.00  0.00    +0.000 A 
ENDBRANCH   1   2
BRANCH   1   8
ATOM      8  C   UNL     1       5.366   4.776  17.764  0.00  0.00    +0.000 C 
BRANCH   8   9
ATOM      9  S   UNL     1       6.676   5.901  17.185  0.00  0.00    +0.000 S 
BRANCH   9  11
ATOM     10  F   UNL     1       8.359   7.048  18.802  0.00  0.00    +0.000 F 
ATOM     11  C   UNL     1       7.707   5.867  18.657  0.00  0.00    +0.000 C 
ATOM     12  F   UNL     1       6.940   5.705  19.764  0.00  0.00    +0.000 F 
ENDBRANCH   9  11
ENDBRANCH   8   9
ENDBRANCH   1   8
TORSDOF 4
ENDMDL
MODEL 8
REMARK VINA RESULT:      -4.8      2.830      2.964
REMARK  Name = 
REMARK  4 active torsions:
REMARK  status: ('A' for Active; 'I' for Inactive)
REMARK    1  A    between atoms: C_2  and  S_4
REMARK    2  A    between atoms: S_4  and  C_5
REMARK    3  A    between atoms: C_5  and  C_6
REMARK    4  A    between atoms: C_6  and  C_7
REMARK                            x       y       z     vdW  Elec       q    Type
REMARK                         _______ _______ _______ _____ _____    ______ ____
ROOT
ATOM      1  C   UNL     1       3.730   4.997  17.435  0.00  0.00    +0.000 C 
ENDROOT
BRANCH   1   2
ATOM      2  C   UNL     1       2.670   4.395  18.328  0.00  0.00    +0.000 A 
ATOM      3  C   UNL     1       1.984   3.239  17.934  0.00  0.00    +0.000 A 
ATOM      4  C   UNL     1       1.013   2.676  18.763  0.00  0.00    +0.000 A 
ATOM      5  C   UNL     1       0.713   3.266  19.989  0.00  0.00    +0.000 A 
ATOM      6  C   UNL     1       1.381   4.423  20.385  0.00  0.00    +0.000 A 
ATOM      7  C   UNL     1       2.355   4.988  19.558  0.00  0.00    +0.000 A 
ENDBRANCH   1   2
BRANCH   1   8
ATOM      8  C   UNL     1       4.533   3.927  16.694  0.00  0.00    +0.000 C 
BRANCH   8   9
ATOM      9  S   UNL     1       6.208   4.550  16.345  0.00  0.00    +0.000 S 
BRANCH   9  11
ATOM     10  F   UNL     1       5.102   4.200  14.018  0.00  0.00    +0.000 F 
ATOM     11  C   UNL     1       6.309   4.054  14.620  0.00  0.00    +0.000 C 
ATOM     12  F   UNL     1       7.179   4.850  13.951  0.00  0.00    +0.000 F 
ENDBRANCH   9  11
ENDBRANCH   8   9
ENDBRANCH   1   8
TORSDOF 4
ENDMDL
MODEL 9
REMARK VINA RESULT:      -4.8      2.060      3.769
REMARK  Name = 
REMARK  4 active torsions:
REMARK  status: ('A' for Active; 'I' for Inactive)
REMARK    1  A    between atoms: C_2  and  S_4
REMARK    2  A    between atoms: S_4  and  C_5
REMARK    3  A    between atoms: C_5  and  C_6
REMARK    4  A    between atoms: C_6  and  C_7
REMARK                            x       y       z     vdW  Elec       q    Type
REMARK                         _______ _______ _______ _____ _____    ______ ____
ROOT
ATOM      1  C   UNL     1       1.335   3.582  18.245  0.00  0.00    +0.000 C 
ENDROOT
BRANCH   1   2
ATOM      2  C   UNL     1       2.510   4.413  17.783  0.00  0.00    +0.000 A 
ATOM      3  C   UNL     1       3.520   3.838  17.001  0.00  0.00    +0.000 A 
ATOM      4  C   UNL     1       4.600   4.607  16.565  0.00  0.00    +0.000 A 
ATOM      5  C   UNL     1       4.685   5.954  16.911  0.00  0.00    +0.000 A 
ATOM      6  C   UNL     1       3.691   6.532  17.699  0.00  0.00    +0.000 A 
ATOM      7  C   UNL     1       2.609   5.766  18.136  0.00  0.00    +0.000 A 
ENDBRANCH   1   2
BRANCH   1   8
ATOM      8  C   UNL     1       1.778   2.334  19.007  0.00  0.00    +0.000 C 
BRANCH   8   9
ATOM      9  S   UNL     1       2.550   2.820  20.584  0.00  0.00    +0.000 S 
BRANCH   9  11
ATOM     10  F   UNL     1       4.215   1.361  19.221  0.00  0.00    +0.000 F 
ATOM     11  C   UNL     1       4.224   2.273  20.225  0.00  0.00    +0.000 C 
ATOM     12  F   UNL     1       4.979   3.316  19.800  0.00  0.00    +0.000 F 
ENDBRANCH   9  11
ENDBRANCH   8   9
ENDBRANCH   1   8
TORSDOF 4
ENDMDL
