MODEL 1
REMARK VINA RESULT:      -7.2      0.000      0.000
REMARK  Name = 
REMARK  1 active torsions:
REMARK  status: ('A' for Active; 'I' for Inactive)
REMARK    1  A    between atoms: C_7  and  C_8
REMARK                            x       y       z     vdW  Elec       q    Type
REMARK                         _______ _______ _______ _____ _____    ______ ____
ROOT
ATOM      1  N   UNL     1       1.442   2.332  22.177  0.00  0.00    +0.000 NA
ATOM      2  C   UNL     1       1.572   3.035  21.102  0.00  0.00    +0.000 C 
ATOM      3  N   UNL     1       0.503   3.325  20.334  0.00  0.00    +0.000 N 
ATOM      4  N   UNL     1       2.803   3.416  20.687  0.00  0.00    +0.000 N 
ATOM      5  C   UNL     1       3.244   4.199  19.677  0.00  0.00    +0.000 A 
ATOM      6  N   UNL     1       4.449   4.077  19.161  0.00  0.00    +0.000 NA
ATOM      7  C   UNL     1       4.609   4.958  18.102  0.00  0.00    +0.000 A 
ATOM      8  C   UNL     1       3.559   5.820  17.885  0.00  0.00    +0.000 A 
ATOM      9  S   UNL     1       2.309   5.491  18.993  0.00  0.00    +0.000 S 
ATOM     10  H   UNL     1       0.458   2.086  22.298  0.00  0.00    +0.000 HD
ATOM     11  H   UNL     1      -0.412   3.253  20.756  0.00  0.00    +0.000 HD
ATOM     12  H   UNL     1       0.595   4.132  19.729  0.00  0.00    +0.000 HD
ATOM     13  H   UNL     1       3.532   2.933  21.197  0.00  0.00    +0.000 HD
ENDROOT
BRANCH   7  14
ATOM     14  C   UNL     1       5.824   4.910  17.293  0.00  0.00    +0.000 A 
ATOM     15  C   UNL     1       7.096   4.543  17.670  0.00  0.00    +0.000 A 
ATOM     16  N   UNL     1       7.835   4.634  16.523  0.00  0.00    +0.000 N 
ATOM     17  C   UNL     1       7.001   5.040  15.517  0.00  0.00    +0.000 A 
ATOM     18  N   UNL     1       7.446   5.201  14.267  0.00  0.00    +0.000 N 
ATOM     19  N   UNL     1       5.780   5.220  15.952  0.00  0.00    +0.000 NA
ATOM     20  H   UNL     1       8.814   4.416  16.417  0.00  0.00    +0.000 HD
ATOM     21  H   UNL     1       8.425   5.360  14.059  0.00  0.00    +0.000 HD
ATOM     22  H   UNL     1       6.813   5.669  13.628  0.00  0.00    +0.000 HD
ENDBRANCH   7  14
TORSDOF 1
ENDMDL
MODEL 2
REMARK VINA RESULT:      -6.8      1.489      6.498
REMARK  Name = 
REMARK  1 active torsions:
REMARK  status: ('A' for Active; 'I' for Inactive)
REMARK    1  A    between atoms: C_7  and  C_8
REMARK                            x       y       z     vdW  Elec       q    Type
REMARK                         _______ _______ _______ _____ _____    ______ ____
ROOT
ATOM      1  N   UNL     1       6.544   4.147  13.627  0.00  0.00    +0.000 NA
ATOM      2  C   UNL     1       6.417   4.441  14.877  0.00  0.00    +0.000 C 
ATOM      3  N   UNL     1       7.494   4.760  15.624  0.00  0.00    +0.000 N 
ATOM      4  N   UNL     1       5.207   4.348  15.476  0.00  0.00    +0.000 N 
ATOM      5  C   UNL     1       4.754   4.655  16.712  0.00  0.00    +0.000 A 
ATOM      6  N   UNL     1       3.697   4.076  17.242  0.00  0.00    +0.000 NA
ATOM      7  C   UNL     1       3.498   4.531  18.536  0.00  0.00    +0.000 A 
ATOM      8  C   UNL     1       4.346   5.532  18.948  0.00  0.00    +0.000 A 
ATOM      9  S   UNL     1       5.462   5.883  17.711  0.00  0.00    +0.000 S 
ATOM     10  H   UNL     1       7.530   4.213  13.366  0.00  0.00    +0.000 HD
ATOM     11  H   UNL     1       8.330   5.057  15.139  0.00  0.00    +0.000 HD
ATOM     12  H   UNL     1       7.312   5.299  16.461  0.00  0.00    +0.000 HD
ATOM     13  H   UNL     1       4.539   3.864  14.887  0.00  0.00    +0.000 HD
ENDROOT
BRANCH   7  14
ATOM     14  C   UNL     1       2.457   3.930  19.367  0.00  0.00    +0.000 A 
ATOM     15  C   UNL     1       1.149   3.653  19.043  0.00  0.00    +0.000 A 
ATOM     16  N   UNL     1       0.635   3.059  20.162  0.00  0.00    +0.000 N 
ATOM     17  C   UNL     1       1.629   2.996  21.099  0.00  0.00    +0.000 A 
ATOM     18  N   UNL     1       1.421   2.445  22.299  0.00  0.00    +0.000 N 
ATOM     19  N   UNL     1       2.742   3.519  20.650  0.00  0.00    +0.000 NA
ATOM     20  H   UNL     1      -0.300   2.700  20.278  0.00  0.00    +0.000 HD
ATOM     21  H   UNL     1       0.495   2.355  22.698  0.00  0.00    +0.000 HD
ATOM     22  H   UNL     1       2.149   2.598  22.988  0.00  0.00    +0.000 HD
ENDBRANCH   7  14
TORSDOF 1
ENDMDL
MODEL 3
REMARK VINA RESULT:      -6.8      2.450      6.130
REMARK  Name = 
REMARK  1 active torsions:
REMARK  status: ('A' for Active; 'I' for Inactive)
REMARK    1  A    between atoms: C_7  and  C_8
REMARK                            x       y       z     vdW  Elec       q    Type
REMARK                         _______ _______ _______ _____ _____    ______ ____
ROOT
ATOM      1  N   UNL     1       8.595   7.675  18.950  0.00  0.00    +0.000 NA
ATOM      2  C   UNL     1       7.785   7.071  18.146  0.00  0.00    +0.000 C 
ATOM      3  N   UNL     1       7.630   7.496  16.876  0.00  0.00    +0.000 N 
ATOM      4  N   UNL     1       7.014   6.055  18.598  0.00  0.00    +0.000 N 
ATOM      5  C   UNL     1       6.154   5.201  17.999  0.00  0.00    +0.000 A 
ATOM      6  N   UNL     1       5.175   4.609  18.651  0.00  0.00    +0.000 NA
ATOM      7  C   UNL     1       4.413   3.843  17.782  0.00  0.00    +0.000 A 
ATOM      8  C   UNL     1       4.880   3.775  16.489  0.00  0.00    +0.000 A 
ATOM      9  S   UNL     1       6.277   4.735  16.333  0.00  0.00    +0.000 S 
ATOM     10  H   UNL     1       9.042   8.448  18.455  0.00  0.00    +0.000 HD
ATOM     11  H   UNL     1       8.358   8.077  16.483  0.00  0.00    +0.000 HD
ATOM     12  H   UNL     1       7.274   6.813  16.219  0.00  0.00    +0.000 HD
ATOM     13  H   UNL     1       7.034   5.996  19.609  0.00  0.00    +0.000 HD
ENDROOT
BRANCH   7  14
ATOM     14  C   UNL     1       3.192   3.198  18.259  0.00  0.00    +0.000 A 
ATOM     15  C   UNL     1       2.632   2.009  17.852  0.00  0.00    +0.000 A 
ATOM     16  N   UNL     1       1.531   1.856  18.649  0.00  0.00    +0.000 N 
ATOM     17  C   UNL     1       1.470   2.932  19.490  0.00  0.00    +0.000 A 
ATOM     18  N   UNL     1       0.499   3.048  20.402  0.00  0.00    +0.000 N 
ATOM     19  N   UNL     1       2.457   3.764  19.276  0.00  0.00    +0.000 NA
ATOM     20  H   UNL     1       0.888   1.079  18.646  0.00  0.00    +0.000 HD
ATOM     21  H   UNL     1      -0.387   2.565  20.311  0.00  0.00    +0.000 HD
ATOM     22  H   UNL     1       0.426   3.951  20.858  0.00  0.00    +0.000 HD
ENDBRANCH   7  14
TORSDOF 1
ENDMDL
MODEL 4
REMARK VINA RESULT:      -6.8      0.951      1.085
REMARK  Name = 
REMARK  1 active torsions:
REMARK  status: ('A' for Active; 'I' for Inactive)
REMARK    1  A    between atoms: C_7  and  C_8
REMARK                            x       y       z     vdW  Elec       q    Type
REMARK                         _______ _______ _______ _____ _____    ______ ____
ROOT
ATOM      1  N   UNL     1       1.918   2.431  21.862  0.00  0.00    +0.000 NA
ATOM      2  C   UNL     1       1.982   3.310  20.919  0.00  0.00    +0.000 C 
ATOM      3  N   UNL     1       0.883   3.991  20.535  0.00  0.00    +0.000 N 
ATOM      4  N   UNL     1       3.140   3.496  20.244  0.00  0.00    +0.000 N 
ATOM      5  C   UNL     1       3.531   4.369  19.289  0.00  0.00    +0.000 A 
ATOM      6  N   UNL     1       4.506   4.106  18.445  0.00  0.00    +0.000 NA
ATOM      7  C   UNL     1       4.650   5.143  17.537  0.00  0.00    +0.000 A 
ATOM      8  C   UNL     1       3.849   6.240  17.759  0.00  0.00    +0.000 A 
ATOM      9  S   UNL     1       2.846   5.953  19.105  0.00  0.00    +0.000 S 
ATOM     10  H   UNL     1       0.959   2.385  22.212  0.00  0.00    +0.000 HD
ATOM     11  H   UNL     1       0.105   4.028  21.178  0.00  0.00    +0.000 HD
ATOM     12  H   UNL     1       1.047   4.872  20.064  0.00  0.00    +0.000 HD
ATOM     13  H   UNL     1       3.810   2.764  20.448  0.00  0.00    +0.000 HD
ENDROOT
BRANCH   7  14
ATOM     14  C   UNL     1       5.588   5.013  16.424  0.00  0.00    +0.000 A 
ATOM     15  C   UNL     1       6.831   5.582  16.274  0.00  0.00    +0.000 A 
ATOM     16  N   UNL     1       7.291   5.098  15.081  0.00  0.00    +0.000 N 
ATOM     17  C   UNL     1       6.332   4.270  14.567  0.00  0.00    +0.000 A 
ATOM     18  N   UNL     1       6.512   3.634  13.405  0.00  0.00    +0.000 N 
ATOM     19  N   UNL     1       5.288   4.202  15.353  0.00  0.00    +0.000 NA
ATOM     20  H   UNL     1       8.187   5.287  14.659  0.00  0.00    +0.000 HD
ATOM     21  H   UNL     1       7.168   3.962  12.706  0.00  0.00    +0.000 HD
ATOM     22  H   UNL     1       5.690   3.186  13.013  0.00  0.00    +0.000 HD
ENDBRANCH   7  14
TORSDOF 1
ENDMDL
MODEL 5
REMARK VINA RESULT:      -6.7      2.023      6.360
REMARK  Name = 
REMARK  1 active torsions:
REMARK  status: ('A' for Active; 'I' for Inactive)
REMARK    1  A    between atoms: C_7  and  C_8
REMARK                            x       y       z     vdW  Elec       q    Type
REMARK                         _______ _______ _______ _____ _____    ______ ____
ROOT
ATOM      1  N   UNL     1       8.512   7.322  18.797  0.00  0.00    +0.000 NA
ATOM      2  C   UNL     1       7.531   6.748  18.186  0.00  0.00    +0.000 C 
ATOM      3  N   UNL     1       7.242   7.053  16.904  0.00  0.00    +0.000 N 
ATOM      4  N   UNL     1       6.724   5.892  18.856  0.00  0.00    +0.000 N 
ATOM      5  C   UNL     1       5.695   5.098  18.483  0.00  0.00    +0.000 A 
ATOM      6  N   UNL     1       4.761   4.709  19.325  0.00  0.00    +0.000 NA
ATOM      7  C   UNL     1       3.799   3.961  18.664  0.00  0.00    +0.000 A 
ATOM      8  C   UNL     1       4.061   3.698  17.339  0.00  0.00    +0.000 A 
ATOM      9  S   UNL     1       5.521   4.448  16.884  0.00  0.00    +0.000 S 
ATOM     10  H   UNL     1       8.967   7.976  18.156  0.00  0.00    +0.000 HD
ATOM     11  H   UNL     1       7.965   7.492  16.352  0.00  0.00    +0.000 HD
ATOM     12  H   UNL     1       6.719   6.357  16.388  0.00  0.00    +0.000 HD
ATOM     13  H   UNL     1       6.884   5.937  19.855  0.00  0.00    +0.000 HD
ENDROOT
BRANCH   7  14
ATOM     14  C   UNL     1       2.596   3.532  19.372  0.00  0.00    +0.000 A 
ATOM     15  C   UNL     1       1.334   3.308  18.869  0.00  0.00    +0.000 A 
ATOM     16  N   UNL     1       0.605   2.883  19.945  0.00  0.00    +0.000 N 
ATOM     17  C   UNL     1       1.434   2.862  21.032  0.00  0.00    +0.000 A 
ATOM     18  N   UNL     1       0.997   2.468  22.233  0.00  0.00    +0.000 N 
ATOM     19  N   UNL     1       2.643   3.254  20.720  0.00  0.00    +0.000 NA
ATOM     20  H   UNL     1      -0.364   2.603  19.944  0.00  0.00    +0.000 HD
ATOM     21  H   UNL     1       0.016   2.489  22.483  0.00  0.00    +0.000 HD
ATOM     22  H   UNL     1       1.620   2.651  23.012  0.00  0.00    +0.000 HD
ENDBRANCH   7  14
TORSDOF 1
ENDMDL
MODEL 6
REMARK VINA RESULT:      -6.6      1.053      1.266
REMARK  Name = 
REMARK  1 active torsions:
REMARK  status: ('A' for Active; 'I' for Inactive)
REMARK    1  A    between atoms: C_7  and  C_8
REMARK                            x       y       z     vdW  Elec       q    Type
REMARK                         _______ _______ _______ _____ _____    ______ ____
ROOT
ATOM      1  N   UNL     1       1.877   2.542  21.885  0.00  0.00    +0.000 NA
ATOM      2  C   UNL     1       2.042   3.419  20.952  0.00  0.00    +0.000 C 
ATOM      3  N   UNL     1       1.069   4.306  20.660  0.00  0.00    +0.000 N 
ATOM      4  N   UNL     1       3.164   3.401  20.197  0.00  0.00    +0.000 N 
ATOM      5  C   UNL     1       3.647   4.211  19.229  0.00  0.00    +0.000 A 
ATOM      6  N   UNL     1       4.494   3.792  18.312  0.00  0.00    +0.000 NA
ATOM      7  C   UNL     1       4.770   4.809  17.411  0.00  0.00    +0.000 A 
ATOM      8  C   UNL     1       4.211   6.030  17.707  0.00  0.00    +0.000 A 
ATOM      9  S   UNL     1       3.267   5.901  19.119  0.00  0.00    +0.000 S 
ATOM     10  H   UNL     1       0.953   2.668  22.303  0.00  0.00    +0.000 HD
ATOM     11  H   UNL     1       0.358   4.471  21.359  0.00  0.00    +0.000 HD
ATOM     12  H   UNL     1       1.365   5.153  20.192  0.00  0.00    +0.000 HD
ATOM     13  H   UNL     1       3.694   2.550  20.340  0.00  0.00    +0.000 HD
ENDROOT
BRANCH   7  14
ATOM     14  C   UNL     1       5.586   4.534  16.230  0.00  0.00    +0.000 A 
ATOM     15  C   UNL     1       5.630   3.394  15.461  0.00  0.00    +0.000 A 
ATOM     16  N   UNL     1       6.521   3.686  14.465  0.00  0.00    +0.000 N 
ATOM     17  C   UNL     1       6.969   4.962  14.662  0.00  0.00    +0.000 A 
ATOM     18  N   UNL     1       7.845   5.530  13.827  0.00  0.00    +0.000 N 
ATOM     19  N   UNL     1       6.426   5.500  15.725  0.00  0.00    +0.000 NA
ATOM     20  H   UNL     1       6.786   3.086  13.699  0.00  0.00    +0.000 HD
ATOM     21  H   UNL     1       8.457   4.982  13.234  0.00  0.00    +0.000 HD
ATOM     22  H   UNL     1       8.256   6.402  14.141  0.00  0.00    +0.000 HD
ENDBRANCH   7  14
TORSDOF 1
ENDMDL
MODEL 7
REMARK VINA RESULT:      -6.5      1.678      2.445
REMARK  Name = 
REMARK  1 active torsions:
REMARK  status: ('A' for Active; 'I' for Inactive)
REMARK    1  A    between atoms: C_7  and  C_8
REMARK                            x       y       z     vdW  Elec       q    Type
REMARK                         _______ _______ _______ _____ _____    ______ ____
ROOT
ATOM      1  N   UNL     1       0.933   3.985  20.065  0.00  0.00    +0.000 NA
ATOM      2  C   UNL     1       2.085   4.504  19.802  0.00  0.00    +0.000 C 
ATOM      3  N   UNL     1       2.539   5.566  20.498  0.00  0.00    +0.000 N 
ATOM      4  N   UNL     1       2.816   4.040  18.761  0.00  0.00    +0.000 N 
ATOM      5  C   UNL     1       4.055   4.315  18.297  0.00  0.00    +0.000 A 
ATOM      6  N   UNL     1       4.402   4.117  17.043  0.00  0.00    +0.000 NA
ATOM      7  C   UNL     1       5.703   4.545  16.830  0.00  0.00    +0.000 A 
ATOM      8  C   UNL     1       6.376   4.974  17.951  0.00  0.00    +0.000 A 
ATOM      9  S   UNL     1       5.345   4.895  19.304  0.00  0.00    +0.000 S 
ATOM     10  H   UNL     1       0.503   4.500  20.836  0.00  0.00    +0.000 HD
ATOM     11  H   UNL     1       2.120   5.751  21.399  0.00  0.00    +0.000 HD
ATOM     12  H   UNL     1       3.541   5.706  20.494  0.00  0.00    +0.000 HD
ATOM     13  H   UNL     1       2.270   3.424  18.170  0.00  0.00    +0.000 HD
ENDROOT
BRANCH   7  14
ATOM     14  C   UNL     1       6.259   4.543  15.479  0.00  0.00    +0.000 A 
ATOM     15  C   UNL     1       5.863   3.805  14.387  0.00  0.00    +0.000 A 
ATOM     16  N   UNL     1       6.685   4.219  13.375  0.00  0.00    +0.000 N 
ATOM     17  C   UNL     1       7.526   5.172  13.881  0.00  0.00    +0.000 A 
ATOM     18  N   UNL     1       8.437   5.775  13.111  0.00  0.00    +0.000 N 
ATOM     19  N   UNL     1       7.296   5.386  15.151  0.00  0.00    +0.000 NA
ATOM     20  H   UNL     1       6.666   3.906  12.417  0.00  0.00    +0.000 HD
ATOM     21  H   UNL     1       8.780   5.358  12.254  0.00  0.00    +0.000 HD
ATOM     22  H   UNL     1       9.130   6.332  13.599  0.00  0.00    +0.000 HD
ENDBRANCH   7  14
TORSDOF 1
ENDMDL
MODEL 8
REMARK VINA RESULT:      -6.5      3.572      5.037
REMARK  Name = 
REMARK  1 active torsions:
REMARK  status: ('A' for Active; 'I' for Inactive)
REMARK    1  A    between atoms: C_7  and  C_8
REMARK                            x       y       z     vdW  Elec       q    Type
REMARK                         _______ _______ _______ _____ _____    ______ ____
ROOT
ATOM      1  N   UNL     1       0.995   9.640  22.364  0.00  0.00    +0.000 NA
ATOM      2  C   UNL     1       1.127   9.068  21.214  0.00  0.00    +0.000 C 
ATOM      3  N   UNL     1       0.636   9.642  20.097  0.00  0.00    +0.000 N 
ATOM      4  N   UNL     1       1.684   7.837  21.130  0.00  0.00    +0.000 N 
ATOM      5  C   UNL     1       2.021   7.037  20.094  0.00  0.00    +0.000 A 
ATOM      6  N   UNL     1       2.113   5.729  20.211  0.00  0.00    +0.000 NA
ATOM      7  C   UNL     1       2.408   5.156  18.984  0.00  0.00    +0.000 A 
ATOM      8  C   UNL     1       2.642   6.042  17.958  0.00  0.00    +0.000 A 
ATOM      9  S   UNL     1       2.435   7.636  18.519  0.00  0.00    +0.000 S 
ATOM     10  H   UNL     1       0.501  10.526  22.241  0.00  0.00    +0.000 HD
ATOM     11  H   UNL     1       0.446  10.634  20.124  0.00  0.00    +0.000 HD
ATOM     12  H   UNL     1       1.054   9.345  19.224  0.00  0.00    +0.000 HD
ATOM     13  H   UNL     1       1.779   7.410  22.043  0.00  0.00    +0.000 HD
ENDROOT
BRANCH   7  14
ATOM     14  C   UNL     1       2.430   3.702  18.845  0.00  0.00    +0.000 A 
ATOM     15  C   UNL     1       1.370   2.825  18.803  0.00  0.00    +0.000 A 
ATOM     16  N   UNL     1       1.944   1.598  18.619  0.00  0.00    +0.000 N 
ATOM     17  C   UNL     1       3.299   1.774  18.555  0.00  0.00    +0.000 A 
ATOM     18  N   UNL     1       4.126   0.742  18.361  0.00  0.00    +0.000 N 
ATOM     19  N   UNL     1       3.624   3.034  18.693  0.00  0.00    +0.000 NA
ATOM     20  H   UNL     1       1.464   0.717  18.517  0.00  0.00    +0.000 HD
ATOM     21  H   UNL     1       3.860  -0.211  18.579  0.00  0.00    +0.000 HD
ATOM     22  H   UNL     1       5.112   0.933  18.503  0.00  0.00    +0.000 HD
ENDBRANCH   7  14
TORSDOF 1
ENDMDL
MODEL 9
REMARK VINA RESULT:      -6.5      1.777      6.401
REMARK  Name = 
REMARK  1 active torsions:
REMARK  status: ('A' for Active; 'I' for Inactive)
REMARK    1  A    between atoms: C_7  and  C_8
REMARK                            x       y       z     vdW  Elec       q    Type
REMARK                         _______ _______ _______ _____ _____    ______ ____
ROOT
ATOM      1  N   UNL     1       6.750   3.939  12.786  0.00  0.00    +0.000 NA
ATOM      2  C   UNL     1       6.608   4.478  13.950  0.00  0.00    +0.000 C 
ATOM      3  N   UNL     1       7.505   5.375  14.409  0.00  0.00    +0.000 N 
ATOM      4  N   UNL     1       5.600   4.082  14.761  0.00  0.00    +0.000 N 
ATOM      5  C   UNL     1       5.156   4.501  15.967  0.00  0.00    +0.000 A 
ATOM      6  N   UNL     1       4.486   3.718  16.786  0.00  0.00    +0.000 NA
ATOM      7  C   UNL     1       4.214   4.382  17.972  0.00  0.00    +0.000 A 
ATOM      8  C   UNL     1       4.591   5.705  18.009  0.00  0.00    +0.000 A 
ATOM      9  S   UNL     1       5.356   6.124  16.547  0.00  0.00    +0.000 S 
ATOM     10  H   UNL     1       7.593   4.313  12.345  0.00  0.00    +0.000 HD
ATOM     11  H   UNL     1       8.097   5.835  13.732  0.00  0.00    +0.000 HD
ATOM     12  H   UNL     1       7.177   6.000  15.135  0.00  0.00    +0.000 HD
ATOM     13  H   UNL     1       5.155   3.240  14.415  0.00  0.00    +0.000 HD
ENDROOT
BRANCH   7  14
ATOM     14  C   UNL     1       3.591   3.666  19.083  0.00  0.00    +0.000 A 
ATOM     15  C   UNL     1       4.177   2.824  20.000  0.00  0.00    +0.000 A 
ATOM     16  N   UNL     1       3.158   2.465  20.838  0.00  0.00    +0.000 N 
ATOM     17  C   UNL     1       2.021   3.092  20.409  0.00  0.00    +0.000 A 
ATOM     18  N   UNL     1       0.858   2.941  21.051  0.00  0.00    +0.000 N 
ATOM     19  N   UNL     1       2.249   3.821  19.346  0.00  0.00    +0.000 NA
ATOM     20  H   UNL     1       3.226   1.870  21.649  0.00  0.00    +0.000 HD
ATOM     21  H   UNL     1       0.671   2.143  21.646  0.00  0.00    +0.000 HD
ATOM     22  H   UNL     1       0.038   3.293  20.570  0.00  0.00    +0.000 HD
ENDBRANCH   7  14
TORSDOF 1
ENDMDL
