MODEL 1
REMARK VINA RESULT:      -5.1      0.000      0.000
REMARK  Name = 
REMARK  16 active torsions:
REMARK  status: ('A' for Active; 'I' for Inactive)
REMARK    1  A    between atoms: C_5  and  C_6
REMARK    2  A    between atoms: C_5  and  C_10
REMARK    3  A    between atoms: C_6  and  C_7
REMARK    4  A    between atoms: C_7  and  C_8
REMARK    5  A    between atoms: C_8  and  O_9
REMARK    6  A    between atoms: C_10  and  C_11
REMARK    7  A    between atoms: C_11  and  C_12
REMARK    8  A    between atoms: C_12  and  O_13
REMARK    9  A    between atoms: C_22  and  C_23
REMARK   10  A    between atoms: C_22  and  C_27
REMARK   11  A    between atoms: C_23  and  C_24
REMARK   12  A    between atoms: C_24  and  C_25
REMARK   13  A    between atoms: C_25  and  O_26
REMARK   14  A    between atoms: C_27  and  C_28
REMARK   15  A    between atoms: C_28  and  C_29
REMARK   16  A    between atoms: C_29  and  O_30
REMARK                            x       y       z     vdW  Elec       q    Type
REMARK                         _______ _______ _______ _____ _____    ______ ____
ROOT
ATOM      1  O   UNL     1       2.191  12.061  18.624  0.00  0.00    +0.000 OA
ATOM      2  C   UNL     1       0.976  11.963  18.795  0.00  0.00    +0.000 C 
ATOM      3  C   UNL     1       0.123  13.225  18.612  0.00  0.00    +0.000 C 
ATOM      4  O   UNL     1      -0.648  13.177  17.657  0.00  0.00    +0.000 OA
ATOM      5  C   UNL     1       0.254  14.468  19.549  0.00  0.00    +0.000 C 
ATOM      6  C   UNL     1      -1.143  14.779  20.271  0.00  0.00    +0.000 C 
ATOM      7  C   UNL     1      -1.314  14.584  21.811  0.00  0.00    +0.000 C 
ATOM      8  C   UNL     1      -2.166  13.398  22.307  0.00  0.00    +0.000 C 
ATOM      9  C   UNL     1      -1.436  12.492  23.318  0.00  0.00    +0.000 C 
ATOM     10  C   UNL     1      -1.611  10.967  23.128  0.00  0.00    +0.000 C 
ATOM     11  C   UNL     1      -0.292  10.225  22.793  0.00  0.00    +0.000 C 
ATOM     12  C   UNL     1      -0.197   9.467  21.443  0.00  0.00    +0.000 C 
ATOM     13  C   UNL     1       0.793  10.093  20.428  0.00  0.00    +0.000 C 
ATOM     14  C   UNL     1       0.326  10.587  18.997  0.00  0.00    +0.000 C 
ENDROOT
BRANCH   5  15
ATOM     15  C   UNL     1       1.385  14.344  20.613  0.00  0.00    +0.000 C 
BRANCH  15  16
ATOM     16  C   UNL     1       2.684  15.132  20.399  0.00  0.00    +0.000 C 
BRANCH  16  17
ATOM     17  C   UNL     1       2.774  16.329  21.333  0.00  0.00    +0.000 C 
BRANCH  17  18
ATOM     18  O   UNL     1       3.158  17.474  20.583  0.00  0.00    +0.000 OA
ATOM     19  H   UNL     1       3.572  17.156  19.760  0.00  0.00    +0.000 HD
ENDBRANCH  17  18
ENDBRANCH  16  17
ENDBRANCH  15  16
ENDBRANCH   5  15
BRANCH  14  20
ATOM     20  C   UNL     1      -1.193  10.509  18.714  0.00  0.00    +0.000 C 
BRANCH  20  21
ATOM     21  C   UNL     1      -1.600   9.797  17.445  0.00  0.00    +0.000 C 
BRANCH  21  22
ATOM     22  C   UNL     1      -2.757  10.414  16.692  0.00  0.00    +0.000 C 
BRANCH  22  23
ATOM     23  O   UNL     1      -2.342  11.593  16.029  0.00  0.00    +0.000 OA
ATOM     24  H   UNL     1      -2.480  12.332  16.645  0.00  0.00    +0.000 HD
ENDBRANCH  22  23
ENDBRANCH  21  22
ENDBRANCH  20  21
ENDBRANCH  14  20
BRANCH  14  25
ATOM     25  C   UNL     1       1.029   9.678  17.898  0.00  0.00    +0.000 C 
BRANCH  25  26
ATOM     26  C   UNL     1       2.279   8.920  18.405  0.00  0.00    +0.000 C 
BRANCH  26  27
ATOM     27  C   UNL     1       2.250   7.431  18.092  0.00  0.00    +0.000 C 
BRANCH  27  28
ATOM     28  O   UNL     1       3.554   6.935  17.844  0.00  0.00    +0.000 OA
ATOM     29  H   UNL     1       3.711   6.196  18.458  0.00  0.00    +0.000 HD
ENDBRANCH  27  28
ENDBRANCH  26  27
ENDBRANCH  25  26
ENDBRANCH  14  25
BRANCH   5  30
ATOM     30  C   UNL     1       0.589  15.696  18.615  0.00  0.00    +0.000 C 
BRANCH  30  31
ATOM     31  C   UNL     1      -0.390  16.883  18.604  0.00  0.00    +0.000 C 
BRANCH  31  32
ATOM     32  C   UNL     1       0.211  18.112  17.905  0.00  0.00    +0.000 C 
BRANCH  32  33
ATOM     33  O   UNL     1       1.566  18.255  18.294  0.00  0.00    +0.000 OA
ATOM     34  H   UNL     1       2.110  17.716  17.699  0.00  0.00    +0.000 HD
ENDBRANCH  32  33
ENDBRANCH  31  32
ENDBRANCH  30  31
ENDBRANCH   5  30
TORSDOF 16
ENDMDL
MODEL 2
REMARK VINA RESULT:      -4.9      0.892      6.889
REMARK  Name = 
REMARK  16 active torsions:
REMARK  status: ('A' for Active; 'I' for Inactive)
REMARK    1  A    between atoms: C_5  and  C_6
REMARK    2  A    between atoms: C_5  and  C_10
REMARK    3  A    between atoms: C_6  and  C_7
REMARK    4  A    between atoms: C_7  and  C_8
REMARK    5  A    between atoms: C_8  and  O_9
REMARK    6  A    between atoms: C_10  and  C_11
REMARK    7  A    between atoms: C_11  and  C_12
REMARK    8  A    between atoms: C_12  and  O_13
REMARK    9  A    between atoms: C_22  and  C_23
REMARK   10  A    between atoms: C_22  and  C_27
REMARK   11  A    between atoms: C_23  and  C_24
REMARK   12  A    between atoms: C_24  and  C_25
REMARK   13  A    between atoms: C_25  and  O_26
REMARK   14  A    between atoms: C_27  and  C_28
REMARK   15  A    between atoms: C_28  and  C_29
REMARK   16  A    between atoms: C_29  and  O_30
REMARK                            x       y       z     vdW  Elec       q    Type
REMARK                         _______ _______ _______ _____ _____    ______ ____
ROOT
ATOM      1  O   UNL     1      -0.398  13.587  17.682  0.00  0.00    +0.000 OA
ATOM      2  C   UNL     1       0.146  13.507  18.784  0.00  0.00    +0.000 C 
ATOM      3  C   UNL     1       0.901  12.213  19.116  0.00  0.00    +0.000 C 
ATOM      4  O   UNL     1       2.116  12.356  19.233  0.00  0.00    +0.000 OA
ATOM      5  C   UNL     1       0.180  10.835  19.261  0.00  0.00    +0.000 C 
ATOM      6  C   UNL     1       0.418  10.227  20.725  0.00  0.00    +0.000 C 
ATOM      7  C   UNL     1      -0.760  10.096  21.743  0.00  0.00    +0.000 C 
ATOM      8  C   UNL     1      -0.791  11.054  22.951  0.00  0.00    +0.000 C 
ATOM      9  C   UNL     1      -2.118  11.824  23.096  0.00  0.00    +0.000 C 
ATOM     10  C   UNL     1      -2.009  13.325  23.451  0.00  0.00    +0.000 C 
ATOM     11  C   UNL     1      -2.558  14.268  22.351  0.00  0.00    +0.000 C 
ATOM     12  C   UNL     1      -1.582  15.282  21.696  0.00  0.00    +0.000 C 
ATOM     13  C   UNL     1      -1.260  14.987  20.209  0.00  0.00    +0.000 C 
ATOM     14  C   UNL     1       0.221  14.730  19.708  0.00  0.00    +0.000 C 
ENDROOT
BRANCH   5  15
ATOM     15  C   UNL     1      -1.345  10.881  18.947  0.00  0.00    +0.000 C 
BRANCH  15  16
ATOM     16  C   UNL     1      -1.904   9.927  17.884  0.00  0.00    +0.000 C 
BRANCH  16  17
ATOM     17  C   UNL     1      -2.686  10.674  16.815  0.00  0.00    +0.000 C 
BRANCH  17  18
ATOM     18  O   UNL     1      -1.917  11.781  16.364  0.00  0.00    +0.000 OA
ATOM     19  H   UNL     1      -1.781  11.667  15.406  0.00  0.00    +0.000 HD
ENDBRANCH  17  18
ENDBRANCH  16  17
ENDBRANCH  15  16
ENDBRANCH   5  15
BRANCH  14  20
ATOM     20  C   UNL     1       1.311  14.683  20.805  0.00  0.00    +0.000 C 
BRANCH  20  21
ATOM     21  C   UNL     1       2.293  15.831  20.820  0.00  0.00    +0.000 C 
BRANCH  21  22
ATOM     22  C   UNL     1       2.254  16.708  22.051  0.00  0.00    +0.000 C 
BRANCH  22  23
ATOM     23  O   UNL     1       1.677  16.009  23.137  0.00  0.00    +0.000 OA
ATOM     24  H   UNL     1       1.323  16.674  23.752  0.00  0.00    +0.000 HD
ENDBRANCH  22  23
ENDBRANCH  21  22
ENDBRANCH  20  21
ENDBRANCH  14  20
BRANCH  14  25
ATOM     25  C   UNL     1       0.631  15.913  18.727  0.00  0.00    +0.000 C 
BRANCH  25  26
ATOM     26  C   UNL     1      -0.439  17.021  18.586  0.00  0.00    +0.000 C 
BRANCH  26  27
ATOM     27  C   UNL     1      -0.238  17.903  17.361  0.00  0.00    +0.000 C 
BRANCH  27  28
ATOM     28  O   UNL     1       0.975  18.631  17.449  0.00  0.00    +0.000 OA
ATOM     29  H   UNL     1       1.557  18.324  16.732  0.00  0.00    +0.000 HD
ENDBRANCH  27  28
ENDBRANCH  26  27
ENDBRANCH  25  26
ENDBRANCH  14  25
BRANCH   5  30
ATOM     30  C   UNL     1       0.868   9.862  18.226  0.00  0.00    +0.000 C 
BRANCH  30  31
ATOM     31  C   UNL     1       1.704   8.694  18.779  0.00  0.00    +0.000 C 
BRANCH  31  32
ATOM     32  C   UNL     1       2.679   8.142  17.727  0.00  0.00    +0.000 C 
BRANCH  32  33
ATOM     33  O   UNL     1       3.004   6.802  18.048  0.00  0.00    +0.000 OA
ATOM     34  H   UNL     1       2.228   6.249  17.865  0.00  0.00    +0.000 HD
ENDBRANCH  32  33
ENDBRANCH  31  32
ENDBRANCH  30  31
ENDBRANCH   5  30
TORSDOF 16
ENDMDL
MODEL 3
REMARK VINA RESULT:      -4.9      2.243      3.043
REMARK  Name = 
REMARK  16 active torsions:
REMARK  status: ('A' for Active; 'I' for Inactive)
REMARK    1  A    between atoms: C_5  and  C_6
REMARK    2  A    between atoms: C_5  and  C_10
REMARK    3  A    between atoms: C_6  and  C_7
REMARK    4  A    between atoms: C_7  and  C_8
REMARK    5  A    between atoms: C_8  and  O_9
REMARK    6  A    between atoms: C_10  and  C_11
REMARK    7  A    between atoms: C_11  and  C_12
REMARK    8  A    between atoms: C_12  and  O_13
REMARK    9  A    between atoms: C_22  and  C_23
REMARK   10  A    between atoms: C_22  and  C_27
REMARK   11  A    between atoms: C_23  and  C_24
REMARK   12  A    between atoms: C_24  and  C_25
REMARK   13  A    between atoms: C_25  and  O_26
REMARK   14  A    between atoms: C_27  and  C_28
REMARK   15  A    between atoms: C_28  and  C_29
REMARK   16  A    between atoms: C_29  and  O_30
REMARK                            x       y       z     vdW  Elec       q    Type
REMARK                         _______ _______ _______ _____ _____    ______ ____
ROOT
ATOM      1  O   UNL     1       1.605  12.649  21.232  0.00  0.00    +0.000 OA
ATOM      2  C   UNL     1       0.508  12.899  20.732  0.00  0.00    +0.000 C 
ATOM      3  C   UNL     1       0.410  14.109  19.793  0.00  0.00    +0.000 C 
ATOM      4  O   UNL     1       0.168  13.820  18.624  0.00  0.00    +0.000 OA
ATOM      5  C   UNL     1       0.630  15.574  20.288  0.00  0.00    +0.000 C 
ATOM      6  C   UNL     1      -0.679  16.461  20.021  0.00  0.00    +0.000 C 
ATOM      7  C   UNL     1      -1.546  16.994  21.207  0.00  0.00    +0.000 C 
ATOM      8  C   UNL     1      -2.928  16.355  21.446  0.00  0.00    +0.000 C 
ATOM      9  C   UNL     1      -3.133  15.842  22.885  0.00  0.00    +0.000 C 
ATOM     10  C   UNL     1      -3.817  14.463  23.035  0.00  0.00    +0.000 C 
ATOM     11  C   UNL     1      -2.911  13.383  23.679  0.00  0.00    +0.000 C 
ATOM     12  C   UNL     1      -2.575  12.115  22.852  0.00  0.00    +0.000 C 
ATOM     13  C   UNL     1      -1.090  12.010  22.420  0.00  0.00    +0.000 C 
ATOM     14  C   UNL     1      -0.665  11.923  20.896  0.00  0.00    +0.000 C 
ENDROOT
BRANCH   5  15
ATOM     15  C   UNL     1       1.047  15.682  21.785  0.00  0.00    +0.000 C 
BRANCH  15  16
ATOM     16  C   UNL     1       2.032  16.784  22.195  0.00  0.00    +0.000 C 
BRANCH  16  17
ATOM     17  C   UNL     1       3.280  16.208  22.847  0.00  0.00    +0.000 C 
BRANCH  17  18
ATOM     18  O   UNL     1       3.264  14.794  22.712  0.00  0.00    +0.000 OA
ATOM     19  H   UNL     1       3.645  14.421  23.528  0.00  0.00    +0.000 HD
ENDBRANCH  17  18
ENDBRANCH  16  17
ENDBRANCH  15  16
ENDBRANCH   5  15
BRANCH  14  20
ATOM     20  C   UNL     1      -1.808  12.061  19.863  0.00  0.00    +0.000 C 
BRANCH  20  21
ATOM     21  C   UNL     1      -1.841  11.026  18.762  0.00  0.00    +0.000 C 
BRANCH  21  22
ATOM     22  C   UNL     1      -2.754  11.339  17.598  0.00  0.00    +0.000 C 
BRANCH  22  23
ATOM     23  O   UNL     1      -2.005  11.818  16.498  0.00  0.00    +0.000 OA
ATOM     24  H   UNL     1      -1.930  12.782  16.599  0.00  0.00    +0.000 HD
ENDBRANCH  22  23
ENDBRANCH  21  22
ENDBRANCH  20  21
ENDBRANCH  14  20
BRANCH  14  25
ATOM     25  C   UNL     1      -0.004  10.500  20.639  0.00  0.00    +0.000 C 
BRANCH  25  26
ATOM     26  C   UNL     1      -0.065   9.542  21.853  0.00  0.00    +0.000 C 
BRANCH  26  27
ATOM     27  C   UNL     1       1.302   9.041  22.296  0.00  0.00    +0.000 C 
BRANCH  27  28
ATOM     28  O   UNL     1       1.739   7.964  21.485  0.00  0.00    +0.000 OA
ATOM     29  H   UNL     1       1.125   7.222  21.621  0.00  0.00    +0.000 HD
ENDBRANCH  27  28
ENDBRANCH  26  27
ENDBRANCH  25  26
ENDBRANCH  14  25
BRANCH   5  30
ATOM     30  C   UNL     1       1.795  16.172  19.407  0.00  0.00    +0.000 C 
BRANCH  30  31
ATOM     31  C   UNL     1       3.082  15.342  19.253  0.00  0.00    +0.000 C 
BRANCH  31  32
ATOM     32  C   UNL     1       3.408  15.064  17.777  0.00  0.00    +0.000 C 
BRANCH  32  33
ATOM     33  O   UNL     1       2.950  13.769  17.433  0.00  0.00    +0.000 OA
ATOM     34  H   UNL     1       3.374  13.508  16.601  0.00  0.00    +0.000 HD
ENDBRANCH  32  33
ENDBRANCH  31  32
ENDBRANCH  30  31
ENDBRANCH   5  30
TORSDOF 16
ENDMDL
MODEL 4
REMARK VINA RESULT:      -4.9      2.890      5.799
REMARK  Name = 
REMARK  16 active torsions:
REMARK  status: ('A' for Active; 'I' for Inactive)
REMARK    1  A    between atoms: C_5  and  C_6
REMARK    2  A    between atoms: C_5  and  C_10
REMARK    3  A    between atoms: C_6  and  C_7
REMARK    4  A    between atoms: C_7  and  C_8
REMARK    5  A    between atoms: C_8  and  O_9
REMARK    6  A    between atoms: C_10  and  C_11
REMARK    7  A    between atoms: C_11  and  C_12
REMARK    8  A    between atoms: C_12  and  O_13
REMARK    9  A    between atoms: C_22  and  C_23
REMARK   10  A    between atoms: C_22  and  C_27
REMARK   11  A    between atoms: C_23  and  C_24
REMARK   12  A    between atoms: C_24  and  C_25
REMARK   13  A    between atoms: C_25  and  O_26
REMARK   14  A    between atoms: C_27  and  C_28
REMARK   15  A    between atoms: C_28  and  C_29
REMARK   16  A    between atoms: C_29  and  O_30
REMARK                            x       y       z     vdW  Elec       q    Type
REMARK                         _______ _______ _______ _____ _____    ______ ____
ROOT
ATOM      1  O   UNL     1      -2.977  12.238  19.902  0.00  0.00    +0.000 OA
ATOM      2  C   UNL     1      -1.908  12.176  20.509  0.00  0.00    +0.000 C 
ATOM      3  C   UNL     1      -1.913  12.525  22.004  0.00  0.00    +0.000 C 
ATOM      4  O   UNL     1      -1.660  11.577  22.742  0.00  0.00    +0.000 OA
ATOM      5  C   UNL     1      -2.240  13.960  22.528  0.00  0.00    +0.000 C 
ATOM      6  C   UNL     1      -1.007  14.548  23.366  0.00  0.00    +0.000 C 
ATOM      7  C   UNL     1      -0.172  15.755  22.830  0.00  0.00    +0.000 C 
ATOM      8  C   UNL     1       1.258  15.486  22.322  0.00  0.00    +0.000 C 
ATOM      9  C   UNL     1       1.515  16.008  20.894  0.00  0.00    +0.000 C 
ATOM     10  C   UNL     1       2.306  15.072  19.950  0.00  0.00    +0.000 C 
ATOM     11  C   UNL     1       1.492  14.595  18.721  0.00  0.00    +0.000 C 
ATOM     12  C   UNL     1       1.248  13.073  18.546  0.00  0.00    +0.000 C 
ATOM     13  C   UNL     1      -0.229  12.638  18.731  0.00  0.00    +0.000 C 
ATOM     14  C   UNL     1      -0.661  11.587  19.835  0.00  0.00    +0.000 C 
ENDROOT
BRANCH   5  15
ATOM     15  C   UNL     1      -2.650  14.965  21.411  0.00  0.00    +0.000 C 
BRANCH  15  16
ATOM     16  C   UNL     1      -3.634  16.089  21.759  0.00  0.00    +0.000 C 
BRANCH  16  17
ATOM     17  C   UNL     1      -3.750  17.103  20.632  0.00  0.00    +0.000 C 
BRANCH  17  18
ATOM     18  O   UNL     1      -2.809  16.780  19.617  0.00  0.00    +0.000 OA
ATOM     19  H   UNL     1      -3.053  17.290  18.823  0.00  0.00    +0.000 HD
ENDBRANCH  17  18
ENDBRANCH  16  17
ENDBRANCH  15  16
ENDBRANCH   5  15
BRANCH  14  20
ATOM     20  C   UNL     1       0.458  11.103  20.788  0.00  0.00    +0.000 C 
BRANCH  20  21
ATOM     21  C   UNL     1       0.630   9.607  20.910  0.00  0.00    +0.000 C 
BRANCH  21  22
ATOM     22  C   UNL     1       1.148   9.116  22.243  0.00  0.00    +0.000 C 
BRANCH  22  23
ATOM     23  O   UNL     1       0.566   9.853  23.300  0.00  0.00    +0.000 OA
ATOM     24  H   UNL     1       0.331   9.219  23.998  0.00  0.00    +0.000 HD
ENDBRANCH  22  23
ENDBRANCH  21  22
ENDBRANCH  20  21
ENDBRANCH  14  20
BRANCH  14  25
ATOM     25  C   UNL     1      -1.212  10.288  19.102  0.00  0.00    +0.000 C 
BRANCH  25  26
ATOM     26  C   UNL     1      -1.180  10.368  17.558  0.00  0.00    +0.000 C 
BRANCH  26  27
ATOM     27  C   UNL     1      -2.564  10.447  16.928  0.00  0.00    +0.000 C 
BRANCH  27  28
ATOM     28  O   UNL     1      -3.079  11.766  16.990  0.00  0.00    +0.000 OA
ATOM     29  H   UNL     1      -3.963  11.758  16.584  0.00  0.00    +0.000 HD
ENDBRANCH  27  28
ENDBRANCH  26  27
ENDBRANCH  25  26
ENDBRANCH  14  25
BRANCH   5  30
ATOM     30  C   UNL     1      -3.457  13.804  23.521  0.00  0.00    +0.000 C 
BRANCH  30  31
ATOM     31  C   UNL     1      -4.616  12.881  23.103  0.00  0.00    +0.000 C 
BRANCH  31  32
ATOM     32  C   UNL     1      -5.924  13.247  23.824  0.00  0.00    +0.000 C 
BRANCH  32  33
ATOM     33  O   UNL     1      -6.675  12.069  24.054  0.00  0.00    +0.000 OA
ATOM     34  H   UNL     1      -7.563  12.328  24.346  0.00  0.00    +0.000 HD
ENDBRANCH  32  33
ENDBRANCH  31  32
ENDBRANCH  30  31
ENDBRANCH   5  30
TORSDOF 16
ENDMDL
MODEL 5
REMARK VINA RESULT:      -4.8      2.326      3.028
REMARK  Name = 
REMARK  16 active torsions:
REMARK  status: ('A' for Active; 'I' for Inactive)
REMARK    1  A    between atoms: C_5  and  C_6
REMARK    2  A    between atoms: C_5  and  C_10
REMARK    3  A    between atoms: C_6  and  C_7
REMARK    4  A    between atoms: C_7  and  C_8
REMARK    5  A    between atoms: C_8  and  O_9
REMARK    6  A    between atoms: C_10  and  C_11
REMARK    7  A    between atoms: C_11  and  C_12
REMARK    8  A    between atoms: C_12  and  O_13
REMARK    9  A    between atoms: C_22  and  C_23
REMARK   10  A    between atoms: C_22  and  C_27
REMARK   11  A    between atoms: C_23  and  C_24
REMARK   12  A    between atoms: C_24  and  C_25
REMARK   13  A    between atoms: C_25  and  O_26
REMARK   14  A    between atoms: C_27  and  C_28
REMARK   15  A    between atoms: C_28  and  C_29
REMARK   16  A    between atoms: C_29  and  O_30
REMARK                            x       y       z     vdW  Elec       q    Type
REMARK                         _______ _______ _______ _____ _____    ______ ____
ROOT
ATOM      1  O   UNL     1       1.771  12.105  21.072  0.00  0.00    +0.000 OA
ATOM      2  C   UNL     1       0.725  12.590  20.642  0.00  0.00    +0.000 C 
ATOM      3  C   UNL     1       0.824  13.860  19.785  0.00  0.00    +0.000 C 
ATOM      4  O   UNL     1       0.490  13.703  18.614  0.00  0.00    +0.000 OA
ATOM      5  C   UNL     1       1.335  15.220  20.359  0.00  0.00    +0.000 C 
ATOM      6  C   UNL     1       0.209  16.351  20.211  0.00  0.00    +0.000 C 
ATOM      7  C   UNL     1      -0.499  16.952  21.467  0.00  0.00    +0.000 C 
ATOM      8  C   UNL     1      -1.968  16.568  21.732  0.00  0.00    +0.000 C 
ATOM      9  C   UNL     1      -2.215  16.003  23.145  0.00  0.00    +0.000 C 
ATOM     10  C   UNL     1      -3.142  14.769  23.241  0.00  0.00    +0.000 C 
ATOM     11  C   UNL     1      -2.435  13.497  23.773  0.00  0.00    +0.000 C 
ATOM     12  C   UNL     1      -2.374  12.249  22.854  0.00  0.00    +0.000 C 
ATOM     13  C   UNL     1      -0.953  11.898  22.345  0.00  0.00    +0.000 C 
ATOM     14  C   UNL     1      -0.606  11.841  20.800  0.00  0.00    +0.000 C 
ENDROOT
BRANCH   5  15
ATOM     15  C   UNL     1       1.817  15.143  21.838  0.00  0.00    +0.000 C 
BRANCH  15  16
ATOM     16  C   UNL     1       3.218  15.665  22.181  0.00  0.00    +0.000 C 
BRANCH  16  17
ATOM     17  C   UNL     1       4.219  14.529  22.330  0.00  0.00    +0.000 C 
BRANCH  17  18
ATOM     18  O   UNL     1       4.572  14.397  23.701  0.00  0.00    +0.000 OA
ATOM     19  H   UNL     1       3.784  14.067  24.171  0.00  0.00    +0.000 HD
ENDBRANCH  17  18
ENDBRANCH  16  17
ENDBRANCH  15  16
ENDBRANCH   5  15
BRANCH  14  20
ATOM     20  C   UNL     1      -1.738  12.261  19.834  0.00  0.00    +0.000 C 
BRANCH  20  21
ATOM     21  C   UNL     1      -2.270  11.182  18.920  0.00  0.00    +0.000 C 
BRANCH  21  22
ATOM     22  C   UNL     1      -2.171  11.473  17.439  0.00  0.00    +0.000 C 
BRANCH  22  23
ATOM     23  O   UNL     1      -1.541  10.401  16.766  0.00  0.00    +0.000 OA
ATOM     24  H   UNL     1      -0.582  10.552  16.820  0.00  0.00    +0.000 HD
ENDBRANCH  22  23
ENDBRANCH  21  22
ENDBRANCH  20  21
ENDBRANCH  14  20
BRANCH  14  25
ATOM     25  C   UNL     1      -0.235  10.341  20.425  0.00  0.00    +0.000 C 
BRANCH  25  26
ATOM     26  C   UNL     1      -0.207   9.372  21.631  0.00  0.00    +0.000 C 
BRANCH  26  27
ATOM     27  C   UNL     1       1.141   8.693  21.829  0.00  0.00    +0.000 C 
BRANCH  27  28
ATOM     28  O   UNL     1       1.963   9.439  22.710  0.00  0.00    +0.000 OA
ATOM     29  H   UNL     1       2.877   9.123  22.599  0.00  0.00    +0.000 HD
ENDBRANCH  27  28
ENDBRANCH  26  27
ENDBRANCH  25  26
ENDBRANCH  14  25
BRANCH   5  30
ATOM     30  C   UNL     1       2.560  15.650  19.462  0.00  0.00    +0.000 C 
BRANCH  30  31
ATOM     31  C   UNL     1       2.343  16.773  18.434  0.00  0.00    +0.000 C 
BRANCH  31  32
ATOM     32  C   UNL     1       3.217  16.580  17.185  0.00  0.00    +0.000 C 
BRANCH  32  33
ATOM     33  O   UNL     1       3.548  15.209  17.053  0.00  0.00    +0.000 OA
ATOM     34  H   UNL     1       3.106  14.721  17.765  0.00  0.00    +0.000 HD
ENDBRANCH  32  33
ENDBRANCH  31  32
ENDBRANCH  30  31
ENDBRANCH   5  30
TORSDOF 16
ENDMDL
MODEL 6
REMARK VINA RESULT:      -4.8      2.922      5.783
REMARK  Name = 
REMARK  16 active torsions:
REMARK  status: ('A' for Active; 'I' for Inactive)
REMARK    1  A    between atoms: C_5  and  C_6
REMARK    2  A    between atoms: C_5  and  C_10
REMARK    3  A    between atoms: C_6  and  C_7
REMARK    4  A    between atoms: C_7  and  C_8
REMARK    5  A    between atoms: C_8  and  O_9
REMARK    6  A    between atoms: C_10  and  C_11
REMARK    7  A    between atoms: C_11  and  C_12
REMARK    8  A    between atoms: C_12  and  O_13
REMARK    9  A    between atoms: C_22  and  C_23
REMARK   10  A    between atoms: C_22  and  C_27
REMARK   11  A    between atoms: C_23  and  C_24
REMARK   12  A    between atoms: C_24  and  C_25
REMARK   13  A    between atoms: C_25  and  O_26
REMARK   14  A    between atoms: C_27  and  C_28
REMARK   15  A    between atoms: C_28  and  C_29
REMARK   16  A    between atoms: C_29  and  O_30
REMARK                            x       y       z     vdW  Elec       q    Type
REMARK                         _______ _______ _______ _____ _____    ______ ____
ROOT
ATOM      1  O   UNL     1      -3.139  12.386  19.822  0.00  0.00    +0.000 OA
ATOM      2  C   UNL     1      -2.092  12.219  20.448  0.00  0.00    +0.000 C 
ATOM      3  C   UNL     1      -2.073  12.620  21.929  0.00  0.00    +0.000 C 
ATOM      4  O   UNL     1      -1.944  11.675  22.704  0.00  0.00    +0.000 OA
ATOM      5  C   UNL     1      -2.232  14.101  22.398  0.00  0.00    +0.000 C 
ATOM      6  C   UNL     1      -0.948  14.568  23.236  0.00  0.00    +0.000 C 
ATOM      7  C   UNL     1       0.032  15.647  22.673  0.00  0.00    +0.000 C 
ATOM      8  C   UNL     1       1.425  15.191  22.197  0.00  0.00    +0.000 C 
ATOM      9  C   UNL     1       1.761  15.627  20.757  0.00  0.00    +0.000 C 
ATOM     10  C   UNL     1       2.445  14.570  19.858  0.00  0.00    +0.000 C 
ATOM     11  C   UNL     1       1.595  14.149  18.633  0.00  0.00    +0.000 C 
ATOM     12  C   UNL     1       1.171  12.662  18.507  0.00  0.00    +0.000 C 
ATOM     13  C   UNL     1      -0.348  12.414  18.682  0.00  0.00    +0.000 C 
ATOM     14  C   UNL     1      -0.916  11.462  19.815  0.00  0.00    +0.000 C 
ENDROOT
BRANCH   5  15
ATOM     15  C   UNL     1      -2.506  15.107  21.241  0.00  0.00    +0.000 C 
BRANCH  15  16
ATOM     16  C   UNL     1      -3.446  16.290  21.504  0.00  0.00    +0.000 C 
BRANCH  16  17
ATOM     17  C   UNL     1      -4.630  16.288  20.550  0.00  0.00    +0.000 C 
BRANCH  17  18
ATOM     18  O   UNL     1      -4.718  15.017  19.921  0.00  0.00    +0.000 OA
ATOM     19  H   UNL     1      -5.156  14.413  20.549  0.00  0.00    +0.000 HD
ENDBRANCH  17  18
ENDBRANCH  16  17
ENDBRANCH  15  16
ENDBRANCH   5  15
BRANCH  14  20
ATOM     20  C   UNL     1       0.125  10.883  20.801  0.00  0.00    +0.000 C 
BRANCH  20  21
ATOM     21  C   UNL     1       0.173   9.376  20.912  0.00  0.00    +0.000 C 
BRANCH  21  22
ATOM     22  C   UNL     1       1.439   8.724  20.402  0.00  0.00    +0.000 C 
BRANCH  22  23
ATOM     23  O   UNL     1       1.675   7.507  21.082  0.00  0.00    +0.000 OA
ATOM     24  H   UNL     1       1.326   6.792  20.523  0.00  0.00    +0.000 HD
ENDBRANCH  22  23
ENDBRANCH  21  22
ENDBRANCH  20  21
ENDBRANCH  14  20
BRANCH  14  25
ATOM     25  C   UNL     1      -1.611  10.212  19.118  0.00  0.00    +0.000 C 
BRANCH  25  26
ATOM     26  C   UNL     1      -1.457  10.176  17.579  0.00  0.00    +0.000 C 
BRANCH  26  27
ATOM     27  C   UNL     1      -2.785  10.248  16.838  0.00  0.00    +0.000 C 
BRANCH  27  28
ATOM     28  O   UNL     1      -3.870  10.358  17.743  0.00  0.00    +0.000 OA
ATOM     29  H   UNL     1      -4.667  10.029  17.290  0.00  0.00    +0.000 HD
ENDBRANCH  27  28
ENDBRANCH  26  27
ENDBRANCH  25  26
ENDBRANCH  14  25
BRANCH   5  30
ATOM     30  C   UNL     1      -3.471  14.127  23.377  0.00  0.00    +0.000 C 
BRANCH  30  31
ATOM     31  C   UNL     1      -4.709  13.296  22.996  0.00  0.00    +0.000 C 
BRANCH  31  32
ATOM     32  C   UNL     1      -5.340  12.618  24.222  0.00  0.00    +0.000 C 
BRANCH  32  33
ATOM     33  O   UNL     1      -4.460  11.620  24.709  0.00  0.00    +0.000 OA
ATOM     34  H   UNL     1      -3.848  11.381  23.995  0.00  0.00    +0.000 HD
ENDBRANCH  32  33
ENDBRANCH  31  32
ENDBRANCH  30  31
ENDBRANCH   5  30
TORSDOF 16
ENDMDL
MODEL 7
REMARK VINA RESULT:      -4.7      2.629      5.276
REMARK  Name = 
REMARK  16 active torsions:
REMARK  status: ('A' for Active; 'I' for Inactive)
REMARK    1  A    between atoms: C_5  and  C_6
REMARK    2  A    between atoms: C_5  and  C_10
REMARK    3  A    between atoms: C_6  and  C_7
REMARK    4  A    between atoms: C_7  and  C_8
REMARK    5  A    between atoms: C_8  and  O_9
REMARK    6  A    between atoms: C_10  and  C_11
REMARK    7  A    between atoms: C_11  and  C_12
REMARK    8  A    between atoms: C_12  and  O_13
REMARK    9  A    between atoms: C_22  and  C_23
REMARK   10  A    between atoms: C_22  and  C_27
REMARK   11  A    between atoms: C_23  and  C_24
REMARK   12  A    between atoms: C_24  and  C_25
REMARK   13  A    between atoms: C_25  and  O_26
REMARK   14  A    between atoms: C_27  and  C_28
REMARK   15  A    between atoms: C_28  and  C_29
REMARK   16  A    between atoms: C_29  and  O_30
REMARK                            x       y       z     vdW  Elec       q    Type
REMARK                         _______ _______ _______ _____ _____    ______ ____
ROOT
ATOM      1  O   UNL     1      -2.392  12.780  19.552  0.00  0.00    +0.000 OA
ATOM      2  C   UNL     1      -1.423  12.585  20.286  0.00  0.00    +0.000 C 
ATOM      3  C   UNL     1      -1.445  13.219  21.683  0.00  0.00    +0.000 C 
ATOM      4  O   UNL     1      -1.503  12.408  22.603  0.00  0.00    +0.000 OA
ATOM      5  C   UNL     1      -1.423  14.766  21.901  0.00  0.00    +0.000 C 
ATOM      6  C   UNL     1      -0.143  15.195  22.766  0.00  0.00    +0.000 C 
ATOM      7  C   UNL     1       1.015  16.029  22.130  0.00  0.00    +0.000 C 
ATOM      8  C   UNL     1       2.358  15.324  21.855  0.00  0.00    +0.000 C 
ATOM      9  C   UNL     1       2.846  15.469  20.399  0.00  0.00    +0.000 C 
ATOM     10  C   UNL     1       3.430  14.198  19.739  0.00  0.00    +0.000 C 
ATOM     11  C   UNL     1       2.611  13.693  18.524  0.00  0.00    +0.000 C 
ATOM     12  C   UNL     1       1.990  12.273  18.594  0.00  0.00    +0.000 C 
ATOM     13  C   UNL     1       0.442  12.257  18.672  0.00  0.00    +0.000 C 
ATOM     14  C   UNL     1      -0.328  11.587  19.884  0.00  0.00    +0.000 C 
ENDROOT
BRANCH   5  15
ATOM     15  C   UNL     1      -1.474  15.594  20.582  0.00  0.00    +0.000 C 
BRANCH  15  16
ATOM     16  C   UNL     1      -2.039  17.019  20.631  0.00  0.00    +0.000 C 
BRANCH  16  17
ATOM     17  C   UNL     1      -2.275  17.577  19.236  0.00  0.00    +0.000 C 
BRANCH  17  18
ATOM     18  O   UNL     1      -1.273  17.078  18.360  0.00  0.00    +0.000 OA
ATOM     19  H   UNL     1      -0.566  17.748  18.318  0.00  0.00    +0.000 HD
ENDBRANCH  17  18
ENDBRANCH  16  17
ENDBRANCH  15  16
ENDBRANCH   5  15
BRANCH  14  20
ATOM     20  C   UNL     1       0.554  11.050  21.035  0.00  0.00    +0.000 C 
BRANCH  20  21
ATOM     21  C   UNL     1       0.505   9.558  21.272  0.00  0.00    +0.000 C 
BRANCH  21  22
ATOM     22  C   UNL     1      -0.114   9.124  22.582  0.00  0.00    +0.000 C 
BRANCH  22  23
ATOM     23  O   UNL     1       0.004  10.151  23.547  0.00  0.00    +0.000 OA
ATOM     24  H   UNL     1       0.870  10.572  23.415  0.00  0.00    +0.000 HD
ENDBRANCH  22  23
ENDBRANCH  21  22
ENDBRANCH  20  21
ENDBRANCH  14  20
BRANCH  14  25
ATOM     25  C   UNL     1      -1.145  10.340  19.331  0.00  0.00    +0.000 C 
BRANCH  25  26
ATOM     26  C   UNL     1      -0.964  10.082  17.816  0.00  0.00    +0.000 C 
BRANCH  26  27
ATOM     27  C   UNL     1      -2.269  10.140  17.034  0.00  0.00    +0.000 C 
BRANCH  27  28
ATOM     28  O   UNL     1      -3.340  10.565  17.857  0.00  0.00    +0.000 OA
ATOM     29  H   UNL     1      -3.700  11.385  17.475  0.00  0.00    +0.000 HD
ENDBRANCH  27  28
ENDBRANCH  26  27
ENDBRANCH  25  26
ENDBRANCH  14  25
BRANCH   5  30
ATOM     30  C   UNL     1      -2.707  15.114  22.751  0.00  0.00    +0.000 C 
BRANCH  30  31
ATOM     31  C   UNL     1      -2.504  15.632  24.186  0.00  0.00    +0.000 C 
BRANCH  31  32
ATOM     32  C   UNL     1      -3.123  14.685  25.227  0.00  0.00    +0.000 C 
BRANCH  32  33
ATOM     33  O   UNL     1      -3.516  13.483  24.590  0.00  0.00    +0.000 OA
ATOM     34  H   UNL     1      -3.657  12.810  25.274  0.00  0.00    +0.000 HD
ENDBRANCH  32  33
ENDBRANCH  31  32
ENDBRANCH  30  31
ENDBRANCH   5  30
TORSDOF 16
ENDMDL
MODEL 8
REMARK VINA RESULT:      -4.7      2.628      6.667
REMARK  Name = 
REMARK  16 active torsions:
REMARK  status: ('A' for Active; 'I' for Inactive)
REMARK    1  A    between atoms: C_5  and  C_6
REMARK    2  A    between atoms: C_5  and  C_10
REMARK    3  A    between atoms: C_6  and  C_7
REMARK    4  A    between atoms: C_7  and  C_8
REMARK    5  A    between atoms: C_8  and  O_9
REMARK    6  A    between atoms: C_10  and  C_11
REMARK    7  A    between atoms: C_11  and  C_12
REMARK    8  A    between atoms: C_12  and  O_13
REMARK    9  A    between atoms: C_22  and  C_23
REMARK   10  A    between atoms: C_22  and  C_27
REMARK   11  A    between atoms: C_23  and  C_24
REMARK   12  A    between atoms: C_24  and  C_25
REMARK   13  A    between atoms: C_25  and  O_26
REMARK   14  A    between atoms: C_27  and  C_28
REMARK   15  A    between atoms: C_28  and  C_29
REMARK   16  A    between atoms: C_29  and  O_30
REMARK                            x       y       z     vdW  Elec       q    Type
REMARK                         _______ _______ _______ _____ _____    ______ ____
ROOT
ATOM      1  O   UNL     1      -2.037  11.784  22.775  0.00  0.00    +0.000 OA
ATOM      2  C   UNL     1      -2.053  12.728  21.984  0.00  0.00    +0.000 C 
ATOM      3  C   UNL     1      -2.163  12.406  20.488  0.00  0.00    +0.000 C 
ATOM      4  O   UNL     1      -3.213  12.777  19.970  0.00  0.00    +0.000 OA
ATOM      5  C   UNL     1      -1.042  11.644  19.711  0.00  0.00    +0.000 C 
ATOM      6  C   UNL     1      -0.485  12.543  18.505  0.00  0.00    +0.000 C 
ATOM      7  C   UNL     1       0.970  13.111  18.532  0.00  0.00    +0.000 C 
ATOM      8  C   UNL     1       1.160  14.623  18.768  0.00  0.00    +0.000 C 
ATOM      9  C   UNL     1       2.116  14.953  19.931  0.00  0.00    +0.000 C 
ATOM     10  C   UNL     1       1.679  16.091  20.881  0.00  0.00    +0.000 C 
ATOM     11  C   UNL     1       1.424  15.625  22.337  0.00  0.00    +0.000 C 
ATOM     12  C   UNL     1       0.002  15.809  22.931  0.00  0.00    +0.000 C 
ATOM     13  C   UNL     1      -0.759  14.483  23.184  0.00  0.00    +0.000 C 
ATOM     14  C   UNL     1      -2.152  14.172  22.495  0.00  0.00    +0.000 C 
ENDROOT
BRANCH   5  15
ATOM     15  C   UNL     1       0.139  11.166  20.607  0.00  0.00    +0.000 C 
BRANCH  15  16
ATOM     16  C   UNL     1       0.157   9.707  21.080  0.00  0.00    +0.000 C 
BRANCH  16  17
ATOM     17  C   UNL     1       0.984   9.537  22.345  0.00  0.00    +0.000 C 
BRANCH  17  18
ATOM     18  O   UNL     1       0.202   9.922  23.467  0.00  0.00    +0.000 OA
ATOM     19  H   UNL     1       0.428  10.847  23.674  0.00  0.00    +0.000 HD
ENDBRANCH  17  18
ENDBRANCH  16  17
ENDBRANCH  15  16
ENDBRANCH   5  15
BRANCH  14  20
ATOM     20  C   UNL     1      -2.652  15.219  21.472  0.00  0.00    +0.000 C 
BRANCH  20  21
ATOM     21  C   UNL     1      -1.656  15.655  20.423  0.00  0.00    +0.000 C 
BRANCH  21  22
ATOM     22  C   UNL     1      -1.938  16.991  19.770  0.00  0.00    +0.000 C 
BRANCH  22  23
ATOM     23  O   UNL     1      -0.938  17.295  18.817  0.00  0.00    +0.000 OA
ATOM     24  H   UNL     1      -1.100  16.732  18.042  0.00  0.00    +0.000 HD
ENDBRANCH  22  23
ENDBRANCH  21  22
ENDBRANCH  20  21
ENDBRANCH  14  20
BRANCH  14  25
ATOM     25  C   UNL     1      -3.265  14.091  23.628  0.00  0.00    +0.000 C 
BRANCH  25  26
ATOM     26  C   UNL     1      -4.717  14.074  23.093  0.00  0.00    +0.000 C 
BRANCH  26  27
ATOM     27  C   UNL     1      -5.518  12.867  23.560  0.00  0.00    +0.000 C 
BRANCH  27  28
ATOM     28  O   UNL     1      -4.722  11.999  24.349  0.00  0.00    +0.000 OA
ATOM     29  H   UNL     1      -5.123  11.113  24.310  0.00  0.00    +0.000 HD
ENDBRANCH  27  28
ENDBRANCH  26  27
ENDBRANCH  25  26
ENDBRANCH  14  25
BRANCH   5  30
ATOM     30  C   UNL     1      -1.727  10.371  19.076  0.00  0.00    +0.000 C 
BRANCH  30  31
ATOM     31  C   UNL     1      -1.898  10.331  17.547  0.00  0.00    +0.000 C 
BRANCH  31  32
ATOM     32  C   UNL     1      -3.366  10.524  17.133  0.00  0.00    +0.000 C 
BRANCH  32  33
ATOM     33  O   UNL     1      -3.677  11.905  17.146  0.00  0.00    +0.000 OA
ATOM     34  H   UNL     1      -2.889  12.397  16.865  0.00  0.00    +0.000 HD
ENDBRANCH  32  33
ENDBRANCH  31  32
ENDBRANCH  30  31
ENDBRANCH   5  30
TORSDOF 16
ENDMDL
MODEL 9
REMARK VINA RESULT:      -4.7      2.342      6.766
REMARK  Name = 
REMARK  16 active torsions:
REMARK  status: ('A' for Active; 'I' for Inactive)
REMARK    1  A    between atoms: C_5  and  C_6
REMARK    2  A    between atoms: C_5  and  C_10
REMARK    3  A    between atoms: C_6  and  C_7
REMARK    4  A    between atoms: C_7  and  C_8
REMARK    5  A    between atoms: C_8  and  O_9
REMARK    6  A    between atoms: C_10  and  C_11
REMARK    7  A    between atoms: C_11  and  C_12
REMARK    8  A    between atoms: C_12  and  O_13
REMARK    9  A    between atoms: C_22  and  C_23
REMARK   10  A    between atoms: C_22  and  C_27
REMARK   11  A    between atoms: C_23  and  C_24
REMARK   12  A    between atoms: C_24  and  C_25
REMARK   13  A    between atoms: C_25  and  O_26
REMARK   14  A    between atoms: C_27  and  C_28
REMARK   15  A    between atoms: C_28  and  C_29
REMARK   16  A    between atoms: C_29  and  O_30
REMARK                            x       y       z     vdW  Elec       q    Type
REMARK                         _______ _______ _______ _____ _____    ______ ____
ROOT
ATOM      1  O   UNL     1       1.275  13.528  18.430  0.00  0.00    +0.000 OA
ATOM      2  C   UNL     1       1.052  13.793  19.611  0.00  0.00    +0.000 C 
ATOM      3  C   UNL     1       0.768  12.625  20.565  0.00  0.00    +0.000 C 
ATOM      4  O   UNL     1       1.630  12.457  21.424  0.00  0.00    +0.000 OA
ATOM      5  C   UNL     1      -0.497  11.719  20.428  0.00  0.00    +0.000 C 
ATOM      6  C   UNL     1      -1.382  11.782  21.763  0.00  0.00    +0.000 C 
ATOM      7  C   UNL     1      -2.793  12.453  21.762  0.00  0.00    +0.000 C 
ATOM      8  C   UNL     1      -2.957  13.811  22.473  0.00  0.00    +0.000 C 
ATOM      9  C   UNL     1      -3.577  14.905  21.582  0.00  0.00    +0.000 C 
ATOM     10  C   UNL     1      -2.936  16.309  21.667  0.00  0.00    +0.000 C 
ATOM     11  C   UNL     1      -2.288  16.780  20.340  0.00  0.00    +0.000 C 
ATOM     12  C   UNL     1      -0.766  17.079  20.329  0.00  0.00    +0.000 C 
ATOM     13  C   UNL     1       0.075  16.079  19.494  0.00  0.00    +0.000 C 
ATOM     14  C   UNL     1       1.241  15.222  20.139  0.00  0.00    +0.000 C 
ENDROOT
BRANCH   5  15
ATOM     15  C   UNL     1      -1.382  12.049  19.189  0.00  0.00    +0.000 C 
BRANCH  15  16
ATOM     16  C   UNL     1      -2.292  10.951  18.624  0.00  0.00    +0.000 C 
BRANCH  16  17
ATOM     17  C   UNL     1      -2.101  10.779  17.125  0.00  0.00    +0.000 C 
BRANCH  17  18
ATOM     18  O   UNL     1      -1.751  12.033  16.554  0.00  0.00    +0.000 OA
ATOM     19  H   UNL     1      -0.778  12.062  16.494  0.00  0.00    +0.000 HD
ENDBRANCH  17  18
ENDBRANCH  16  17
ENDBRANCH  15  16
ENDBRANCH   5  15
BRANCH  14  20
ATOM     20  C   UNL     1       1.420  15.360  21.669  0.00  0.00    +0.000 C 
BRANCH  20  21
ATOM     21  C   UNL     1       2.461  16.352  22.133  0.00  0.00    +0.000 C 
BRANCH  21  22
ATOM     22  C   UNL     1       2.090  17.165  23.354  0.00  0.00    +0.000 C 
BRANCH  22  23
ATOM     23  O   UNL     1       1.102  16.494  24.111  0.00  0.00    +0.000 OA
ATOM     24  H   UNL     1       1.302  16.654  25.049  0.00  0.00    +0.000 HD
ENDBRANCH  22  23
ENDBRANCH  21  22
ENDBRANCH  20  21
ENDBRANCH  14  20
BRANCH  14  25
ATOM     25  C   UNL     1       2.618  15.680  19.488  0.00  0.00    +0.000 C 
BRANCH  25  26
ATOM     26  C   UNL     1       2.477  16.780  18.410  0.00  0.00    +0.000 C 
BRANCH  26  27
ATOM     27  C   UNL     1       3.249  16.476  17.133  0.00  0.00    +0.000 C 
BRANCH  27  28
ATOM     28  O   UNL     1       3.532  15.092  17.024  0.00  0.00    +0.000 OA
ATOM     29  H   UNL     1       3.353  14.684  17.889  0.00  0.00    +0.000 HD
ENDBRANCH  27  28
ENDBRANCH  26  27
ENDBRANCH  25  26
ENDBRANCH  14  25
BRANCH   5  30
ATOM     30  C   UNL     1       0.030  10.239  20.277  0.00  0.00    +0.000 C 
BRANCH  30  31
ATOM     31  C   UNL     1      -0.219   9.262  21.440  0.00  0.00    +0.000 C 
BRANCH  31  32
ATOM     32  C   UNL     1       1.015   9.128  22.346  0.00  0.00    +0.000 C 
BRANCH  32  33
ATOM     33  O   UNL     1       0.711   9.641  23.631  0.00  0.00    +0.000 OA
ATOM     34  H   UNL     1       0.233   8.957  24.125  0.00  0.00    +0.000 HD
ENDBRANCH  32  33
ENDBRANCH  31  32
ENDBRANCH  30  31
ENDBRANCH   5  30
TORSDOF 16
ENDMDL
