MODEL 1
REMARK VINA RESULT:      -8.4      0.000      0.000
REMARK  Name = 
REMARK  9 active torsions:
REMARK  status: ('A' for Active; 'I' for Inactive)
REMARK    1  A    between atoms: C_2  and  O_3
REMARK    2  A    between atoms: C_2  and  C_4
REMARK    3  A    between atoms: C_4  and  C_5
REMARK    4  A    between atoms: C_5  and  C_6
REMARK    5  A    between atoms: C_5  and  N_12
REMARK    6  A    between atoms: C_17  and  O_18
REMARK    7  A    between atoms: O_18  and  C_19
REMARK    8  A    between atoms: C_19  and  C_20
REMARK    9  A    between atoms: C_20  and  C_21
REMARK                            x       y       z     vdW  Elec       q    Type
REMARK                         _______ _______ _______ _____ _____    ______ ____
ROOT
ATOM      1  N   UNL     1       0.314  10.477  19.715  0.00  0.00    +0.000 N 
ATOM      2  C   UNL     1      -0.678   9.751  20.420  0.00  0.00    +0.000 A 
ATOM      3  C   UNL     1       0.215   9.477  21.422  0.00  0.00    +0.000 A 
ATOM      4  C   UNL     1       1.036   8.653  20.639  0.00  0.00    +0.000 A 
ATOM      5  C   UNL     1       1.496   7.348  21.137  0.00  0.00    +0.000 A 
ATOM      6  C   UNL     1       2.156   6.347  20.493  0.00  0.00    +0.000 A 
ATOM      7  C   UNL     1       2.399   6.730  19.204  0.00  0.00    +0.000 A 
ATOM      8  C   UNL     1       1.972   8.131  18.699  0.00  0.00    +0.000 A 
ATOM      9  C   UNL     1       1.141   9.328  19.197  0.00  0.00    +0.000 A 
ENDROOT
BRANCH   1  10
ATOM     10  C   UNL     1      -0.432  11.797  19.171  0.00  0.00    +0.000 C 
BRANCH  10  11
ATOM     11  C   UNL     1      -1.719  11.585  18.447  0.00  0.00    +0.000 A 
ATOM     12  C   UNL     1      -1.706  10.815  17.281  0.00  0.00    +0.000 A 
ATOM     13  C   UNL     1      -2.877  10.644  16.570  0.00  0.00    +0.000 A 
ATOM     14  C   UNL     1      -4.073  11.181  17.066  0.00  0.00    +0.000 A 
ATOM     15  C   UNL     1      -4.112  11.810  18.305  0.00  0.00    +0.000 A 
ATOM     16  C   UNL     1      -2.935  12.002  19.006  0.00  0.00    +0.000 A 
ENDBRANCH  10  11
BRANCH  10  17
ATOM     17  C   UNL     1       0.317  13.070  18.393  0.00  0.00    +0.000 C 
BRANCH  17  19
ATOM     18  O   UNL     1       2.528  14.121  18.821  0.00  0.00    +0.000 OA
ATOM     19  C   UNL     1       1.897  13.218  18.253  0.00  0.00    +0.000 C 
BRANCH  19  20
ATOM     20  O   UNL     1       2.525  12.337  17.407  0.00  0.00    +0.000 OA
ATOM     21  H   UNL     1       2.010  11.812  16.774  0.00  0.00    +0.000 HD
ENDBRANCH  19  20
ENDBRANCH  17  19
ENDBRANCH  10  17
ENDBRANCH   1  10
BRANCH   6  22
ATOM     22  O   UNL     1       2.425   5.238  21.233  0.00  0.00    +0.000 OA
BRANCH  22  23
ATOM     23  C   UNL     1       1.859   3.942  21.063  0.00  0.00    +0.000 C 
BRANCH  23  24
ATOM     24  C   UNL     1       2.933   2.953  20.510  0.00  0.00    +0.000 C 
BRANCH  24  25
ATOM     25  C   UNL     1       3.428   3.295  19.126  0.00  0.00    +0.000 A 
ATOM     26  C   UNL     1       2.728   3.201  17.914  0.00  0.00    +0.000 A 
ATOM     27  C   UNL     1       3.387   3.553  16.689  0.00  0.00    +0.000 A 
ATOM     28  C   UNL     1       4.714   3.978  16.738  0.00  0.00    +0.000 A 
ATOM     29  C   UNL     1       5.155   4.292  18.019  0.00  0.00    +0.000 A 
ATOM     30  N   UNL     1       4.638   3.845  19.155  0.00  0.00    +0.000 NA
ATOM     31  N   UNL     1       6.167   5.253  18.160  0.00  0.00    +0.000 N 
ATOM     32  C   UNL     1       7.359   4.628  17.664  0.00  0.00    +0.000 C 
ATOM     33  C   UNL     1       7.216   4.511  16.145  0.00  0.00    +0.000 C 
ATOM     34  C   UNL     1       5.722   4.279  15.633  0.00  0.00    +0.000 C 
ATOM     35  H   UNL     1       5.884   6.024  17.552  0.00  0.00    +0.000 HD
ENDBRANCH  24  25
ENDBRANCH  23  24
ENDBRANCH  22  23
ENDBRANCH   6  22
TORSDOF 9
ENDMDL
MODEL 2
REMARK VINA RESULT:      -8.2      2.337      8.912
REMARK  Name = 
REMARK  9 active torsions:
REMARK  status: ('A' for Active; 'I' for Inactive)
REMARK    1  A    between atoms: C_2  and  O_3
REMARK    2  A    between atoms: C_2  and  C_4
REMARK    3  A    between atoms: C_4  and  C_5
REMARK    4  A    between atoms: C_5  and  C_6
REMARK    5  A    between atoms: C_5  and  N_12
REMARK    6  A    between atoms: C_17  and  O_18
REMARK    7  A    between atoms: O_18  and  C_19
REMARK    8  A    between atoms: C_19  and  C_20
REMARK    9  A    between atoms: C_20  and  C_21
REMARK                            x       y       z     vdW  Elec       q    Type
REMARK                         _______ _______ _______ _____ _____    ______ ____
ROOT
ATOM      1  N   UNL     1       3.082   6.892  18.273  0.00  0.00    +0.000 N 
ATOM      2  C   UNL     1       2.115   7.445  17.396  0.00  0.00    +0.000 A 
ATOM      3  C   UNL     1       2.423   8.707  17.830  0.00  0.00    +0.000 A 
ATOM      4  C   UNL     1       1.930   8.517  19.130  0.00  0.00    +0.000 A 
ATOM      5  C   UNL     1       1.056   9.517  19.763  0.00  0.00    +0.000 A 
ATOM      6  C   UNL     1       0.358   9.458  20.929  0.00  0.00    +0.000 A 
ATOM      7  C   UNL     1       0.601   8.256  21.534  0.00  0.00    +0.000 A 
ATOM      8  C   UNL     1       1.573   7.230  20.899  0.00  0.00    +0.000 A 
ATOM      9  C   UNL     1       2.346   7.044  19.580  0.00  0.00    +0.000 A 
ENDROOT
BRANCH   1  10
ATOM     10  C   UNL     1       3.836   5.757  17.413  0.00  0.00    +0.000 C 
BRANCH  10  11
ATOM     11  C   UNL     1       3.689   4.351  17.888  0.00  0.00    +0.000 A 
ATOM     12  C   UNL     1       4.376   3.967  19.043  0.00  0.00    +0.000 A 
ATOM     13  C   UNL     1       4.292   2.658  19.476  0.00  0.00    +0.000 A 
ATOM     14  C   UNL     1       3.462   1.756  18.796  0.00  0.00    +0.000 A 
ATOM     15  C   UNL     1       2.658   2.180  17.744  0.00  0.00    +0.000 A 
ATOM     16  C   UNL     1       2.761   3.485  17.296  0.00  0.00    +0.000 A 
ENDBRANCH  10  11
BRANCH  10  17
ATOM     17  C   UNL     1       5.396   5.875  16.829  0.00  0.00    +0.000 C 
BRANCH  17  19
ATOM     18  O   UNL     1       7.013   7.742  17.098  0.00  0.00    +0.000 OA
ATOM     19  C   UNL     1       6.557   6.687  17.559  0.00  0.00    +0.000 C 
BRANCH  19  20
ATOM     20  O   UNL     1       7.086   6.119  18.692  0.00  0.00    +0.000 OA
ATOM     21  H   UNL     1       7.580   6.661  19.328  0.00  0.00    +0.000 HD
ENDBRANCH  19  20
ENDBRANCH  17  19
ENDBRANCH  10  17
ENDBRANCH   1  10
BRANCH   6  22
ATOM     22  O   UNL     1      -0.387  10.553  21.234  0.00  0.00    +0.000 OA
BRANCH  22  23
ATOM     23  C   UNL     1       0.100  11.853  21.553  0.00  0.00    +0.000 C 
BRANCH  23  24
ATOM     24  C   UNL     1      -0.349  12.879  20.465  0.00  0.00    +0.000 C 
BRANCH  24  25
ATOM     25  C   UNL     1      -1.635  12.511  19.767  0.00  0.00    +0.000 A 
ATOM     26  C   UNL     1      -2.948  12.734  20.208  0.00  0.00    +0.000 A 
ATOM     27  C   UNL     1      -4.048  12.283  19.405  0.00  0.00    +0.000 A 
ATOM     28  C   UNL     1      -3.780  11.628  18.204  0.00  0.00    +0.000 A 
ATOM     29  C   UNL     1      -2.460  11.751  17.781  0.00  0.00    +0.000 A 
ATOM     30  N   UNL     1      -1.415  12.020  18.551  0.00  0.00    +0.000 NA
ATOM     31  N   UNL     1      -2.192  11.700  16.406  0.00  0.00    +0.000 N 
ATOM     32  C   UNL     1      -2.419  10.336  16.023  0.00  0.00    +0.000 C 
ATOM     33  C   UNL     1      -3.929  10.091  16.079  0.00  0.00    +0.000 C 
ATOM     34  C   UNL     1      -4.694  10.914  17.213  0.00  0.00    +0.000 C 
ATOM     35  H   UNL     1      -2.887  12.315  15.979  0.00  0.00    +0.000 HD
ENDBRANCH  24  25
ENDBRANCH  23  24
ENDBRANCH  22  23
ENDBRANCH   6  22
TORSDOF 9
ENDMDL
MODEL 3
REMARK VINA RESULT:      -8.2      2.280      9.313
REMARK  Name = 
REMARK  9 active torsions:
REMARK  status: ('A' for Active; 'I' for Inactive)
REMARK    1  A    between atoms: C_2  and  O_3
REMARK    2  A    between atoms: C_2  and  C_4
REMARK    3  A    between atoms: C_4  and  C_5
REMARK    4  A    between atoms: C_5  and  C_6
REMARK    5  A    between atoms: C_5  and  N_12
REMARK    6  A    between atoms: C_17  and  O_18
REMARK    7  A    between atoms: O_18  and  C_19
REMARK    8  A    between atoms: C_19  and  C_20
REMARK    9  A    between atoms: C_20  and  C_21
REMARK                            x       y       z     vdW  Elec       q    Type
REMARK                         _______ _______ _______ _____ _____    ______ ____
ROOT
ATOM      1  N   UNL     1       3.070   6.535  19.468  0.00  0.00    +0.000 N 
ATOM      2  C   UNL     1       2.384   6.439  18.230  0.00  0.00    +0.000 A 
ATOM      3  C   UNL     1       2.732   7.727  17.922  0.00  0.00    +0.000 A 
ATOM      4  C   UNL     1       1.952   8.313  18.930  0.00  0.00    +0.000 A 
ATOM      5  C   UNL     1       1.081   9.463  18.643  0.00  0.00    +0.000 A 
ATOM      6  C   UNL     1       0.145  10.071  19.421  0.00  0.00    +0.000 A 
ATOM      7  C   UNL     1       0.114   9.456  20.642  0.00  0.00    +0.000 A 
ATOM      8  C   UNL     1       1.077   8.287  20.966  0.00  0.00    +0.000 A 
ATOM      9  C   UNL     1       2.091   7.394  20.227  0.00  0.00    +0.000 A 
ENDROOT
BRANCH   1  10
ATOM     10  C   UNL     1       3.858   5.139  19.625  0.00  0.00    +0.000 C 
BRANCH  10  11
ATOM     11  C   UNL     1       5.064   4.952  18.768  0.00  0.00    +0.000 A 
ATOM     12  C   UNL     1       4.898   4.370  17.508  0.00  0.00    +0.000 A 
ATOM     13  C   UNL     1       6.006   4.145  16.716  0.00  0.00    +0.000 A 
ATOM     14  C   UNL     1       7.268   4.572  17.153  0.00  0.00    +0.000 A 
ATOM     15  C   UNL     1       7.408   5.292  18.334  0.00  0.00    +0.000 A 
ATOM     16  C   UNL     1       6.301   5.496  19.138  0.00  0.00    +0.000 A 
ENDBRANCH  10  11
BRANCH  10  17
ATOM     17  C   UNL     1       3.137   3.636  19.721  0.00  0.00    +0.000 C 
BRANCH  17  19
ATOM     18  O   UNL     1       2.628   2.775  21.996  0.00  0.00    +0.000 OA
ATOM     19  C   UNL     1       2.183   3.184  20.915  0.00  0.00    +0.000 C 
BRANCH  19  20
ATOM     20  O   UNL     1       0.834   3.196  20.662  0.00  0.00    +0.000 OA
ATOM     21  H   UNL     1       0.455   2.612  19.986  0.00  0.00    +0.000 HD
ENDBRANCH  19  20
ENDBRANCH  17  19
ENDBRANCH  10  17
ENDBRANCH   1  10
BRANCH   6  22
ATOM     22  O   UNL     1      -0.519  11.112  18.853  0.00  0.00    +0.000 OA
BRANCH  22  23
ATOM     23  C   UNL     1      -1.323  12.078  19.524  0.00  0.00    +0.000 C 
BRANCH  23  24
ATOM     24  C   UNL     1      -0.808  13.518  19.211  0.00  0.00    +0.000 C 
BRANCH  24  25
ATOM     25  C   UNL     1       0.631  13.754  19.600  0.00  0.00    +0.000 A 
ATOM     26  C   UNL     1       1.252  13.455  20.821  0.00  0.00    +0.000 A 
ATOM     27  C   UNL     1       2.637  13.781  21.007  0.00  0.00    +0.000 A 
ATOM     28  C   UNL     1       3.329  14.394  19.963  0.00  0.00    +0.000 A 
ATOM     29  C   UNL     1       2.660  14.349  18.745  0.00  0.00    +0.000 A 
ATOM     30  N   UNL     1       1.353  14.197  18.576  0.00  0.00    +0.000 NA
ATOM     31  N   UNL     1       3.418  14.351  17.565  0.00  0.00    +0.000 N 
ATOM     32  C   UNL     1       3.966  15.673  17.466  0.00  0.00    +0.000 C 
ATOM     33  C   UNL     1       5.036  15.807  18.553  0.00  0.00    +0.000 C 
ATOM     34  C   UNL     1       4.733  14.987  19.888  0.00  0.00    +0.000 C 
ATOM     35  H   UNL     1       4.158  13.665  17.727  0.00  0.00    +0.000 HD
ENDBRANCH  24  25
ENDBRANCH  23  24
ENDBRANCH  22  23
ENDBRANCH   6  22
TORSDOF 9
ENDMDL
MODEL 4
REMARK VINA RESULT:      -8.2      1.696      3.071
REMARK  Name = 
REMARK  9 active torsions:
REMARK  status: ('A' for Active; 'I' for Inactive)
REMARK    1  A    between atoms: C_2  and  O_3
REMARK    2  A    between atoms: C_2  and  C_4
REMARK    3  A    between atoms: C_4  and  C_5
REMARK    4  A    between atoms: C_5  and  C_6
REMARK    5  A    between atoms: C_5  and  N_12
REMARK    6  A    between atoms: C_17  and  O_18
REMARK    7  A    between atoms: O_18  and  C_19
REMARK    8  A    between atoms: C_19  and  C_20
REMARK    9  A    between atoms: C_20  and  C_21
REMARK                            x       y       z     vdW  Elec       q    Type
REMARK                         _______ _______ _______ _____ _____    ______ ____
ROOT
ATOM      1  N   UNL     1       0.569  10.561  19.199  0.00  0.00    +0.000 N 
ATOM      2  C   UNL     1      -0.509   9.946  19.885  0.00  0.00    +0.000 A 
ATOM      3  C   UNL     1       0.301   9.693  20.959  0.00  0.00    +0.000 A 
ATOM      4  C   UNL     1       1.115   8.768  20.289  0.00  0.00    +0.000 A 
ATOM      5  C   UNL     1       1.461   7.477  20.903  0.00  0.00    +0.000 A 
ATOM      6  C   UNL     1       2.094   6.396  20.373  0.00  0.00    +0.000 A 
ATOM      7  C   UNL     1       2.440   6.671  19.080  0.00  0.00    +0.000 A 
ATOM      8  C   UNL     1       2.134   8.055  18.454  0.00  0.00    +0.000 A 
ATOM      9  C   UNL     1       1.351   9.331  18.815  0.00  0.00    +0.000 A 
ENDROOT
BRANCH   1  10
ATOM     10  C   UNL     1      -0.058  11.880  18.519  0.00  0.00    +0.000 C 
BRANCH  10  11
ATOM     11  C   UNL     1       0.734  13.138  18.645  0.00  0.00    +0.000 A 
ATOM     12  C   UNL     1       2.065  13.128  18.220  0.00  0.00    +0.000 A 
ATOM     13  C   UNL     1       2.831  14.267  18.370  0.00  0.00    +0.000 A 
ATOM     14  C   UNL     1       2.243  15.435  18.875  0.00  0.00    +0.000 A 
ATOM     15  C   UNL     1       0.881  15.487  19.148  0.00  0.00    +0.000 A 
ATOM     16  C   UNL     1       0.119  14.339  19.021  0.00  0.00    +0.000 A 
ENDBRANCH  10  11
BRANCH  10  17
ATOM     17  C   UNL     1      -1.659  12.344  18.623  0.00  0.00    +0.000 C 
BRANCH  17  19
ATOM     18  O   UNL     1      -2.651  10.643  17.107  0.00  0.00    +0.000 OA
ATOM     19  C   UNL     1      -2.848  11.603  17.864  0.00  0.00    +0.000 C 
BRANCH  19  20
ATOM     20  O   UNL     1      -4.106  12.129  18.031  0.00  0.00    +0.000 OA
ATOM     21  H   UNL     1      -4.293  12.734  18.767  0.00  0.00    +0.000 HD
ENDBRANCH  19  20
ENDBRANCH  17  19
ENDBRANCH  10  17
ENDBRANCH   1  10
BRANCH   6  22
ATOM     22  O   UNL     1       2.247   5.329  21.202  0.00  0.00    +0.000 OA
BRANCH  22  23
ATOM     23  C   UNL     1       1.747   4.011  20.996  0.00  0.00    +0.000 C 
BRANCH  23  24
ATOM     24  C   UNL     1       2.902   3.060  20.547  0.00  0.00    +0.000 C 
BRANCH  24  25
ATOM     25  C   UNL     1       3.430   3.346  19.162  0.00  0.00    +0.000 A 
ATOM     26  C   UNL     1       2.762   3.192  17.938  0.00  0.00    +0.000 A 
ATOM     27  C   UNL     1       3.450   3.497  16.717  0.00  0.00    +0.000 A 
ATOM     28  C   UNL     1       4.772   3.936  16.781  0.00  0.00    +0.000 A 
ATOM     29  C   UNL     1       5.176   4.310  18.057  0.00  0.00    +0.000 A 
ATOM     30  N   UNL     1       4.634   3.909  19.199  0.00  0.00    +0.000 NA
ATOM     31  N   UNL     1       6.176   5.286  18.182  0.00  0.00    +0.000 N 
ATOM     32  C   UNL     1       7.386   4.651  17.745  0.00  0.00    +0.000 C 
ATOM     33  C   UNL     1       7.284   4.467  16.229  0.00  0.00    +0.000 C 
ATOM     34  C   UNL     1       5.806   4.198  15.690  0.00  0.00    +0.000 C 
ATOM     35  H   UNL     1       5.903   6.027  17.533  0.00  0.00    +0.000 HD
ENDBRANCH  24  25
ENDBRANCH  23  24
ENDBRANCH  22  23
ENDBRANCH   6  22
TORSDOF 9
ENDMDL
MODEL 5
REMARK VINA RESULT:      -8.2      2.115      9.890
REMARK  Name = 
REMARK  9 active torsions:
REMARK  status: ('A' for Active; 'I' for Inactive)
REMARK    1  A    between atoms: C_2  and  O_3
REMARK    2  A    between atoms: C_2  and  C_4
REMARK    3  A    between atoms: C_4  and  C_5
REMARK    4  A    between atoms: C_5  and  C_6
REMARK    5  A    between atoms: C_5  and  N_12
REMARK    6  A    between atoms: C_17  and  O_18
REMARK    7  A    between atoms: O_18  and  C_19
REMARK    8  A    between atoms: C_19  and  C_20
REMARK    9  A    between atoms: C_20  and  C_21
REMARK                            x       y       z     vdW  Elec       q    Type
REMARK                         _______ _______ _______ _____ _____    ______ ____
ROOT
ATOM      1  N   UNL     1       2.948   6.179  19.104  0.00  0.00    +0.000 N 
ATOM      2  C   UNL     1       2.220   6.551  17.946  0.00  0.00    +0.000 A 
ATOM      3  C   UNL     1       2.674   7.838  18.058  0.00  0.00    +0.000 A 
ATOM      4  C   UNL     1       1.980   8.114  19.246  0.00  0.00    +0.000 A 
ATOM      5  C   UNL     1       1.209   9.356  19.403  0.00  0.00    +0.000 A 
ATOM      6  C   UNL     1       0.356   9.740  20.391  0.00  0.00    +0.000 A 
ATOM      7  C   UNL     1       0.306   8.759  21.342  0.00  0.00    +0.000 A 
ATOM      8  C   UNL     1       1.169   7.479  21.208  0.00  0.00    +0.000 A 
ATOM      9  C   UNL     1       2.074   6.808  20.159  0.00  0.00    +0.000 A 
ENDROOT
BRANCH   1  10
ATOM     10  C   UNL     1       3.611   4.754  18.749  0.00  0.00    +0.000 C 
BRANCH  10  11
ATOM     11  C   UNL     1       5.015   4.777  18.244  0.00  0.00    +0.000 A 
ATOM     12  C   UNL     1       5.253   4.375  16.927  0.00  0.00    +0.000 A 
ATOM     13  C   UNL     1       6.549   4.345  16.453  0.00  0.00    +0.000 A 
ATOM     14  C   UNL     1       7.596   4.789  17.273  0.00  0.00    +0.000 A 
ATOM     15  C   UNL     1       7.339   5.337  18.524  0.00  0.00    +0.000 A 
ATOM     16  C   UNL     1       6.043   5.344  19.008  0.00  0.00    +0.000 A 
ENDBRANCH  10  11
BRANCH  10  17
ATOM     17  C   UNL     1       2.852   3.525  17.910  0.00  0.00    +0.000 C 
BRANCH  17  19
ATOM     18  O   UNL     1       1.534   1.881  19.227  0.00  0.00    +0.000 OA
ATOM     19  C   UNL     1       2.536   2.092  18.529  0.00  0.00    +0.000 C 
BRANCH  19  20
ATOM     20  O   UNL     1       3.472   1.110  18.316  0.00  0.00    +0.000 OA
ATOM     21  H   UNL     1       3.257   0.180  18.492  0.00  0.00    +0.000 HD
ENDBRANCH  19  20
ENDBRANCH  17  19
ENDBRANCH  10  17
ENDBRANCH   1  10
BRANCH   6  22
ATOM     22  O   UNL     1      -0.228  10.957  20.235  0.00  0.00    +0.000 OA
BRANCH  22  23
ATOM     23  C   UNL     1       0.348  12.107  19.623  0.00  0.00    +0.000 C 
BRANCH  23  24
ATOM     24  C   UNL     1      -0.404  12.446  18.298  0.00  0.00    +0.000 C 
BRANCH  24  25
ATOM     25  C   UNL     1      -1.760  11.795  18.178  0.00  0.00    +0.000 A 
ATOM     26  C   UNL     1      -2.081  10.584  17.545  0.00  0.00    +0.000 A 
ATOM     27  C   UNL     1      -3.446  10.143  17.517  0.00  0.00    +0.000 A 
ATOM     28  C   UNL     1      -4.421  10.936  18.120  0.00  0.00    +0.000 A 
ATOM     29  C   UNL     1      -3.905  11.932  18.942  0.00  0.00    +0.000 A 
ATOM     30  N   UNL     1      -2.686  12.450  18.871  0.00  0.00    +0.000 NA
ATOM     31  N   UNL     1      -4.679  12.373  20.025  0.00  0.00    +0.000 N 
ATOM     32  C   UNL     1      -5.765  13.109  19.443  0.00  0.00    +0.000 C 
ATOM     33  C   UNL     1      -6.689  12.098  18.759  0.00  0.00    +0.000 C 
ATOM     34  C   UNL     1      -5.943  10.829  18.140  0.00  0.00    +0.000 C 
ATOM     35  H   UNL     1      -5.021  11.518  20.469  0.00  0.00    +0.000 HD
ENDBRANCH  24  25
ENDBRANCH  23  24
ENDBRANCH  22  23
ENDBRANCH   6  22
TORSDOF 9
ENDMDL
MODEL 6
REMARK VINA RESULT:      -8.2      2.378     10.207
REMARK  Name = 
REMARK  9 active torsions:
REMARK  status: ('A' for Active; 'I' for Inactive)
REMARK    1  A    between atoms: C_2  and  O_3
REMARK    2  A    between atoms: C_2  and  C_4
REMARK    3  A    between atoms: C_4  and  C_5
REMARK    4  A    between atoms: C_5  and  C_6
REMARK    5  A    between atoms: C_5  and  N_12
REMARK    6  A    between atoms: C_17  and  O_18
REMARK    7  A    between atoms: O_18  and  C_19
REMARK    8  A    between atoms: C_19  and  C_20
REMARK    9  A    between atoms: C_20  and  C_21
REMARK                            x       y       z     vdW  Elec       q    Type
REMARK                         _______ _______ _______ _____ _____    ______ ____
ROOT
ATOM      1  N   UNL     1       2.889   6.451  19.020  0.00  0.00    +0.000 N 
ATOM      2  C   UNL     1       2.194   6.843  17.849  0.00  0.00    +0.000 A 
ATOM      3  C   UNL     1       2.767   8.085  17.908  0.00  0.00    +0.000 A 
ATOM      4  C   UNL     1       2.107   8.473  19.083  0.00  0.00    +0.000 A 
ATOM      5  C   UNL     1       1.457   9.788  19.190  0.00  0.00    +0.000 A 
ATOM      6  C   UNL     1       0.647  10.289  20.162  0.00  0.00    +0.000 A 
ATOM      7  C   UNL     1       0.509   9.357  21.152  0.00  0.00    +0.000 A 
ATOM      8  C   UNL     1       1.248   7.997  21.070  0.00  0.00    +0.000 A 
ATOM      9  C   UNL     1       2.083   7.203  20.049  0.00  0.00    +0.000 A 
ENDROOT
BRANCH   1  10
ATOM     10  C   UNL     1       3.414   4.957  18.723  0.00  0.00    +0.000 C 
BRANCH  10  11
ATOM     11  C   UNL     1       4.770   4.835  18.113  0.00  0.00    +0.000 A 
ATOM     12  C   UNL     1       4.863   4.415  16.783  0.00  0.00    +0.000 A 
ATOM     13  C   UNL     1       6.109   4.250  16.212  0.00  0.00    +0.000 A 
ATOM     14  C   UNL     1       7.256   4.578  16.947  0.00  0.00    +0.000 A 
ATOM     15  C   UNL     1       7.155   5.146  18.212  0.00  0.00    +0.000 A 
ATOM     16  C   UNL     1       5.908   5.288  18.793  0.00  0.00    +0.000 A 
ENDBRANCH  10  11
BRANCH  10  17
ATOM     17  C   UNL     1       2.501   3.738  18.039  0.00  0.00    +0.000 C 
BRANCH  17  19
ATOM     18  O   UNL     1       0.690   3.321  19.689  0.00  0.00    +0.000 OA
ATOM     19  C   UNL     1       1.469   2.839  18.855  0.00  0.00    +0.000 C 
BRANCH  19  20
ATOM     20  O   UNL     1       1.534   1.484  18.644  0.00  0.00    +0.000 OA
ATOM     21  H   UNL     1       0.766   1.003  18.296  0.00  0.00    +0.000 HD
ENDBRANCH  19  20
ENDBRANCH  17  19
ENDBRANCH  10  17
ENDBRANCH   1  10
BRANCH   6  22
ATOM     22  O   UNL     1       0.179  11.549  19.957  0.00  0.00    +0.000 OA
BRANCH  22  23
ATOM     23  C   UNL     1      -0.137  12.147  18.703  0.00  0.00    +0.000 C 
BRANCH  23  24
ATOM     24  C   UNL     1      -1.484  11.577  18.158  0.00  0.00    +0.000 C 
BRANCH  24  25
ATOM     25  C   UNL     1      -2.689  11.952  18.985  0.00  0.00    +0.000 A 
ATOM     26  C   UNL     1      -2.727  12.753  20.136  0.00  0.00    +0.000 A 
ATOM     27  C   UNL     1      -3.979  12.973  20.801  0.00  0.00    +0.000 A 
ATOM     28  C   UNL     1      -5.129  12.378  20.283  0.00  0.00    +0.000 A 
ATOM     29  C   UNL     1      -4.968  11.872  18.998  0.00  0.00    +0.000 A 
ATOM     30  N   UNL     1      -3.820  11.525  18.433  0.00  0.00    +0.000 NA
ATOM     31  N   UNL     1      -6.089  11.816  18.157  0.00  0.00    +0.000 N 
ATOM     32  C   UNL     1      -6.921  10.779  18.699  0.00  0.00    +0.000 C 
ATOM     33  C   UNL     1      -7.511  11.305  20.010  0.00  0.00    +0.000 C 
ATOM     34  C   UNL     1      -6.555  12.295  20.819  0.00  0.00    +0.000 C 
ATOM     35  H   UNL     1      -6.539  12.728  18.257  0.00  0.00    +0.000 HD
ENDBRANCH  24  25
ENDBRANCH  23  24
ENDBRANCH  22  23
ENDBRANCH   6  22
TORSDOF 9
ENDMDL
MODEL 7
REMARK VINA RESULT:      -8.2      3.173     10.690
REMARK  Name = 
REMARK  9 active torsions:
REMARK  status: ('A' for Active; 'I' for Inactive)
REMARK    1  A    between atoms: C_2  and  O_3
REMARK    2  A    between atoms: C_2  and  C_4
REMARK    3  A    between atoms: C_4  and  C_5
REMARK    4  A    between atoms: C_5  and  C_6
REMARK    5  A    between atoms: C_5  and  N_12
REMARK    6  A    between atoms: C_17  and  O_18
REMARK    7  A    between atoms: O_18  and  C_19
REMARK    8  A    between atoms: C_19  and  C_20
REMARK    9  A    between atoms: C_20  and  C_21
REMARK                            x       y       z     vdW  Elec       q    Type
REMARK                         _______ _______ _______ _____ _____    ______ ____
ROOT
ATOM      1  N   UNL     1       3.005   6.531  18.984  0.00  0.00    +0.000 N 
ATOM      2  C   UNL     1       2.275   6.696  17.780  0.00  0.00    +0.000 A 
ATOM      3  C   UNL     1       2.748   7.975  17.653  0.00  0.00    +0.000 A 
ATOM      4  C   UNL     1       2.066   8.474  18.772  0.00  0.00    +0.000 A 
ATOM      5  C   UNL     1       1.314   9.736  18.701  0.00  0.00    +0.000 A 
ATOM      6  C   UNL     1       0.472  10.307  19.605  0.00  0.00    +0.000 A 
ATOM      7  C   UNL     1       0.413   9.517  20.720  0.00  0.00    +0.000 A 
ATOM      8  C   UNL     1       1.257   8.222  20.820  0.00  0.00    +0.000 A 
ATOM      9  C   UNL     1       2.147   7.356  19.909  0.00  0.00    +0.000 A 
ENDROOT
BRANCH   1  10
ATOM     10  C   UNL     1       3.646   5.055  18.894  0.00  0.00    +0.000 C 
BRANCH  10  11
ATOM     11  C   UNL     1       5.000   4.951  18.277  0.00  0.00    +0.000 A 
ATOM     12  C   UNL     1       6.112   5.269  19.061  0.00  0.00    +0.000 A 
ATOM     13  C   UNL     1       7.371   5.225  18.498  0.00  0.00    +0.000 A 
ATOM     14  C   UNL     1       7.523   4.791  17.174  0.00  0.00    +0.000 A 
ATOM     15  C   UNL     1       6.433   4.324  16.448  0.00  0.00    +0.000 A 
ATOM     16  C   UNL     1       5.169   4.392  17.004  0.00  0.00    +0.000 A 
ENDBRANCH  10  11
BRANCH  10  17
ATOM     17  C   UNL     1       2.826   3.682  18.414  0.00  0.00    +0.000 C 
BRANCH  17  19
ATOM     18  O   UNL     1       3.910   2.004  19.892  0.00  0.00    +0.000 OA
ATOM     19  C   UNL     1       2.966   2.268  19.135  0.00  0.00    +0.000 C 
BRANCH  19  20
ATOM     20  O   UNL     1       2.025   1.319  18.816  0.00  0.00    +0.000 OA
ATOM     21  H   UNL     1       1.660   0.739  19.504  0.00  0.00    +0.000 HD
ENDBRANCH  19  20
ENDBRANCH  17  19
ENDBRANCH  10  17
ENDBRANCH   1  10
BRANCH   6  22
ATOM     22  O   UNL     1      -0.096  11.484  19.231  0.00  0.00    +0.000 OA
BRANCH  22  23
ATOM     23  C   UNL     1      -1.477  11.719  18.971  0.00  0.00    +0.000 C 
BRANCH  23  24
ATOM     24  C   UNL     1      -1.944  13.025  19.687  0.00  0.00    +0.000 C 
BRANCH  24  25
ATOM     25  C   UNL     1      -2.452  12.808  21.092  0.00  0.00    +0.000 A 
ATOM     26  C   UNL     1      -1.750  12.288  22.189  0.00  0.00    +0.000 A 
ATOM     27  C   UNL     1      -2.421  12.135  23.447  0.00  0.00    +0.000 A 
ATOM     28  C   UNL     1      -3.762  12.506  23.544  0.00  0.00    +0.000 A 
ATOM     29  C   UNL     1      -4.212  13.264  22.469  0.00  0.00    +0.000 A 
ATOM     30  N   UNL     1      -3.679  13.292  21.254  0.00  0.00    +0.000 NA
ATOM     31  N   UNL     1      -5.255  14.176  22.684  0.00  0.00    +0.000 N 
ATOM     32  C   UNL     1      -6.426  13.374  22.893  0.00  0.00    +0.000 C 
ATOM     33  C   UNL     1      -6.281  12.701  24.260  0.00  0.00    +0.000 C 
ATOM     34  C   UNL     1      -4.780  12.340  24.667  0.00  0.00    +0.000 C 
ATOM     35  H   UNL     1      -4.999  14.671  23.540  0.00  0.00    +0.000 HD
ENDBRANCH  24  25
ENDBRANCH  23  24
ENDBRANCH  22  23
ENDBRANCH   6  22
TORSDOF 9
ENDMDL
MODEL 8
REMARK VINA RESULT:      -8.2      2.176     10.133
REMARK  Name = 
REMARK  9 active torsions:
REMARK  status: ('A' for Active; 'I' for Inactive)
REMARK    1  A    between atoms: C_2  and  O_3
REMARK    2  A    between atoms: C_2  and  C_4
REMARK    3  A    between atoms: C_4  and  C_5
REMARK    4  A    between atoms: C_5  and  C_6
REMARK    5  A    between atoms: C_5  and  N_12
REMARK    6  A    between atoms: C_17  and  O_18
REMARK    7  A    between atoms: O_18  and  C_19
REMARK    8  A    between atoms: C_19  and  C_20
REMARK    9  A    between atoms: C_20  and  C_21
REMARK                            x       y       z     vdW  Elec       q    Type
REMARK                         _______ _______ _______ _____ _____    ______ ____
ROOT
ATOM      1  N   UNL     1       3.153   5.604  18.664  0.00  0.00    +0.000 N 
ATOM      2  C   UNL     1       3.349   5.893  20.038  0.00  0.00    +0.000 A 
ATOM      3  C   UNL     1       2.008   6.120  20.195  0.00  0.00    +0.000 A 
ATOM      4  C   UNL     1       1.980   7.273  19.397  0.00  0.00    +0.000 A 
ATOM      5  C   UNL     1       1.295   8.493  19.850  0.00  0.00    +0.000 A 
ATOM      6  C   UNL     1       1.281   9.743  19.312  0.00  0.00    +0.000 A 
ATOM      7  C   UNL     1       2.026   9.742  18.166  0.00  0.00    +0.000 A 
ATOM      8  C   UNL     1       2.693   8.441  17.653  0.00  0.00    +0.000 A 
ATOM      9  C   UNL     1       2.932   7.002  18.146  0.00  0.00    +0.000 A 
ENDROOT
BRANCH   1  10
ATOM     10  C   UNL     1       4.073   4.314  18.367  0.00  0.00    +0.000 C 
BRANCH  10  11
ATOM     11  C   UNL     1       5.089   4.454  17.284  0.00  0.00    +0.000 A 
ATOM     12  C   UNL     1       6.434   4.565  17.648  0.00  0.00    +0.000 A 
ATOM     13  C   UNL     1       7.388   4.741  16.665  0.00  0.00    +0.000 A 
ATOM     14  C   UNL     1       7.003   4.732  15.317  0.00  0.00    +0.000 A 
ATOM     15  C   UNL     1       5.689   4.464  14.953  0.00  0.00    +0.000 A 
ATOM     16  C   UNL     1       4.730   4.311  15.938  0.00  0.00    +0.000 A 
ENDBRANCH  10  11
BRANCH  10  17
ATOM     17  C   UNL     1       3.517   2.743  18.262  0.00  0.00    +0.000 C 
BRANCH  17  19
ATOM     18  O   UNL     1       1.089   3.059  17.836  0.00  0.00    +0.000 OA
ATOM     19  C   UNL     1       1.976   2.342  18.320  0.00  0.00    +0.000 C 
BRANCH  19  20
ATOM     20  O   UNL     1       1.665   1.193  19.004  0.00  0.00    +0.000 OA
ATOM     21  H   UNL     1       1.099   0.517  18.598  0.00  0.00    +0.000 HD
ENDBRANCH  19  20
ENDBRANCH  17  19
ENDBRANCH  10  17
ENDBRANCH   1  10
BRANCH   6  22
ATOM     22  O   UNL     1       0.561  10.676  19.989  0.00  0.00    +0.000 OA
BRANCH  22  23
ATOM     23  C   UNL     1      -0.801  11.028  19.765  0.00  0.00    +0.000 C 
BRANCH  23  24
ATOM     24  C   UNL     1      -1.060  11.238  18.240  0.00  0.00    +0.000 C 
BRANCH  24  25
ATOM     25  C   UNL     1      -2.516  11.410  17.882  0.00  0.00    +0.000 A 
ATOM     26  C   UNL     1      -3.169  10.998  16.711  0.00  0.00    +0.000 A 
ATOM     27  C   UNL     1      -4.566  11.278  16.546  0.00  0.00    +0.000 A 
ATOM     28  C   UNL     1      -5.239  11.959  17.559  0.00  0.00    +0.000 A 
ATOM     29  C   UNL     1      -4.531  12.029  18.753  0.00  0.00    +0.000 A 
ATOM     30  N   UNL     1      -3.216  11.920  18.890  0.00  0.00    +0.000 NA
ATOM     31  N   UNL     1      -5.251  12.112  19.954  0.00  0.00    +0.000 N 
ATOM     32  C   UNL     1      -5.828  13.425  19.963  0.00  0.00    +0.000 C 
ATOM     33  C   UNL     1      -6.934  13.446  18.905  0.00  0.00    +0.000 C 
ATOM     34  C   UNL     1      -6.654  12.526  17.632  0.00  0.00    +0.000 C 
ATOM     35  H   UNL     1      -5.979  11.399  19.873  0.00  0.00    +0.000 HD
ENDBRANCH  24  25
ENDBRANCH  23  24
ENDBRANCH  22  23
ENDBRANCH   6  22
TORSDOF 9
ENDMDL
MODEL 9
REMARK VINA RESULT:      -8.1      3.311     10.396
REMARK  Name = 
REMARK  9 active torsions:
REMARK  status: ('A' for Active; 'I' for Inactive)
REMARK    1  A    between atoms: C_2  and  O_3
REMARK    2  A    between atoms: C_2  and  C_4
REMARK    3  A    between atoms: C_4  and  C_5
REMARK    4  A    between atoms: C_5  and  C_6
REMARK    5  A    between atoms: C_5  and  N_12
REMARK    6  A    between atoms: C_17  and  O_18
REMARK    7  A    between atoms: O_18  and  C_19
REMARK    8  A    between atoms: C_19  and  C_20
REMARK    9  A    between atoms: C_20  and  C_21
REMARK                            x       y       z     vdW  Elec       q    Type
REMARK                         _______ _______ _______ _____ _____    ______ ____
ROOT
ATOM      1  N   UNL     1       3.076   6.273  19.330  0.00  0.00    +0.000 N 
ATOM      2  C   UNL     1       2.400   6.404  18.091  0.00  0.00    +0.000 A 
ATOM      3  C   UNL     1       2.811   7.706  17.989  0.00  0.00    +0.000 A 
ATOM      4  C   UNL     1       2.049   8.165  19.073  0.00  0.00    +0.000 A 
ATOM      5  C   UNL     1       1.236   9.386  18.966  0.00  0.00    +0.000 A 
ATOM      6  C   UNL     1       0.322   9.909  19.827  0.00  0.00    +0.000 A 
ATOM      7  C   UNL     1       0.249   9.114  20.937  0.00  0.00    +0.000 A 
ATOM      8  C   UNL     1       1.153   7.864  21.078  0.00  0.00    +0.000 A 
ATOM      9  C   UNL     1       2.131   7.049  20.211  0.00  0.00    +0.000 A 
ENDROOT
BRANCH   1  10
ATOM     10  C   UNL     1       3.797   4.833  19.270  0.00  0.00    +0.000 C 
BRANCH  10  11
ATOM     11  C   UNL     1       4.865   4.663  18.243  0.00  0.00    +0.000 A 
ATOM     12  C   UNL     1       6.179   4.989  18.593  0.00  0.00    +0.000 A 
ATOM     13  C   UNL     1       7.177   4.884  17.645  0.00  0.00    +0.000 A 
ATOM     14  C   UNL     1       6.872   4.381  16.372  0.00  0.00    +0.000 A 
ATOM     15  C   UNL     1       5.598   3.909  16.078  0.00  0.00    +0.000 A 
ATOM     16  C   UNL     1       4.593   4.038  17.020  0.00  0.00    +0.000 A 
ENDBRANCH  10  11
BRANCH  10  17
ATOM     17  C   UNL     1       3.009   3.363  19.348  0.00  0.00    +0.000 C 
BRANCH  17  19
ATOM     18  O   UNL     1       0.859   2.880  18.200  0.00  0.00    +0.000 OA
ATOM     19  C   UNL     1       1.427   3.198  19.253  0.00  0.00    +0.000 C 
BRANCH  19  20
ATOM     20  O   UNL     1       0.709   3.502  20.384  0.00  0.00    +0.000 OA
ATOM     21  H   UNL     1      -0.261   3.451  20.378  0.00  0.00    +0.000 HD
ENDBRANCH  19  20
ENDBRANCH  17  19
ENDBRANCH  10  17
ENDBRANCH   1  10
BRANCH   6  22
ATOM     22  O   UNL     1      -0.288  11.056  19.426  0.00  0.00    +0.000 OA
BRANCH  22  23
ATOM     23  C   UNL     1       0.145  12.388  19.690  0.00  0.00    +0.000 C 
BRANCH  23  24
ATOM     24  C   UNL     1       0.507  12.548  21.200  0.00  0.00    +0.000 C 
BRANCH  24  25
ATOM     25  C   UNL     1      -0.687  12.757  22.099  0.00  0.00    +0.000 A 
ATOM     26  C   UNL     1      -1.735  11.863  22.360  0.00  0.00    +0.000 A 
ATOM     27  C   UNL     1      -2.801  12.261  23.233  0.00  0.00    +0.000 A 
ATOM     28  C   UNL     1      -2.767  13.535  23.799  0.00  0.00    +0.000 A 
ATOM     29  C   UNL     1      -1.536  14.169  23.677  0.00  0.00    +0.000 A 
ATOM     30  N   UNL     1      -0.606  13.902  22.770  0.00  0.00    +0.000 NA
ATOM     31  N   UNL     1      -1.166  15.105  24.653  0.00  0.00    +0.000 N 
ATOM     32  C   UNL     1      -2.020  16.238  24.438  0.00  0.00    +0.000 C 
ATOM     33  C   UNL     1      -3.432  15.837  24.874  0.00  0.00    +0.000 C 
ATOM     34  C   UNL     1      -3.790  14.300  24.632  0.00  0.00    +0.000 C 
ATOM     35  H   UNL     1      -1.383  14.655  25.544  0.00  0.00    +0.000 HD
ENDBRANCH  24  25
ENDBRANCH  23  24
ENDBRANCH  22  23
ENDBRANCH   6  22
TORSDOF 9
ENDMDL
