MODEL 1
REMARK VINA RESULT:      -5.2      0.000      0.000
REMARK  Name = 
REMARK  13 active torsions:
REMARK  status: ('A' for Active; 'I' for Inactive)
REMARK    1  A    between atoms: C_1  and  C_2
REMARK    2  A    between atoms: C_2  and  C_3
REMARK    3  A    between atoms: C_3  and  C_4
REMARK    4  A    between atoms: C_4  and  C_5
REMARK    5  A    between atoms: C_6  and  C_7
REMARK    6  A    between atoms: C_7  and  C_8
REMARK    7  A    between atoms: C_8  and  C_9
REMARK    8  A    between atoms: C_9  and  C_10
REMARK    9  A    between atoms: C_10  and  C_11
REMARK   10  A    between atoms: C_11  and  C_12
REMARK   11  A    between atoms: C_12  and  C_13
REMARK   12  A    between atoms: C_13  and  C_14
REMARK   13  A    between atoms: C_14  and  O_15
REMARK                            x       y       z     vdW  Elec       q    Type
REMARK                         _______ _______ _______ _____ _____    ______ ____
ROOT
ATOM      1  C   UNL     1       4.006   5.798  18.734  0.00  0.00    +0.000 C 
ENDROOT
BRANCH   1   2
ATOM      2  C   UNL     1       3.661   4.382  18.259  0.00  0.00    +0.000 C 
BRANCH   2   4
ATOM      3  C   UNL     1       1.296   3.596  17.840  0.00  0.00    +0.000 C 
ATOM      4  C   UNL     1       2.369   4.322  17.487  0.00  0.00    +0.000 C 
BRANCH   3   5
ATOM      5  C   UNL     1       1.245   2.760  19.081  0.00  0.00    +0.000 C 
BRANCH   5   6
ATOM      6  C   UNL     1       0.858   3.553  20.323  0.00  0.00    +0.000 C 
BRANCH   6   8
ATOM      7  C   UNL     1       2.832   2.581  21.543  0.00  0.00    +0.000 C 
ATOM      8  C   UNL     1       1.335   2.813  21.573  0.00  0.00    +0.000 C 
ENDBRANCH   6   8
ENDBRANCH   5   6
ENDBRANCH   3   5
ENDBRANCH   2   4
ENDBRANCH   1   2
BRANCH   1   9
ATOM      9  C   UNL     1       3.856   6.889  17.669  0.00  0.00    +0.000 C 
BRANCH   9  10
ATOM     10  C   UNL     1       4.833   6.699  16.511  0.00  0.00    +0.000 C 
BRANCH  10  11
ATOM     11  C   UNL     1       6.285   6.750  16.972  0.00  0.00    +0.000 C 
BRANCH  11  12
ATOM     12  C   UNL     1       6.991   5.447  16.603  0.00  0.00    +0.000 C 
BRANCH  12  13
ATOM     13  C   UNL     1       7.582   4.771  17.831  0.00  0.00    +0.000 C 
BRANCH  13  14
ATOM     14  C   UNL     1       7.852   5.782  18.936  0.00  0.00    +0.000 C 
BRANCH  14  15
ATOM     15  O   UNL     1       7.277   5.325  20.152  0.00  0.00    +0.000 OA
ATOM     16  H   UNL     1       6.392   4.981  19.944  0.00  0.00    +0.000 HD
ENDBRANCH  14  15
ENDBRANCH  13  14
ENDBRANCH  12  13
ENDBRANCH  11  12
ENDBRANCH  10  11
ENDBRANCH   9  10
ENDBRANCH   1   9
TORSDOF 12
ENDMDL
MODEL 2
REMARK VINA RESULT:      -5.1      1.697      5.488
REMARK  Name = 
REMARK  13 active torsions:
REMARK  status: ('A' for Active; 'I' for Inactive)
REMARK    1  A    between atoms: C_1  and  C_2
REMARK    2  A    between atoms: C_2  and  C_3
REMARK    3  A    between atoms: C_3  and  C_4
REMARK    4  A    between atoms: C_4  and  C_5
REMARK    5  A    between atoms: C_6  and  C_7
REMARK    6  A    between atoms: C_7  and  C_8
REMARK    7  A    between atoms: C_8  and  C_9
REMARK    8  A    between atoms: C_9  and  C_10
REMARK    9  A    between atoms: C_10  and  C_11
REMARK   10  A    between atoms: C_11  and  C_12
REMARK   11  A    between atoms: C_12  and  C_13
REMARK   12  A    between atoms: C_13  and  C_14
REMARK   13  A    between atoms: C_14  and  O_15
REMARK                            x       y       z     vdW  Elec       q    Type
REMARK                         _______ _______ _______ _____ _____    ______ ____
ROOT
ATOM      1  C   UNL     1       2.532   5.810  19.990  0.00  0.00    +0.000 C 
ENDROOT
BRANCH   1   2
ATOM      2  C   UNL     1       3.887   5.689  19.285  0.00  0.00    +0.000 C 
BRANCH   2   4
ATOM      3  C   UNL     1       4.639   5.696  16.872  0.00  0.00    +0.000 C 
ATOM      4  C   UNL     1       3.848   6.158  17.854  0.00  0.00    +0.000 C 
BRANCH   3   5
ATOM      5  C   UNL     1       5.661   4.622  17.080  0.00  0.00    +0.000 C 
BRANCH   5   6
ATOM      6  C   UNL     1       7.079   5.070  16.747  0.00  0.00    +0.000 C 
BRANCH   6   8
ATOM      7  C   UNL     1       7.897   6.439  18.693  0.00  0.00    +0.000 C 
ATOM      8  C   UNL     1       7.313   6.477  17.295  0.00  0.00    +0.000 C 
ENDBRANCH   6   8
ENDBRANCH   5   6
ENDBRANCH   3   5
ENDBRANCH   2   4
ENDBRANCH   1   2
BRANCH   1   9
ATOM      9  C   UNL     1       2.173   4.632  20.901  0.00  0.00    +0.000 C 
BRANCH   9  10
ATOM     10  C   UNL     1       0.946   3.873  20.402  0.00  0.00    +0.000 C 
BRANCH  10  11
ATOM     11  C   UNL     1       1.318   2.537  19.769  0.00  0.00    +0.000 C 
BRANCH  11  12
ATOM     12  C   UNL     1       1.543   2.721  18.269  0.00  0.00    +0.000 C 
BRANCH  12  13
ATOM     13  C   UNL     1       2.980   2.408  17.882  0.00  0.00    +0.000 C 
BRANCH  13  14
ATOM     14  C   UNL     1       3.644   1.513  18.919  0.00  0.00    +0.000 C 
BRANCH  14  15
ATOM     15  O   UNL     1       4.764   2.181  19.480  0.00  0.00    +0.000 OA
ATOM     16  H   UNL     1       4.911   2.990  18.960  0.00  0.00    +0.000 HD
ENDBRANCH  14  15
ENDBRANCH  13  14
ENDBRANCH  12  13
ENDBRANCH  11  12
ENDBRANCH  10  11
ENDBRANCH   9  10
ENDBRANCH   1   9
TORSDOF 12
ENDMDL
MODEL 3
REMARK VINA RESULT:      -5.1      1.828      5.826
REMARK  Name = 
REMARK  13 active torsions:
REMARK  status: ('A' for Active; 'I' for Inactive)
REMARK    1  A    between atoms: C_1  and  C_2
REMARK    2  A    between atoms: C_2  and  C_3
REMARK    3  A    between atoms: C_3  and  C_4
REMARK    4  A    between atoms: C_4  and  C_5
REMARK    5  A    between atoms: C_6  and  C_7
REMARK    6  A    between atoms: C_7  and  C_8
REMARK    7  A    between atoms: C_8  and  C_9
REMARK    8  A    between atoms: C_9  and  C_10
REMARK    9  A    between atoms: C_10  and  C_11
REMARK   10  A    between atoms: C_11  and  C_12
REMARK   11  A    between atoms: C_12  and  C_13
REMARK   12  A    between atoms: C_13  and  C_14
REMARK   13  A    between atoms: C_14  and  O_15
REMARK                            x       y       z     vdW  Elec       q    Type
REMARK                         _______ _______ _______ _____ _____    ______ ____
ROOT
ATOM      1  C   UNL     1       4.984   3.581  18.655  0.00  0.00    +0.000 C 
ENDROOT
BRANCH   1   2
ATOM      2  C   UNL     1       5.212   4.999  19.190  0.00  0.00    +0.000 C 
BRANCH   2   4
ATOM      3  C   UNL     1       6.707   6.414  17.723  0.00  0.00    +0.000 C 
ATOM      4  C   UNL     1       6.534   5.582  18.763  0.00  0.00    +0.000 C 
BRANCH   3   5
ATOM      5  C   UNL     1       5.581   6.892  16.859  0.00  0.00    +0.000 C 
BRANCH   5   6
ATOM      6  C   UNL     1       5.368   6.030  15.620  0.00  0.00    +0.000 C 
BRANCH   6   8
ATOM      7  C   UNL     1       6.250   3.920  14.571  0.00  0.00    +0.000 C 
ATOM      8  C   UNL     1       6.594   5.145  15.395  0.00  0.00    +0.000 C 
ENDBRANCH   6   8
ENDBRANCH   5   6
ENDBRANCH   3   5
ENDBRANCH   2   4
ENDBRANCH   1   2
BRANCH   1   9
ATOM      9  C   UNL     1       3.816   3.443  17.674  0.00  0.00    +0.000 C 
BRANCH   9  10
ATOM     10  C   UNL     1       2.842   4.615  17.773  0.00  0.00    +0.000 C 
BRANCH  10  11
ATOM     11  C   UNL     1       1.407   4.149  17.993  0.00  0.00    +0.000 C 
BRANCH  11  12
ATOM     12  C   UNL     1       1.342   3.239  19.218  0.00  0.00    +0.000 C 
BRANCH  12  13
ATOM     13  C   UNL     1       1.093   4.038  20.489  0.00  0.00    +0.000 C 
BRANCH  13  14
ATOM     14  C   UNL     1       2.100   3.675  21.571  0.00  0.00    +0.000 C 
BRANCH  14  15
ATOM     15  O   UNL     1       2.879   2.566  21.146  0.00  0.00    +0.000 OA
ATOM     16  H   UNL     1       3.279   2.170  21.938  0.00  0.00    +0.000 HD
ENDBRANCH  14  15
ENDBRANCH  13  14
ENDBRANCH  12  13
ENDBRANCH  11  12
ENDBRANCH  10  11
ENDBRANCH   9  10
ENDBRANCH   1   9
TORSDOF 12
ENDMDL
MODEL 4
REMARK VINA RESULT:      -5.0      1.283      1.619
REMARK  Name = 
REMARK  13 active torsions:
REMARK  status: ('A' for Active; 'I' for Inactive)
REMARK    1  A    between atoms: C_1  and  C_2
REMARK    2  A    between atoms: C_2  and  C_3
REMARK    3  A    between atoms: C_3  and  C_4
REMARK    4  A    between atoms: C_4  and  C_5
REMARK    5  A    between atoms: C_6  and  C_7
REMARK    6  A    between atoms: C_7  and  C_8
REMARK    7  A    between atoms: C_8  and  C_9
REMARK    8  A    between atoms: C_9  and  C_10
REMARK    9  A    between atoms: C_10  and  C_11
REMARK   10  A    between atoms: C_11  and  C_12
REMARK   11  A    between atoms: C_12  and  C_13
REMARK   12  A    between atoms: C_13  and  C_14
REMARK   13  A    between atoms: C_14  and  O_15
REMARK                            x       y       z     vdW  Elec       q    Type
REMARK                         _______ _______ _______ _____ _____    ______ ____
ROOT
ATOM      1  C   UNL     1       4.631   4.174  18.994  0.00  0.00    +0.000 C 
ENDROOT
BRANCH   1   2
ATOM      2  C   UNL     1       4.350   2.672  19.113  0.00  0.00    +0.000 C 
BRANCH   2   4
ATOM      3  C   UNL     1       2.218   1.905  17.993  0.00  0.00    +0.000 C 
ATOM      4  C   UNL     1       3.541   2.134  17.963  0.00  0.00    +0.000 C 
BRANCH   3   5
ATOM      5  C   UNL     1       1.366   2.187  19.192  0.00  0.00    +0.000 C 
BRANCH   5   6
ATOM      6  C   UNL     1       0.975   3.654  19.320  0.00  0.00    +0.000 C 
BRANCH   6   8
ATOM      7  C   UNL     1       1.555   3.018  21.684  0.00  0.00    +0.000 C 
ATOM      8  C   UNL     1       1.343   4.163  20.713  0.00  0.00    +0.000 C 
ENDBRANCH   6   8
ENDBRANCH   5   6
ENDBRANCH   3   5
ENDBRANCH   2   4
ENDBRANCH   1   2
BRANCH   1   9
ATOM      9  C   UNL     1       4.353   4.773  17.612  0.00  0.00    +0.000 C 
BRANCH   9  10
ATOM     10  C   UNL     1       4.401   6.299  17.628  0.00  0.00    +0.000 C 
BRANCH  10  11
ATOM     11  C   UNL     1       5.407   6.851  16.625  0.00  0.00    +0.000 C 
BRANCH  11  12
ATOM     12  C   UNL     1       6.762   6.176  16.829  0.00  0.00    +0.000 C 
BRANCH  12  13
ATOM     13  C   UNL     1       7.523   6.802  17.988  0.00  0.00    +0.000 C 
BRANCH  13  14
ATOM     14  C   UNL     1       7.895   5.755  19.029  0.00  0.00    +0.000 C 
BRANCH  14  15
ATOM     15  O   UNL     1       7.942   4.473  18.420  0.00  0.00    +0.000 OA
ATOM     16  H   UNL     1       8.833   4.112  18.569  0.00  0.00    +0.000 HD
ENDBRANCH  14  15
ENDBRANCH  13  14
ENDBRANCH  12  13
ENDBRANCH  11  12
ENDBRANCH  10  11
ENDBRANCH   9  10
ENDBRANCH   1   9
TORSDOF 12
ENDMDL
MODEL 5
REMARK VINA RESULT:      -5.0      2.473      3.066
REMARK  Name = 
REMARK  13 active torsions:
REMARK  status: ('A' for Active; 'I' for Inactive)
REMARK    1  A    between atoms: C_1  and  C_2
REMARK    2  A    between atoms: C_2  and  C_3
REMARK    3  A    between atoms: C_3  and  C_4
REMARK    4  A    between atoms: C_4  and  C_5
REMARK    5  A    between atoms: C_6  and  C_7
REMARK    6  A    between atoms: C_7  and  C_8
REMARK    7  A    between atoms: C_8  and  C_9
REMARK    8  A    between atoms: C_9  and  C_10
REMARK    9  A    between atoms: C_10  and  C_11
REMARK   10  A    between atoms: C_11  and  C_12
REMARK   11  A    between atoms: C_12  and  C_13
REMARK   12  A    between atoms: C_13  and  C_14
REMARK   13  A    between atoms: C_14  and  O_15
REMARK                            x       y       z     vdW  Elec       q    Type
REMARK                         _______ _______ _______ _____ _____    ______ ____
ROOT
ATOM      1  C   UNL     1       5.099   4.481  19.363  0.00  0.00    +0.000 C 
ENDROOT
BRANCH   1   2
ATOM      2  C   UNL     1       4.354   3.821  18.197  0.00  0.00    +0.000 C 
BRANCH   2   4
ATOM      3  C   UNL     1       1.923   4.460  17.934  0.00  0.00    +0.000 C 
ATOM      4  C   UNL     1       3.223   4.665  17.670  0.00  0.00    +0.000 C 
BRANCH   3   5
ATOM      5  C   UNL     1       1.431   3.358  18.821  0.00  0.00    +0.000 C 
BRANCH   5   6
ATOM      6  C   UNL     1       0.841   3.862  20.132  0.00  0.00    +0.000 C 
BRANCH   6   8
ATOM      7  C   UNL     1       2.699   2.744  21.408  0.00  0.00    +0.000 C 
ATOM      8  C   UNL     1       1.198   2.894  21.260  0.00  0.00    +0.000 C 
ENDBRANCH   6   8
ENDBRANCH   5   6
ENDBRANCH   3   5
ENDBRANCH   2   4
ENDBRANCH   1   2
BRANCH   1   9
ATOM      9  C   UNL     1       6.293   5.349  18.955  0.00  0.00    +0.000 C 
BRANCH   9  10
ATOM     10  C   UNL     1       7.007   4.800  17.721  0.00  0.00    +0.000 C 
BRANCH  10  11
ATOM     11  C   UNL     1       7.125   5.843  16.616  0.00  0.00    +0.000 C 
BRANCH  11  12
ATOM     12  C   UNL     1       6.146   5.515  15.490  0.00  0.00    +0.000 C 
BRANCH  12  13
ATOM     13  C   UNL     1       6.829   4.745  14.370  0.00  0.00    +0.000 C 
BRANCH  13  14
ATOM     14  C   UNL     1       5.860   3.784  13.695  0.00  0.00    +0.000 C 
BRANCH  14  15
ATOM     15  O   UNL     1       6.484   3.194  12.564  0.00  0.00    +0.000 OA
ATOM     16  H   UNL     1       5.855   3.248  11.824  0.00  0.00    +0.000 HD
ENDBRANCH  14  15
ENDBRANCH  13  14
ENDBRANCH  12  13
ENDBRANCH  11  12
ENDBRANCH  10  11
ENDBRANCH   9  10
ENDBRANCH   1   9
TORSDOF 12
ENDMDL
MODEL 6
REMARK VINA RESULT:      -5.0      2.305      2.850
REMARK  Name = 
REMARK  13 active torsions:
REMARK  status: ('A' for Active; 'I' for Inactive)
REMARK    1  A    between atoms: C_1  and  C_2
REMARK    2  A    between atoms: C_2  and  C_3
REMARK    3  A    between atoms: C_3  and  C_4
REMARK    4  A    between atoms: C_4  and  C_5
REMARK    5  A    between atoms: C_6  and  C_7
REMARK    6  A    between atoms: C_7  and  C_8
REMARK    7  A    between atoms: C_8  and  C_9
REMARK    8  A    between atoms: C_9  and  C_10
REMARK    9  A    between atoms: C_10  and  C_11
REMARK   10  A    between atoms: C_11  and  C_12
REMARK   11  A    between atoms: C_12  and  C_13
REMARK   12  A    between atoms: C_13  and  C_14
REMARK   13  A    between atoms: C_14  and  O_15
REMARK                            x       y       z     vdW  Elec       q    Type
REMARK                         _______ _______ _______ _____ _____    ______ ____
ROOT
ATOM      1  C   UNL     1       3.293   4.204  17.240  0.00  0.00    +0.000 C 
ENDROOT
BRANCH   1   2
ATOM      2  C   UNL     1       3.790   3.102  18.181  0.00  0.00    +0.000 C 
BRANCH   2   4
ATOM      3  C   UNL     1       1.625   1.952  18.798  0.00  0.00    +0.000 C 
ATOM      4  C   UNL     1       2.853   1.925  18.254  0.00  0.00    +0.000 C 
BRANCH   3   5
ATOM      5  C   UNL     1       1.018   3.186  19.389  0.00  0.00    +0.000 C 
BRANCH   5   6
ATOM      6  C   UNL     1       1.284   3.329  20.883  0.00  0.00    +0.000 C 
BRANCH   6   8
ATOM      7  C   UNL     1       1.814   5.768  20.568  0.00  0.00    +0.000 C 
ATOM      8  C   UNL     1       2.303   4.443  21.118  0.00  0.00    +0.000 C 
ENDBRANCH   6   8
ENDBRANCH   5   6
ENDBRANCH   3   5
ENDBRANCH   2   4
ENDBRANCH   1   2
BRANCH   1   9
ATOM      9  C   UNL     1       3.964   5.567  17.433  0.00  0.00    +0.000 C 
BRANCH   9  10
ATOM     10  C   UNL     1       5.216   5.473  18.303  0.00  0.00    +0.000 C 
BRANCH  10  11
ATOM     11  C   UNL     1       6.477   5.846  17.533  0.00  0.00    +0.000 C 
BRANCH  11  12
ATOM     12  C   UNL     1       7.046   4.607  16.843  0.00  0.00    +0.000 C 
BRANCH  12  13
ATOM     13  C   UNL     1       7.120   4.798  15.335  0.00  0.00    +0.000 C 
BRANCH  13  14
ATOM     14  C   UNL     1       5.932   4.147  14.641  0.00  0.00    +0.000 C 
BRANCH  14  15
ATOM     15  O   UNL     1       6.393   3.307  13.593  0.00  0.00    +0.000 OA
ATOM     16  H   UNL     1       7.064   2.713  13.970  0.00  0.00    +0.000 HD
ENDBRANCH  14  15
ENDBRANCH  13  14
ENDBRANCH  12  13
ENDBRANCH  11  12
ENDBRANCH  10  11
ENDBRANCH   9  10
ENDBRANCH   1   9
TORSDOF 12
ENDMDL
MODEL 7
REMARK VINA RESULT:      -5.0      1.997      5.755
REMARK  Name = 
REMARK  13 active torsions:
REMARK  status: ('A' for Active; 'I' for Inactive)
REMARK    1  A    between atoms: C_1  and  C_2
REMARK    2  A    between atoms: C_2  and  C_3
REMARK    3  A    between atoms: C_3  and  C_4
REMARK    4  A    between atoms: C_4  and  C_5
REMARK    5  A    between atoms: C_6  and  C_7
REMARK    6  A    between atoms: C_7  and  C_8
REMARK    7  A    between atoms: C_8  and  C_9
REMARK    8  A    between atoms: C_9  and  C_10
REMARK    9  A    between atoms: C_10  and  C_11
REMARK   10  A    between atoms: C_11  and  C_12
REMARK   11  A    between atoms: C_12  and  C_13
REMARK   12  A    between atoms: C_13  and  C_14
REMARK   13  A    between atoms: C_14  and  O_15
REMARK                            x       y       z     vdW  Elec       q    Type
REMARK                         _______ _______ _______ _____ _____    ______ ____
ROOT
ATOM      1  C   UNL     1       1.965   5.768  20.256  0.00  0.00    +0.000 C 
ENDROOT
BRANCH   1   2
ATOM      2  C   UNL     1       2.972   6.032  19.132  0.00  0.00    +0.000 C 
BRANCH   2   4
ATOM      3  C   UNL     1       5.386   5.513  18.592  0.00  0.00    +0.000 C 
ATOM      4  C   UNL     1       4.298   5.353  19.361  0.00  0.00    +0.000 C 
BRANCH   3   5
ATOM      5  C   UNL     1       5.422   6.421  17.402  0.00  0.00    +0.000 C 
BRANCH   5   6
ATOM      6  C   UNL     1       5.112   5.707  16.092  0.00  0.00    +0.000 C 
BRANCH   6   8
ATOM      7  C   UNL     1       6.068   4.163  14.351  0.00  0.00    +0.000 C 
ATOM      8  C   UNL     1       6.346   4.935  15.625  0.00  0.00    +0.000 C 
ENDBRANCH   6   8
ENDBRANCH   5   6
ENDBRANCH   3   5
ENDBRANCH   2   4
ENDBRANCH   1   2
BRANCH   1   9
ATOM      9  C   UNL     1       2.281   4.551  21.131  0.00  0.00    +0.000 C 
BRANCH   9  10
ATOM     10  C   UNL     1       1.238   3.447  20.979  0.00  0.00    +0.000 C 
BRANCH  10  11
ATOM     11  C   UNL     1       1.736   2.306  20.098  0.00  0.00    +0.000 C 
BRANCH  11  12
ATOM     12  C   UNL     1       1.152   2.446  18.694  0.00  0.00    +0.000 C 
BRANCH  12  13
ATOM     13  C   UNL     1       2.243   2.699  17.664  0.00  0.00    +0.000 C 
BRANCH  13  14
ATOM     14  C   UNL     1       3.497   1.898  17.985  0.00  0.00    +0.000 C 
BRANCH  14  15
ATOM     15  O   UNL     1       4.591   2.404  17.235  0.00  0.00    +0.000 OA
ATOM     16  H   UNL     1       5.404   2.040  17.625  0.00  0.00    +0.000 HD
ENDBRANCH  14  15
ENDBRANCH  13  14
ENDBRANCH  12  13
ENDBRANCH  11  12
ENDBRANCH  10  11
ENDBRANCH   9  10
ENDBRANCH   1   9
TORSDOF 12
ENDMDL
MODEL 8
REMARK VINA RESULT:      -4.9      1.920      5.610
REMARK  Name = 
REMARK  13 active torsions:
REMARK  status: ('A' for Active; 'I' for Inactive)
REMARK    1  A    between atoms: C_1  and  C_2
REMARK    2  A    between atoms: C_2  and  C_3
REMARK    3  A    between atoms: C_3  and  C_4
REMARK    4  A    between atoms: C_4  and  C_5
REMARK    5  A    between atoms: C_6  and  C_7
REMARK    6  A    between atoms: C_7  and  C_8
REMARK    7  A    between atoms: C_8  and  C_9
REMARK    8  A    between atoms: C_9  and  C_10
REMARK    9  A    between atoms: C_10  and  C_11
REMARK   10  A    between atoms: C_11  and  C_12
REMARK   11  A    between atoms: C_12  and  C_13
REMARK   12  A    between atoms: C_13  and  C_14
REMARK   13  A    between atoms: C_14  and  O_15
REMARK                            x       y       z     vdW  Elec       q    Type
REMARK                         _______ _______ _______ _____ _____    ______ ____
ROOT
ATOM      1  C   UNL     1       2.098   5.536  18.381  0.00  0.00    +0.000 C 
ENDROOT
BRANCH   1   2
ATOM      2  C   UNL     1       3.477   5.986  17.888  0.00  0.00    +0.000 C 
BRANCH   2   4
ATOM      3  C   UNL     1       5.456   4.438  17.609  0.00  0.00    +0.000 C 
ATOM      4  C   UNL     1       4.249   4.880  17.218  0.00  0.00    +0.000 C 
BRANCH   3   5
ATOM      5  C   UNL     1       6.184   4.988  18.797  0.00  0.00    +0.000 C 
BRANCH   5   6
ATOM      6  C   UNL     1       7.673   5.192  18.545  0.00  0.00    +0.000 C 
BRANCH   6   8
ATOM      7  C   UNL     1       7.458   7.469  17.497  0.00  0.00    +0.000 C 
ATOM      8  C   UNL     1       8.013   6.678  18.664  0.00  0.00    +0.000 C 
ENDBRANCH   6   8
ENDBRANCH   5   6
ENDBRANCH   3   5
ENDBRANCH   2   4
ENDBRANCH   1   2
BRANCH   1   9
ATOM      9  C   UNL     1       1.883   5.663  19.893  0.00  0.00    +0.000 C 
BRANCH   9  10
ATOM     10  C   UNL     1       1.182   4.438  20.477  0.00  0.00    +0.000 C 
BRANCH  10  11
ATOM     11  C   UNL     1       2.055   3.707  21.489  0.00  0.00    +0.000 C 
BRANCH  11  12
ATOM     12  C   UNL     1       2.980   2.732  20.763  0.00  0.00    +0.000 C 
BRANCH  12  13
ATOM     13  C   UNL     1       2.321   2.171  19.512  0.00  0.00    +0.000 C 
BRANCH  13  14
ATOM     14  C   UNL     1       3.349   1.527  18.592  0.00  0.00    +0.000 C 
BRANCH  14  15
ATOM     15  O   UNL     1       4.581   1.378  19.283  0.00  0.00    +0.000 OA
ATOM     16  H   UNL     1       4.700   0.431  19.464  0.00  0.00    +0.000 HD
ENDBRANCH  14  15
ENDBRANCH  13  14
ENDBRANCH  12  13
ENDBRANCH  11  12
ENDBRANCH  10  11
ENDBRANCH   9  10
ENDBRANCH   1   9
TORSDOF 12
ENDMDL
MODEL 9
REMARK VINA RESULT:      -4.9      2.630      3.933
REMARK  Name = 
REMARK  13 active torsions:
REMARK  status: ('A' for Active; 'I' for Inactive)
REMARK    1  A    between atoms: C_1  and  C_2
REMARK    2  A    between atoms: C_2  and  C_3
REMARK    3  A    between atoms: C_3  and  C_4
REMARK    4  A    between atoms: C_4  and  C_5
REMARK    5  A    between atoms: C_6  and  C_7
REMARK    6  A    between atoms: C_7  and  C_8
REMARK    7  A    between atoms: C_8  and  C_9
REMARK    8  A    between atoms: C_9  and  C_10
REMARK    9  A    between atoms: C_10  and  C_11
REMARK   10  A    between atoms: C_11  and  C_12
REMARK   11  A    between atoms: C_12  and  C_13
REMARK   12  A    between atoms: C_13  and  C_14
REMARK   13  A    between atoms: C_14  and  O_15
REMARK                            x       y       z     vdW  Elec       q    Type
REMARK                         _______ _______ _______ _____ _____    ______ ____
ROOT
ATOM      1  C   UNL     1       4.834   4.090  17.144  0.00  0.00    +0.000 C 
ENDROOT
BRANCH   1   2
ATOM      2  C   UNL     1       4.331   3.314  18.366  0.00  0.00    +0.000 C 
BRANCH   2   4
ATOM      3  C   UNL     1       2.187   2.029  17.991  0.00  0.00    +0.000 C 
ATOM      4  C   UNL     1       3.528   2.094  17.998  0.00  0.00    +0.000 C 
BRANCH   3   5
ATOM      5  C   UNL     1       1.309   3.193  18.333  0.00  0.00    +0.000 C 
BRANCH   5   6
ATOM      6  C   UNL     1       0.614   3.044  19.681  0.00  0.00    +0.000 C 
BRANCH   6   8
ATOM      7  C   UNL     1       2.257   3.173  21.581  0.00  0.00    +0.000 C 
ATOM      8  C   UNL     1       1.291   3.949  20.709  0.00  0.00    +0.000 C 
ENDBRANCH   6   8
ENDBRANCH   5   6
ENDBRANCH   3   5
ENDBRANCH   2   4
ENDBRANCH   1   2
BRANCH   1   9
ATOM      9  C   UNL     1       4.476   5.579  17.134  0.00  0.00    +0.000 C 
BRANCH   9  10
ATOM     10  C   UNL     1       3.716   5.995  18.391  0.00  0.00    +0.000 C 
BRANCH  10  11
ATOM     11  C   UNL     1       2.394   6.678  18.061  0.00  0.00    +0.000 C 
BRANCH  11  12
ATOM     12  C   UNL     1       2.210   7.905  18.954  0.00  0.00    +0.000 C 
BRANCH  12  13
ATOM     13  C   UNL     1       1.876   7.504  20.383  0.00  0.00    +0.000 C 
BRANCH  13  14
ATOM     14  C   UNL     1       1.146   8.624  21.110  0.00  0.00    +0.000 C 
BRANCH  14  15
ATOM     15  O   UNL     1       1.818   8.923  22.325  0.00  0.00    +0.000 OA
ATOM     16  H   UNL     1       2.405   9.679  22.155  0.00  0.00    +0.000 HD
ENDBRANCH  14  15
ENDBRANCH  13  14
ENDBRANCH  12  13
ENDBRANCH  11  12
ENDBRANCH  10  11
ENDBRANCH   9  10
ENDBRANCH   1   9
TORSDOF 12
ENDMDL
