MODEL 1
REMARK VINA RESULT:      -7.7      0.000      0.000
REMARK  Name = 
REMARK  3 active torsions:
REMARK  status: ('A' for Active; 'I' for Inactive)
REMARK    1  A    between atoms: C_2  and  C_3
REMARK    2  A    between atoms: N_15  and  C_16
REMARK    3  A    between atoms: C_16  and  C_17
REMARK                            x       y       z     vdW  Elec       q    Type
REMARK                         _______ _______ _______ _____ _____    ______ ____
ROOT
ATOM      1  O   UNL     1      -0.510   8.516  21.960  0.00  0.00    +0.000 OA
ATOM      2  C   UNL     1       0.200   8.889  21.026  0.00  0.00    +0.000 C 
ATOM      3  N   UNL     1       1.194   8.091  20.452  0.00  0.00    +0.000 N 
ATOM      4  C   UNL     1       1.479   6.792  21.070  0.00  0.00    +0.000 C 
ATOM      5  C   UNL     1       1.500   5.677  20.022  0.00  0.00    +0.000 C 
ATOM      6  C   UNL     1       2.467   5.976  18.848  0.00  0.00    +0.000 C 
ATOM      7  C   UNL     1       3.945   6.021  19.314  0.00  0.00    +0.000 C 
ATOM      8  C   UNL     1       4.490   4.634  19.654  0.00  0.00    +0.000 C 
ATOM      9  N   UNL     1       4.361   3.678  18.547  0.00  0.00    +0.000 NA
ATOM     10  C   UNL     1       2.954   3.564  18.133  0.00  0.00    +0.000 C 
ATOM     11  C   UNL     1       2.319   4.903  17.744  0.00  0.00    +0.000 C 
ATOM     12  C   UNL     1       2.065   7.335  18.254  0.00  0.00    +0.000 C 
ATOM     13  C   UNL     1       2.028   8.442  19.300  0.00  0.00    +0.000 C 
ENDROOT
BRANCH   2  14
ATOM     14  C   UNL     1      -0.084  10.227  20.456  0.00  0.00    +0.000 A 
ATOM     15  C   UNL     1      -0.970  10.410  19.397  0.00  0.00    +0.000 A 
ATOM     16  C   UNL     1      -1.299  11.706  19.052  0.00  0.00    +0.000 A 
ATOM     17  N   UNL     1      -0.741  12.795  19.619  0.00  0.00    +0.000 NA
ATOM     18  C   UNL     1       0.199  12.583  20.568  0.00  0.00    +0.000 A 
ATOM     19  C   UNL     1       0.552  11.328  21.027  0.00  0.00    +0.000 A 
ENDBRANCH   2  14
BRANCH   9  20
ATOM     20  C   UNL     1       5.234   3.994  17.399  0.00  0.00    +0.000 C 
BRANCH  20  21
ATOM     21  C   UNL     1       6.182   5.144  17.657  0.00  0.00    +0.000 A 
ATOM     22  C   UNL     1       6.068   6.333  16.924  0.00  0.00    +0.000 A 
ATOM     23  C   UNL     1       6.942   7.395  17.153  0.00  0.00    +0.000 A 
ATOM     24  C   UNL     1       7.943   7.277  18.115  0.00  0.00    +0.000 A 
ATOM     25  C   UNL     1       8.072   6.098  18.847  0.00  0.00    +0.000 A 
ATOM     26  C   UNL     1       7.195   5.036  18.622  0.00  0.00    +0.000 A 
ENDBRANCH  20  21
ENDBRANCH   9  20
TORSDOF 3
ENDMDL
MODEL 2
REMARK VINA RESULT:      -7.6      0.442      1.023
REMARK  Name = 
REMARK  3 active torsions:
REMARK  status: ('A' for Active; 'I' for Inactive)
REMARK    1  A    between atoms: C_2  and  C_3
REMARK    2  A    between atoms: N_15  and  C_16
REMARK    3  A    between atoms: C_16  and  C_17
REMARK                            x       y       z     vdW  Elec       q    Type
REMARK                         _______ _______ _______ _____ _____    ______ ____
ROOT
ATOM      1  O   UNL     1      -0.303   8.594  22.024  0.00  0.00    +0.000 OA
ATOM      2  C   UNL     1       0.379   8.903  21.047  0.00  0.00    +0.000 C 
ATOM      3  N   UNL     1       1.286   8.031  20.439  0.00  0.00    +0.000 N 
ATOM      4  C   UNL     1       1.519   6.726  21.068  0.00  0.00    +0.000 C 
ATOM      5  C   UNL     1       1.411   5.594  20.045  0.00  0.00    +0.000 C 
ATOM      6  C   UNL     1       2.332   5.808  18.816  0.00  0.00    +0.000 C 
ATOM      7  C   UNL     1       3.833   5.763  19.203  0.00  0.00    +0.000 C 
ATOM      8  C   UNL     1       4.303   4.349  19.544  0.00  0.00    +0.000 C 
ATOM      9  N   UNL     1       4.053   3.384  18.465  0.00  0.00    +0.000 NA
ATOM     10  C   UNL     1       2.622   3.356  18.127  0.00  0.00    +0.000 C 
ATOM     11  C   UNL     1       2.055   4.727  17.744  0.00  0.00    +0.000 C 
ATOM     12  C   UNL     1       1.988   7.180  18.215  0.00  0.00    +0.000 C 
ATOM     13  C   UNL     1       2.079   8.305  19.238  0.00  0.00    +0.000 C 
ENDROOT
BRANCH   2  14
ATOM     14  C   UNL     1       0.152  10.246  20.463  0.00  0.00    +0.000 A 
ATOM     15  C   UNL     1       0.873  11.365  20.874  0.00  0.00    +0.000 A 
ATOM     16  C   UNL     1       0.714  12.531  20.153  0.00  0.00    +0.000 A 
ATOM     17  N   UNL     1      -0.167  12.669  19.141  0.00  0.00    +0.000 NA
ATOM     18  C   UNL     1      -0.932  11.596  18.838  0.00  0.00    +0.000 A 
ATOM     19  C   UNL     1      -0.804  10.368  19.457  0.00  0.00    +0.000 A 
ENDBRANCH   2  14
BRANCH   9  20
ATOM     20  C   UNL     1       4.882   3.621  17.268  0.00  0.00    +0.000 C 
BRANCH  20  21
ATOM     21  C   UNL     1       5.812   4.807  17.399  0.00  0.00    +0.000 A 
ATOM     22  C   UNL     1       5.542   5.997  16.711  0.00  0.00    +0.000 A 
ATOM     23  C   UNL     1       6.399   7.092  16.823  0.00  0.00    +0.000 A 
ATOM     24  C   UNL     1       7.538   7.005  17.622  0.00  0.00    +0.000 A 
ATOM     25  C   UNL     1       7.822   5.824  18.306  0.00  0.00    +0.000 A 
ATOM     26  C   UNL     1       6.963   4.730  18.197  0.00  0.00    +0.000 A 
ENDBRANCH  20  21
ENDBRANCH   9  20
TORSDOF 3
ENDMDL
MODEL 3
REMARK VINA RESULT:      -7.6      0.314      1.357
REMARK  Name = 
REMARK  3 active torsions:
REMARK  status: ('A' for Active; 'I' for Inactive)
REMARK    1  A    between atoms: C_2  and  C_3
REMARK    2  A    between atoms: N_15  and  C_16
REMARK    3  A    between atoms: C_16  and  C_17
REMARK                            x       y       z     vdW  Elec       q    Type
REMARK                         _______ _______ _______ _____ _____    ______ ____
ROOT
ATOM      1  O   UNL     1      -0.532   8.876  21.893  0.00  0.00    +0.000 OA
ATOM      2  C   UNL     1       0.171   9.193  20.933  0.00  0.00    +0.000 C 
ATOM      3  N   UNL     1       1.148   8.354  20.389  0.00  0.00    +0.000 N 
ATOM      4  C   UNL     1       1.424   7.083  21.067  0.00  0.00    +0.000 C 
ATOM      5  C   UNL     1       1.417   5.917  20.077  0.00  0.00    +0.000 C 
ATOM      6  C   UNL     1       2.375   6.145  18.878  0.00  0.00    +0.000 C 
ATOM      7  C   UNL     1       3.859   6.193  19.324  0.00  0.00    +0.000 C 
ATOM      8  C   UNL     1       4.390   4.817  19.727  0.00  0.00    +0.000 C 
ATOM      9  N   UNL     1       4.235   3.809  18.671  0.00  0.00    +0.000 NA
ATOM     10  C   UNL     1       2.822   3.693  18.279  0.00  0.00    +0.000 C 
ATOM     11  C   UNL     1       2.199   5.019  17.831  0.00  0.00    +0.000 C 
ATOM     12  C   UNL     1       1.982   7.478  18.221  0.00  0.00    +0.000 C 
ATOM     13  C   UNL     1       1.972   8.636  19.211  0.00  0.00    +0.000 C 
ENDROOT
BRANCH   2  14
ATOM     14  C   UNL     1      -0.103  10.504  20.300  0.00  0.00    +0.000 A 
ATOM     15  C   UNL     1       0.585  11.661  20.660  0.00  0.00    +0.000 A 
ATOM     16  C   UNL     1       0.382  12.792  19.895  0.00  0.00    +0.000 A 
ATOM     17  N   UNL     1      -0.510  12.862  18.886  0.00  0.00    +0.000 NA
ATOM     18  C   UNL     1      -1.243  11.754  18.633  0.00  0.00    +0.000 A 
ATOM     19  C   UNL     1      -1.070  10.556  19.298  0.00  0.00    +0.000 A 
ENDBRANCH   2  14
BRANCH   9  20
ATOM     20  C   UNL     1       5.098   4.055  17.499  0.00  0.00    +0.000 C 
BRANCH  20  21
ATOM     21  C   UNL     1       6.092   5.177  17.703  0.00  0.00    +0.000 A 
ATOM     22  C   UNL     1       7.094   5.066  18.677  0.00  0.00    +0.000 A 
ATOM     23  C   UNL     1       8.010   6.100  18.874  0.00  0.00    +0.000 A 
ATOM     24  C   UNL     1       7.929   7.257  18.101  0.00  0.00    +0.000 A 
ATOM     25  C   UNL     1       6.934   7.383  17.134  0.00  0.00    +0.000 A 
ATOM     26  C   UNL     1       6.020   6.348  16.933  0.00  0.00    +0.000 A 
ENDBRANCH  20  21
ENDBRANCH   9  20
TORSDOF 3
ENDMDL
MODEL 4
REMARK VINA RESULT:      -7.5      2.330      8.746
REMARK  Name = 
REMARK  3 active torsions:
REMARK  status: ('A' for Active; 'I' for Inactive)
REMARK    1  A    between atoms: C_2  and  C_3
REMARK    2  A    between atoms: N_15  and  C_16
REMARK    3  A    between atoms: C_16  and  C_17
REMARK                            x       y       z     vdW  Elec       q    Type
REMARK                         _______ _______ _______ _____ _____    ______ ____
ROOT
ATOM      1  O   UNL     1       3.719   5.580  19.961  0.00  0.00    +0.000 OA
ATOM      2  C   UNL     1       3.366   6.141  18.924  0.00  0.00    +0.000 C 
ATOM      3  N   UNL     1       2.406   7.157  18.891  0.00  0.00    +0.000 N 
ATOM      4  C   UNL     1       1.707   7.488  20.137  0.00  0.00    +0.000 C 
ATOM      5  C   UNL     1       1.721   8.997  20.392  0.00  0.00    +0.000 C 
ATOM      6  C   UNL     1       1.170   9.812  19.194  0.00  0.00    +0.000 C 
ATOM      7  C   UNL     1      -0.335   9.532  18.946  0.00  0.00    +0.000 C 
ATOM      8  C   UNL     1      -1.226  10.154  20.020  0.00  0.00    +0.000 C 
ATOM      9  N   UNL     1      -1.022  11.601  20.169  0.00  0.00    +0.000 NA
ATOM     10  C   UNL     1       0.387  11.889  20.475  0.00  0.00    +0.000 C 
ATOM     11  C   UNL     1       1.366  11.326  19.440  0.00  0.00    +0.000 C 
ATOM     12  C   UNL     1       1.987   9.417  17.953  0.00  0.00    +0.000 C 
ATOM     13  C   UNL     1       1.986   7.913  17.708  0.00  0.00    +0.000 C 
ENDROOT
BRANCH   2  14
ATOM     14  C   UNL     1       4.060   5.749  17.675  0.00  0.00    +0.000 A 
ATOM     15  C   UNL     1       4.801   6.656  16.922  0.00  0.00    +0.000 A 
ATOM     16  C   UNL     1       5.551   6.159  15.874  0.00  0.00    +0.000 A 
ATOM     17  N   UNL     1       5.528   4.868  15.485  0.00  0.00    +0.000 NA
ATOM     18  C   UNL     1       4.711   4.033  16.168  0.00  0.00    +0.000 A 
ATOM     19  C   UNL     1       3.971   4.419  17.268  0.00  0.00    +0.000 A 
ENDBRANCH   2  14
BRANCH   9  20
ATOM     20  C   UNL     1      -1.488  12.378  19.003  0.00  0.00    +0.000 C 
BRANCH  20  21
ATOM     21  C   UNL     1      -2.887  12.018  18.554  0.00  0.00    +0.000 A 
ATOM     22  C   UNL     1      -3.099  11.442  17.295  0.00  0.00    +0.000 A 
ATOM     23  C   UNL     1      -4.387  11.113  16.872  0.00  0.00    +0.000 A 
ATOM     24  C   UNL     1      -5.477  11.362  17.704  0.00  0.00    +0.000 A 
ATOM     25  C   UNL     1      -5.281  11.941  18.957  0.00  0.00    +0.000 A 
ATOM     26  C   UNL     1      -3.992  12.267  19.382  0.00  0.00    +0.000 A 
ENDBRANCH  20  21
ENDBRANCH   9  20
TORSDOF 3
ENDMDL
MODEL 5
REMARK VINA RESULT:      -7.3      2.369      8.706
REMARK  Name = 
REMARK  3 active torsions:
REMARK  status: ('A' for Active; 'I' for Inactive)
REMARK    1  A    between atoms: C_2  and  C_3
REMARK    2  A    between atoms: N_15  and  C_16
REMARK    3  A    between atoms: C_16  and  C_17
REMARK                            x       y       z     vdW  Elec       q    Type
REMARK                         _______ _______ _______ _____ _____    ______ ____
ROOT
ATOM      1  O   UNL     1       3.834   5.485  19.932  0.00  0.00    +0.000 OA
ATOM      2  C   UNL     1       3.512   6.050  18.887  0.00  0.00    +0.000 C 
ATOM      3  N   UNL     1       2.544   7.057  18.828  0.00  0.00    +0.000 N 
ATOM      4  C   UNL     1       1.797   7.372  20.051  0.00  0.00    +0.000 C 
ATOM      5  C   UNL     1       1.787   8.878  20.318  0.00  0.00    +0.000 C 
ATOM      6  C   UNL     1       1.270   9.697  19.107  0.00  0.00    +0.000 C 
ATOM      7  C   UNL     1      -0.221   9.404  18.804  0.00  0.00    +0.000 C 
ATOM      8  C   UNL     1      -1.157  10.009  19.851  0.00  0.00    +0.000 C 
ATOM      9  N   UNL     1      -0.973  11.456  20.017  0.00  0.00    +0.000 NA
ATOM     10  C   UNL     1       0.421  11.756  20.375  0.00  0.00    +0.000 C 
ATOM     11  C   UNL     1       1.442  11.211  19.372  0.00  0.00    +0.000 C 
ATOM     12  C   UNL     1       2.135   9.320  17.893  0.00  0.00    +0.000 C 
ATOM     13  C   UNL     1       2.158   7.818  17.637  0.00  0.00    +0.000 C 
ENDROOT
BRANCH   2  14
ATOM     14  C   UNL     1       4.254   5.676  17.661  0.00  0.00    +0.000 A 
ATOM     15  C   UNL     1       4.370   4.354  17.238  0.00  0.00    +0.000 A 
ATOM     16  C   UNL     1       4.929   4.124  15.996  0.00  0.00    +0.000 A 
ATOM     17  N   UNL     1       5.450   5.096  15.220  0.00  0.00    +0.000 NA
ATOM     18  C   UNL     1       5.422   6.357  15.708  0.00  0.00    +0.000 A 
ATOM     19  C   UNL     1       4.830   6.698  16.909  0.00  0.00    +0.000 A 
ENDBRANCH   2  14
BRANCH   9  20
ATOM     20  C   UNL     1      -1.405  12.238  18.842  0.00  0.00    +0.000 C 
BRANCH  20  21
ATOM     21  C   UNL     1      -2.830  11.956  18.416  0.00  0.00    +0.000 A 
ATOM     22  C   UNL     1      -3.892  12.197  19.298  0.00  0.00    +0.000 A 
ATOM     23  C   UNL     1      -5.207  11.934  18.913  0.00  0.00    +0.000 A 
ATOM     24  C   UNL     1      -5.471  11.423  17.644  0.00  0.00    +0.000 A 
ATOM     25  C   UNL     1      -4.423  11.172  16.760  0.00  0.00    +0.000 A 
ATOM     26  C   UNL     1      -3.108  11.439  17.142  0.00  0.00    +0.000 A 
ENDBRANCH  20  21
ENDBRANCH   9  20
TORSDOF 3
ENDMDL
MODEL 6
REMARK VINA RESULT:      -7.1      2.943      9.333
REMARK  Name = 
REMARK  3 active torsions:
REMARK  status: ('A' for Active; 'I' for Inactive)
REMARK    1  A    between atoms: C_2  and  C_3
REMARK    2  A    between atoms: N_15  and  C_16
REMARK    3  A    between atoms: C_16  and  C_17
REMARK                            x       y       z     vdW  Elec       q    Type
REMARK                         _______ _______ _______ _____ _____    ______ ____
ROOT
ATOM      1  O   UNL     1       2.998   7.815  16.700  0.00  0.00    +0.000 OA
ATOM      2  C   UNL     1       2.761   7.523  17.872  0.00  0.00    +0.000 C 
ATOM      3  N   UNL     1       2.204   8.421  18.788  0.00  0.00    +0.000 N 
ATOM      4  C   UNL     1       2.003   9.810  18.359  0.00  0.00    +0.000 C 
ATOM      5  C   UNL     1       0.584  10.285  18.682  0.00  0.00    +0.000 C 
ATOM      6  C   UNL     1       0.213  10.088  20.175  0.00  0.00    +0.000 C 
ATOM      7  C   UNL     1       1.079  10.971  21.109  0.00  0.00    +0.000 C 
ATOM      8  C   UNL     1       0.708  12.451  21.019  0.00  0.00    +0.000 C 
ATOM      9  N   UNL     1      -0.712  12.705  21.294  0.00  0.00    +0.000 NA
ATOM     10  C   UNL     1      -1.557  11.931  20.372  0.00  0.00    +0.000 C 
ATOM     11  C   UNL     1      -1.280  10.425  20.404  0.00  0.00    +0.000 C 
ATOM     12  C   UNL     1       0.427   8.603  20.511  0.00  0.00    +0.000 C 
ATOM     13  C   UNL     1       1.834   8.126  20.174  0.00  0.00    +0.000 C 
ENDROOT
BRANCH   2  14
ATOM     14  C   UNL     1       3.020   6.124  18.285  0.00  0.00    +0.000 A 
ATOM     15  C   UNL     1       2.052   5.128  18.182  0.00  0.00    +0.000 A 
ATOM     16  C   UNL     1       2.442   3.827  18.427  0.00  0.00    +0.000 A 
ATOM     17  N   UNL     1       3.676   3.483  18.850  0.00  0.00    +0.000 NA
ATOM     18  C   UNL     1       4.562   4.486  19.046  0.00  0.00    +0.000 A 
ATOM     19  C   UNL     1       4.289   5.812  18.770  0.00  0.00    +0.000 A 
ENDBRANCH   2  14
BRANCH   9  20
ATOM     20  C   UNL     1      -1.087  12.458  22.700  0.00  0.00    +0.000 C 
BRANCH  20  21
ATOM     21  C   UNL     1      -2.419  13.062  23.088  0.00  0.00    +0.000 A 
ATOM     22  C   UNL     1      -2.670  14.422  22.869  0.00  0.00    +0.000 A 
ATOM     23  C   UNL     1      -3.894  14.986  23.230  0.00  0.00    +0.000 A 
ATOM     24  C   UNL     1      -4.878  14.193  23.818  0.00  0.00    +0.000 A 
ATOM     25  C   UNL     1      -4.639  12.839  24.048  0.00  0.00    +0.000 A 
ATOM     26  C   UNL     1      -3.416  12.274  23.683  0.00  0.00    +0.000 A 
ENDBRANCH  20  21
ENDBRANCH   9  20
TORSDOF 3
ENDMDL
MODEL 7
REMARK VINA RESULT:      -7.0      2.965      9.439
REMARK  Name = 
REMARK  3 active torsions:
REMARK  status: ('A' for Active; 'I' for Inactive)
REMARK    1  A    between atoms: C_2  and  C_3
REMARK    2  A    between atoms: N_15  and  C_16
REMARK    3  A    between atoms: C_16  and  C_17
REMARK                            x       y       z     vdW  Elec       q    Type
REMARK                         _______ _______ _______ _____ _____    ______ ____
ROOT
ATOM      1  O   UNL     1       2.845   7.941  16.791  0.00  0.00    +0.000 OA
ATOM      2  C   UNL     1       2.593   7.675  17.966  0.00  0.00    +0.000 C 
ATOM      3  N   UNL     1       2.072   8.608  18.868  0.00  0.00    +0.000 N 
ATOM      4  C   UNL     1       1.929   9.997  18.420  0.00  0.00    +0.000 C 
ATOM      5  C   UNL     1       0.531  10.535  18.732  0.00  0.00    +0.000 C 
ATOM      6  C   UNL     1       0.147  10.374  20.226  0.00  0.00    +0.000 C 
ATOM      7  C   UNL     1       1.047  11.234  21.150  0.00  0.00    +0.000 C 
ATOM      8  C   UNL     1       0.737  12.727  21.038  0.00  0.00    +0.000 C 
ATOM      9  N   UNL     1      -0.672  13.043  21.305  0.00  0.00    +0.000 NA
ATOM     10  C   UNL     1      -1.545  12.292  20.391  0.00  0.00    +0.000 C 
ATOM     11  C   UNL     1      -1.330  10.776  20.445  0.00  0.00    +0.000 C 
ATOM     12  C   UNL     1       0.299   8.887  20.583  0.00  0.00    +0.000 C 
ATOM     13  C   UNL     1       1.686   8.347  20.257  0.00  0.00    +0.000 C 
ENDROOT
BRANCH   2  14
ATOM     14  C   UNL     1       2.794   6.272  18.399  0.00  0.00    +0.000 A 
ATOM     15  C   UNL     1       3.904   5.875  19.140  0.00  0.00    +0.000 A 
ATOM     16  C   UNL     1       3.914   4.589  19.642  0.00  0.00    +0.000 A 
ATOM     17  N   UNL     1       2.958   3.675  19.376  0.00  0.00    +0.000 NA
ATOM     18  C   UNL     1       1.949   4.059  18.562  0.00  0.00    +0.000 A 
ATOM     19  C   UNL     1       1.815   5.339  18.060  0.00  0.00    +0.000 A 
ENDBRANCH   2  14
BRANCH   9  20
ATOM     20  C   UNL     1      -1.060  12.831  22.714  0.00  0.00    +0.000 C 
BRANCH  20  21
ATOM     21  C   UNL     1      -2.446  13.339  23.044  0.00  0.00    +0.000 A 
ATOM     22  C   UNL     1      -3.417  12.466  23.550  0.00  0.00    +0.000 A 
ATOM     23  C   UNL     1      -4.699  12.927  23.851  0.00  0.00    +0.000 A 
ATOM     24  C   UNL     1      -5.023  14.266  23.644  0.00  0.00    +0.000 A 
ATOM     25  C   UNL     1      -4.068  15.144  23.134  0.00  0.00    +0.000 A 
ATOM     26  C   UNL     1      -2.784  14.685  22.837  0.00  0.00    +0.000 A 
ENDBRANCH  20  21
ENDBRANCH   9  20
TORSDOF 3
ENDMDL
MODEL 8
REMARK VINA RESULT:      -7.0      2.773      9.081
REMARK  Name = 
REMARK  3 active torsions:
REMARK  status: ('A' for Active; 'I' for Inactive)
REMARK    1  A    between atoms: C_2  and  C_3
REMARK    2  A    between atoms: N_15  and  C_16
REMARK    3  A    between atoms: C_16  and  C_17
REMARK                            x       y       z     vdW  Elec       q    Type
REMARK                         _______ _______ _______ _____ _____    ______ ____
ROOT
ATOM      1  O   UNL     1       2.856   6.126  17.724  0.00  0.00    +0.000 OA
ATOM      2  C   UNL     1       2.498   6.256  18.895  0.00  0.00    +0.000 C 
ATOM      3  N   UNL     1       2.083   7.475  19.438  0.00  0.00    +0.000 N 
ATOM      4  C   UNL     1       2.190   8.676  18.604  0.00  0.00    +0.000 C 
ATOM      5  C   UNL     1       0.881   9.468  18.608  0.00  0.00    +0.000 C 
ATOM      6  C   UNL     1       0.392   9.809  20.039  0.00  0.00    +0.000 C 
ATOM      7  C   UNL     1       1.364  10.771  20.769  0.00  0.00    +0.000 C 
ATOM      8  C   UNL     1       1.304  12.192  20.210  0.00  0.00    +0.000 C 
ATOM      9  N   UNL     1      -0.048  12.763  20.232  0.00  0.00    +0.000 NA
ATOM     10  C   UNL     1      -0.978  11.903  19.485  0.00  0.00    +0.000 C 
ATOM     11  C   UNL     1      -1.012  10.456  19.986  0.00  0.00    +0.000 C 
ATOM     12  C   UNL     1       0.283   8.487  20.816  0.00  0.00    +0.000 C 
ATOM     13  C   UNL     1       1.582   7.690  20.798  0.00  0.00    +0.000 C 
ENDROOT
BRANCH   2  14
ATOM     14  C   UNL     1       2.446   5.029  19.724  0.00  0.00    +0.000 A 
ATOM     15  C   UNL     1       1.308   4.664  20.440  0.00  0.00    +0.000 A 
ATOM     16  C   UNL     1       1.299   3.421  21.040  0.00  0.00    +0.000 A 
ATOM     17  N   UNL     1       2.359   2.588  21.050  0.00  0.00    +0.000 NA
ATOM     18  C   UNL     1       3.487   3.019  20.441  0.00  0.00    +0.000 A 
ATOM     19  C   UNL     1       3.578   4.217  19.760  0.00  0.00    +0.000 A 
ENDBRANCH   2  14
BRANCH   9  20
ATOM     20  C   UNL     1      -0.545  13.031  21.596  0.00  0.00    +0.000 C 
BRANCH  20  21
ATOM     21  C   UNL     1      -1.983  13.499  21.637  0.00  0.00    +0.000 A 
ATOM     22  C   UNL     1      -2.959  12.730  22.284  0.00  0.00    +0.000 A 
ATOM     23  C   UNL     1      -4.288  13.153  22.320  0.00  0.00    +0.000 A 
ATOM     24  C   UNL     1      -4.654  14.349  21.705  0.00  0.00    +0.000 A 
ATOM     25  C   UNL     1      -3.694  15.121  21.053  0.00  0.00    +0.000 A 
ATOM     26  C   UNL     1      -2.364  14.700  21.020  0.00  0.00    +0.000 A 
ENDBRANCH  20  21
ENDBRANCH   9  20
TORSDOF 3
ENDMDL
MODEL 9
REMARK VINA RESULT:      -7.0      2.703      9.182
REMARK  Name = 
REMARK  3 active torsions:
REMARK  status: ('A' for Active; 'I' for Inactive)
REMARK    1  A    between atoms: C_2  and  C_3
REMARK    2  A    between atoms: N_15  and  C_16
REMARK    3  A    between atoms: C_16  and  C_17
REMARK                            x       y       z     vdW  Elec       q    Type
REMARK                         _______ _______ _______ _____ _____    ______ ____
ROOT
ATOM      1  O   UNL     1       2.838   6.447  17.762  0.00  0.00    +0.000 OA
ATOM      2  C   UNL     1       2.491   6.507  18.942  0.00  0.00    +0.000 C 
ATOM      3  N   UNL     1       2.040   7.683  19.549  0.00  0.00    +0.000 N 
ATOM      4  C   UNL     1       2.093   8.927  18.773  0.00  0.00    +0.000 C 
ATOM      5  C   UNL     1       0.756   9.669  18.831  0.00  0.00    +0.000 C 
ATOM      6  C   UNL     1       0.275   9.922  20.283  0.00  0.00    +0.000 C 
ATOM      7  C   UNL     1       1.221  10.883  21.047  0.00  0.00    +0.000 C 
ATOM      8  C   UNL     1       1.104  12.326  20.558  0.00  0.00    +0.000 C 
ATOM      9  N   UNL     1      -0.268  12.846  20.625  0.00  0.00    +0.000 NA
ATOM     10  C   UNL     1      -1.176  11.990  19.847  0.00  0.00    +0.000 C 
ATOM     11  C   UNL     1      -1.152  10.520  20.278  0.00  0.00    +0.000 C 
ATOM     12  C   UNL     1       0.223   8.561  20.995  0.00  0.00    +0.000 C 
ATOM     13  C   UNL     1       1.549   7.814  20.923  0.00  0.00    +0.000 C 
ENDROOT
BRANCH   2  14
ATOM     14  C   UNL     1       2.494   5.241  19.711  0.00  0.00    +0.000 A 
ATOM     15  C   UNL     1       1.400   4.830  20.469  0.00  0.00    +0.000 A 
ATOM     16  C   UNL     1       1.433   3.559  21.006  0.00  0.00    +0.000 A 
ATOM     17  N   UNL     1       2.498   2.737  20.917  0.00  0.00    +0.000 NA
ATOM     18  C   UNL     1       3.588   3.209  20.270  0.00  0.00    +0.000 A 
ATOM     19  C   UNL     1       3.632   4.440  19.644  0.00  0.00    +0.000 A 
ENDBRANCH   2  14
BRANCH   9  20
ATOM     20  C   UNL     1      -0.756  13.030  22.006  0.00  0.00    +0.000 C 
BRANCH  20  21
ATOM     21  C   UNL     1      -2.190  13.504  22.085  0.00  0.00    +0.000 A 
ATOM     22  C   UNL     1      -2.552  14.753  21.564  0.00  0.00    +0.000 A 
ATOM     23  C   UNL     1      -3.872  15.198  21.639  0.00  0.00    +0.000 A 
ATOM     24  C   UNL     1      -4.842  14.399  22.241  0.00  0.00    +0.000 A 
ATOM     25  C   UNL     1      -4.495  13.156  22.769  0.00  0.00    +0.000 A 
ATOM     26  C   UNL     1      -3.175  12.709  22.690  0.00  0.00    +0.000 A 
ENDBRANCH  20  21
ENDBRANCH   9  20
TORSDOF 3
ENDMDL
