MODEL 1
REMARK VINA RESULT:      -5.5      0.000      0.000
REMARK  Name = 
REMARK  3 active torsions:
REMARK  status: ('A' for Active; 'I' for Inactive)
REMARK    1  A    between atoms: N_4  and  C_5
REMARK    2  A    between atoms: C_5  and  C_6
REMARK    3  A    between atoms: C_6  and  C_7
REMARK                            x       y       z     vdW  Elec       q    Type
REMARK                         _______ _______ _______ _____ _____    ______ ____
ROOT
ATOM      1  N   UNL     1       8.209   4.138  17.667  0.00  0.00    +0.000 NA
ATOM      2  C   UNL     1       7.188   4.610  17.046  0.00  0.00    +0.000 C 
ATOM      3  N   UNL     1       7.320   5.806  16.280  0.00  0.00    +0.000 N 
ATOM      4  N   UNL     1       5.941   3.923  17.133  0.00  0.00    +0.000 N 
ATOM      5  H   UNL     1       9.129   4.601  17.628  0.00  0.00    +0.000 HD
ATOM      6  H   UNL     1       8.227   6.289  16.222  0.00  0.00    +0.000 HD
ATOM      7  H   UNL     1       6.523   6.211  15.771  0.00  0.00    +0.000 HD
ATOM      8  H   UNL     1       5.897   3.052  17.687  0.00  0.00    +0.000 HD
ENDROOT
BRANCH   4   9
ATOM      9  C   UNL     1       4.746   4.414  16.476  0.00  0.00    +0.000 C 
BRANCH   9  10
ATOM     10  C   UNL     1       3.869   5.222  17.438  0.00  0.00    +0.000 C 
BRANCH  10  11
ATOM     11  C   UNL     1       2.957   4.307  18.201  0.00  0.00    +0.000 A 
ATOM     12  C   UNL     1       1.728   3.830  17.766  0.00  0.00    +0.000 A 
ATOM     13  C   UNL     1       1.099   3.000  18.702  0.00  0.00    +0.000 A 
ATOM     14  C   UNL     1       1.831   2.822  19.869  0.00  0.00    +0.000 A 
ATOM     15  S   UNL     1       3.262   3.695  19.740  0.00  0.00    +0.000 S 
ENDBRANCH  10  11
ENDBRANCH   9  10
ENDBRANCH   4   9
TORSDOF 3
ENDMDL
MODEL 2
REMARK VINA RESULT:      -5.3      1.159      1.328
REMARK  Name = 
REMARK  3 active torsions:
REMARK  status: ('A' for Active; 'I' for Inactive)
REMARK    1  A    between atoms: N_4  and  C_5
REMARK    2  A    between atoms: C_5  and  C_6
REMARK    3  A    between atoms: C_6  and  C_7
REMARK                            x       y       z     vdW  Elec       q    Type
REMARK                         _______ _______ _______ _____ _____    ______ ____
ROOT
ATOM      1  N   UNL     1       8.169   4.117  17.614  0.00  0.00    +0.000 NA
ATOM      2  C   UNL     1       7.091   4.659  17.171  0.00  0.00    +0.000 C 
ATOM      3  N   UNL     1       7.174   5.757  16.266  0.00  0.00    +0.000 N 
ATOM      4  N   UNL     1       5.830   4.144  17.595  0.00  0.00    +0.000 N 
ATOM      5  H   UNL     1       9.100   4.456  17.332  0.00  0.00    +0.000 HD
ATOM      6  H   UNL     1       8.092   6.115  15.965  0.00  0.00    +0.000 HD
ATOM      7  H   UNL     1       6.332   6.213  15.892  0.00  0.00    +0.000 HD
ATOM      8  H   UNL     1       5.818   3.337  18.240  0.00  0.00    +0.000 HD
ENDROOT
BRANCH   4   9
ATOM      9  C   UNL     1       4.577   4.723  17.152  0.00  0.00    +0.000 C 
BRANCH   9  10
ATOM     10  C   UNL     1       3.466   3.670  17.081  0.00  0.00    +0.000 C 
BRANCH  10  11
ATOM     11  C   UNL     1       2.573   3.777  18.282  0.00  0.00    +0.000 A 
ATOM     12  C   UNL     1       2.507   4.853  19.158  0.00  0.00    +0.000 A 
ATOM     13  C   UNL     1       1.586   4.662  20.194  0.00  0.00    +0.000 A 
ATOM     14  C   UNL     1       0.926   3.441  20.134  0.00  0.00    +0.000 A 
ATOM     15  S   UNL     1       1.487   2.596  18.792  0.00  0.00    +0.000 S 
ENDBRANCH  10  11
ENDBRANCH   9  10
ENDBRANCH   4   9
TORSDOF 3
ENDMDL
MODEL 3
REMARK VINA RESULT:      -5.3      2.188      2.885
REMARK  Name = 
REMARK  3 active torsions:
REMARK  status: ('A' for Active; 'I' for Inactive)
REMARK    1  A    between atoms: N_4  and  C_5
REMARK    2  A    between atoms: C_5  and  C_6
REMARK    3  A    between atoms: C_6  and  C_7
REMARK                            x       y       z     vdW  Elec       q    Type
REMARK                         _______ _______ _______ _____ _____    ______ ____
ROOT
ATOM      1  N   UNL     1       7.972   5.384  20.312  0.00  0.00    +0.000 NA
ATOM      2  C   UNL     1       7.774   5.581  19.057  0.00  0.00    +0.000 C 
ATOM      3  N   UNL     1       8.003   6.875  18.502  0.00  0.00    +0.000 N 
ATOM      4  N   UNL     1       7.332   4.496  18.244  0.00  0.00    +0.000 N 
ATOM      5  H   UNL     1       8.294   6.140  20.934  0.00  0.00    +0.000 HD
ATOM      6  H   UNL     1       8.326   7.648  19.101  0.00  0.00    +0.000 HD
ATOM      7  H   UNL     1       7.854   7.067  17.503  0.00  0.00    +0.000 HD
ATOM      8  H   UNL     1       7.194   3.573  18.687  0.00  0.00    +0.000 HD
ENDROOT
BRANCH   4   9
ATOM      9  C   UNL     1       7.068   4.656  16.828  0.00  0.00    +0.000 C 
BRANCH   9  10
ATOM     10  C   UNL     1       5.680   4.128  16.452  0.00  0.00    +0.000 C 
BRANCH  10  11
ATOM     11  C   UNL     1       4.614   4.985  17.072  0.00  0.00    +0.000 A 
ATOM     12  C   UNL     1       3.465   4.529  17.704  0.00  0.00    +0.000 A 
ATOM     13  C   UNL     1       2.651   5.565  18.176  0.00  0.00    +0.000 A 
ATOM     14  C   UNL     1       3.157   6.833  17.918  0.00  0.00    +0.000 A 
ATOM     15  S   UNL     1       4.619   6.668  17.104  0.00  0.00    +0.000 S 
ENDBRANCH  10  11
ENDBRANCH   9  10
ENDBRANCH   4   9
TORSDOF 3
ENDMDL
MODEL 4
REMARK VINA RESULT:      -5.3      1.152      1.277
REMARK  Name = 
REMARK  3 active torsions:
REMARK  status: ('A' for Active; 'I' for Inactive)
REMARK    1  A    between atoms: N_4  and  C_5
REMARK    2  A    between atoms: C_5  and  C_6
REMARK    3  A    between atoms: C_6  and  C_7
REMARK                            x       y       z     vdW  Elec       q    Type
REMARK                         _______ _______ _______ _____ _____    ______ ____
ROOT
ATOM      1  N   UNL     1       8.188   4.086  17.592  0.00  0.00    +0.000 NA
ATOM      2  C   UNL     1       7.226   4.834  18.002  0.00  0.00    +0.000 C 
ATOM      3  N   UNL     1       7.295   6.243  17.801  0.00  0.00    +0.000 N 
ATOM      4  N   UNL     1       6.105   4.233  18.648  0.00  0.00    +0.000 N 
ATOM      5  H   UNL     1       9.014   4.479  17.118  0.00  0.00    +0.000 HD
ATOM      6  H   UNL     1       8.108   6.663  17.329  0.00  0.00    +0.000 HD
ATOM      7  H   UNL     1       6.543   6.870  18.117  0.00  0.00    +0.000 HD
ATOM      8  H   UNL     1       6.092   3.205  18.758  0.00  0.00    +0.000 HD
ENDROOT
BRANCH   4   9
ATOM      9  C   UNL     1       4.999   5.019  19.155  0.00  0.00    +0.000 C 
BRANCH   9  10
ATOM     10  C   UNL     1       3.783   4.944  18.225  0.00  0.00    +0.000 C 
BRANCH  10  11
ATOM     11  C   UNL     1       2.689   4.143  18.867  0.00  0.00    +0.000 A 
ATOM     12  C   UNL     1       1.767   3.342  18.206  0.00  0.00    +0.000 A 
ATOM     13  C   UNL     1       0.856   2.724  19.070  0.00  0.00    +0.000 A 
ATOM     14  C   UNL     1       1.060   3.035  20.409  0.00  0.00    +0.000 A 
ATOM     15  S   UNL     1       2.375   4.078  20.520  0.00  0.00    +0.000 S 
ENDBRANCH  10  11
ENDBRANCH   9  10
ENDBRANCH   4   9
TORSDOF 3
ENDMDL
MODEL 5
REMARK VINA RESULT:      -5.1      1.189      1.486
REMARK  Name = 
REMARK  3 active torsions:
REMARK  status: ('A' for Active; 'I' for Inactive)
REMARK    1  A    between atoms: N_4  and  C_5
REMARK    2  A    between atoms: C_5  and  C_6
REMARK    3  A    between atoms: C_6  and  C_7
REMARK                            x       y       z     vdW  Elec       q    Type
REMARK                         _______ _______ _______ _____ _____    ______ ____
ROOT
ATOM      1  N   UNL     1       7.829   4.223  16.811  0.00  0.00    +0.000 NA
ATOM      2  C   UNL     1       6.721   4.520  17.391  0.00  0.00    +0.000 C 
ATOM      3  N   UNL     1       6.578   4.299  18.793  0.00  0.00    +0.000 N 
ATOM      4  N   UNL     1       5.656   5.068  16.617  0.00  0.00    +0.000 N 
ATOM      5  H   UNL     1       8.625   3.828  17.333  0.00  0.00    +0.000 HD
ATOM      6  H   UNL     1       7.358   3.907  19.340  0.00  0.00    +0.000 HD
ATOM      7  H   UNL     1       5.706   4.525  19.288  0.00  0.00    +0.000 HD
ATOM      8  H   UNL     1       5.810   5.224  15.607  0.00  0.00    +0.000 HD
ENDROOT
BRANCH   4   9
ATOM      9  C   UNL     1       4.374   5.403  17.204  0.00  0.00    +0.000 C 
BRANCH   9  10
ATOM     10  C   UNL     1       3.443   4.187  17.249  0.00  0.00    +0.000 C 
BRANCH  10  11
ATOM     11  C   UNL     1       2.654   4.185  18.526  0.00  0.00    +0.000 A 
ATOM     12  C   UNL     1       1.463   3.506  18.750  0.00  0.00    +0.000 A 
ATOM     13  C   UNL     1       0.953   3.702  20.038  0.00  0.00    +0.000 A 
ATOM     14  C   UNL     1       1.740   4.531  20.828  0.00  0.00    +0.000 A 
ATOM     15  S   UNL     1       3.072   5.021  19.926  0.00  0.00    +0.000 S 
ENDBRANCH  10  11
ENDBRANCH   9  10
ENDBRANCH   4   9
TORSDOF 3
ENDMDL
MODEL 6
REMARK VINA RESULT:      -5.1      1.303      1.545
REMARK  Name = 
REMARK  3 active torsions:
REMARK  status: ('A' for Active; 'I' for Inactive)
REMARK    1  A    between atoms: N_4  and  C_5
REMARK    2  A    between atoms: C_5  and  C_6
REMARK    3  A    between atoms: C_6  and  C_7
REMARK                            x       y       z     vdW  Elec       q    Type
REMARK                         _______ _______ _______ _____ _____    ______ ____
ROOT
ATOM      1  N   UNL     1       7.888   4.229  17.720  0.00  0.00    +0.000 NA
ATOM      2  C   UNL     1       6.647   4.511  17.901  0.00  0.00    +0.000 C 
ATOM      3  N   UNL     1       6.274   5.410  18.942  0.00  0.00    +0.000 N 
ATOM      4  N   UNL     1       5.668   3.918  17.050  0.00  0.00    +0.000 N 
ATOM      5  H   UNL     1       8.628   4.637  18.309  0.00  0.00    +0.000 HD
ATOM      6  H   UNL     1       6.993   5.834  19.546  0.00  0.00    +0.000 HD
ATOM      7  H   UNL     1       5.291   5.657  19.115  0.00  0.00    +0.000 HD
ATOM      8  H   UNL     1       5.986   3.283  16.299  0.00  0.00    +0.000 HD
ENDROOT
BRANCH   4   9
ATOM      9  C   UNL     1       4.251   4.175  17.216  0.00  0.00    +0.000 C 
BRANCH   9  10
ATOM     10  C   UNL     1       3.500   2.916  17.663  0.00  0.00    +0.000 C 
BRANCH  10  11
ATOM     11  C   UNL     1       2.716   3.197  18.911  0.00  0.00    +0.000 A 
ATOM     12  C   UNL     1       1.482   3.833  18.974  0.00  0.00    +0.000 A 
ATOM     13  C   UNL     1       0.999   3.963  20.281  0.00  0.00    +0.000 A 
ATOM     14  C   UNL     1       1.846   3.429  21.244  0.00  0.00    +0.000 A 
ATOM     15  S   UNL     1       3.199   2.794  20.472  0.00  0.00    +0.000 S 
ENDBRANCH  10  11
ENDBRANCH   9  10
ENDBRANCH   4   9
TORSDOF 3
ENDMDL
MODEL 7
REMARK VINA RESULT:      -5.1      1.658      1.896
REMARK  Name = 
REMARK  3 active torsions:
REMARK  status: ('A' for Active; 'I' for Inactive)
REMARK    1  A    between atoms: N_4  and  C_5
REMARK    2  A    between atoms: C_5  and  C_6
REMARK    3  A    between atoms: C_6  and  C_7
REMARK                            x       y       z     vdW  Elec       q    Type
REMARK                         _______ _______ _______ _____ _____    ______ ____
ROOT
ATOM      1  N   UNL     1       8.269   5.548  19.804  0.00  0.00    +0.000 NA
ATOM      2  C   UNL     1       7.450   5.007  18.974  0.00  0.00    +0.000 C 
ATOM      3  N   UNL     1       7.951   4.385  17.793  0.00  0.00    +0.000 N 
ATOM      4  N   UNL     1       6.052   5.037  19.257  0.00  0.00    +0.000 N 
ATOM      5  H   UNL     1       9.286   5.545  19.640  0.00  0.00    +0.000 HD
ATOM      6  H   UNL     1       8.964   4.366  17.604  0.00  0.00    +0.000 HD
ATOM      7  H   UNL     1       7.324   3.943  17.108  0.00  0.00    +0.000 HD
ATOM      8  H   UNL     1       5.736   5.486  20.132  0.00  0.00    +0.000 HD
ENDROOT
BRANCH   4   9
ATOM      9  C   UNL     1       5.074   4.467  18.352  0.00  0.00    +0.000 C 
BRANCH   9  10
ATOM     10  C   UNL     1       3.758   5.251  18.382  0.00  0.00    +0.000 C 
BRANCH  10  11
ATOM     11  C   UNL     1       2.632   4.358  18.815  0.00  0.00    +0.000 A 
ATOM     12  C   UNL     1       1.807   4.558  19.914  0.00  0.00    +0.000 A 
ATOM     13  C   UNL     1       0.850   3.549  20.073  0.00  0.00    +0.000 A 
ATOM     14  C   UNL     1       0.918   2.559  19.101  0.00  0.00    +0.000 A 
ATOM     15  S   UNL     1       2.169   2.936  18.042  0.00  0.00    +0.000 S 
ENDBRANCH  10  11
ENDBRANCH   9  10
ENDBRANCH   4   9
TORSDOF 3
ENDMDL
MODEL 8
REMARK VINA RESULT:      -5.1      1.435      1.947
REMARK  Name = 
REMARK  3 active torsions:
REMARK  status: ('A' for Active; 'I' for Inactive)
REMARK    1  A    between atoms: N_4  and  C_5
REMARK    2  A    between atoms: C_5  and  C_6
REMARK    3  A    between atoms: C_6  and  C_7
REMARK                            x       y       z     vdW  Elec       q    Type
REMARK                         _______ _______ _______ _____ _____    ______ ____
ROOT
ATOM      1  N   UNL     1       6.852   4.196  17.256  0.00  0.00    +0.000 NA
ATOM      2  C   UNL     1       5.883   4.471  18.054  0.00  0.00    +0.000 C 
ATOM      3  N   UNL     1       5.529   3.544  19.078  0.00  0.00    +0.000 N 
ATOM      4  N   UNL     1       5.184   5.704  17.900  0.00  0.00    +0.000 N 
ATOM      5  H   UNL     1       7.386   3.318  17.335  0.00  0.00    +0.000 HD
ATOM      6  H   UNL     1       6.046   2.659  19.181  0.00  0.00    +0.000 HD
ATOM      7  H   UNL     1       4.759   3.733  19.734  0.00  0.00    +0.000 HD
ATOM      8  H   UNL     1       5.486   6.352  17.153  0.00  0.00    +0.000 HD
ENDROOT
BRANCH   4   9
ATOM      9  C   UNL     1       4.067   6.065  18.751  0.00  0.00    +0.000 C 
BRANCH   9  10
ATOM     10  C   UNL     1       2.726   5.752  18.081  0.00  0.00    +0.000 C 
BRANCH  10  11
ATOM     11  C   UNL     1       2.048   4.614  18.786  0.00  0.00    +0.000 A 
ATOM     12  C   UNL     1       1.479   3.500  18.182  0.00  0.00    +0.000 A 
ATOM     13  C   UNL     1       0.909   2.610  19.098  0.00  0.00    +0.000 A 
ATOM     14  C   UNL     1       1.029   3.018  20.420  0.00  0.00    +0.000 A 
ATOM     15  S   UNL     1       1.846   4.488  20.453  0.00  0.00    +0.000 S 
ENDBRANCH  10  11
ENDBRANCH   9  10
ENDBRANCH   4   9
TORSDOF 3
ENDMDL
MODEL 9
REMARK VINA RESULT:      -5.0      1.139      1.310
REMARK  Name = 
REMARK  3 active torsions:
REMARK  status: ('A' for Active; 'I' for Inactive)
REMARK    1  A    between atoms: N_4  and  C_5
REMARK    2  A    between atoms: C_5  and  C_6
REMARK    3  A    between atoms: C_6  and  C_7
REMARK                            x       y       z     vdW  Elec       q    Type
REMARK                         _______ _______ _______ _____ _____    ______ ____
ROOT
ATOM      1  N   UNL     1       7.897   4.246  17.116  0.00  0.00    +0.000 NA
ATOM      2  C   UNL     1       6.681   4.309  16.703  0.00  0.00    +0.000 C 
ATOM      3  N   UNL     1       6.396   4.117  15.319  0.00  0.00    +0.000 N 
ATOM      4  N   UNL     1       5.639   4.565  17.643  0.00  0.00    +0.000 N 
ATOM      5  H   UNL     1       8.679   4.060  16.471  0.00  0.00    +0.000 HD
ATOM      6  H   UNL     1       7.158   3.928  14.653  0.00  0.00    +0.000 HD
ATOM      7  H   UNL     1       5.436   4.160  14.955  0.00  0.00    +0.000 HD
ATOM      8  H   UNL     1       5.892   4.682  18.638  0.00  0.00    +0.000 HD
ENDROOT
BRANCH   4   9
ATOM      9  C   UNL     1       4.251   4.671  17.241  0.00  0.00    +0.000 C 
BRANCH   9  10
ATOM     10  C   UNL     1       3.503   3.350  17.450  0.00  0.00    +0.000 C 
BRANCH  10  11
ATOM     11  C   UNL     1       2.708   3.400  18.721  0.00  0.00    +0.000 A 
ATOM     12  C   UNL     1       1.450   3.967  18.875  0.00  0.00    +0.000 A 
ATOM     13  C   UNL     1       0.961   3.872  20.183  0.00  0.00    +0.000 A 
ATOM     14  C   UNL     1       1.830   3.229  21.057  0.00  0.00    +0.000 A 
ATOM     15  S   UNL     1       3.208   2.779  20.204  0.00  0.00    +0.000 S 
ENDBRANCH  10  11
ENDBRANCH   9  10
ENDBRANCH   4   9
TORSDOF 3
ENDMDL
