MODEL 1
REMARK VINA RESULT:      -7.3      0.000      0.000
REMARK  Name = 
REMARK  5 active torsions:
REMARK  status: ('A' for Active; 'I' for Inactive)
REMARK    1  A    between atoms: C_1  and  O_2
REMARK    2  A    between atoms: O_2  and  C_3
REMARK    3  A    between atoms: C_6  and  C_7
REMARK    4  A    between atoms: C_12  and  C_13
REMARK    5  A    between atoms: N_14  and  O_15
REMARK                            x       y       z     vdW  Elec       q    Type
REMARK                         _______ _______ _______ _____ _____    ______ ____
ROOT
ATOM      1  C   UNL     1       5.121   4.365  16.772  0.00  0.00    +0.000 A 
ATOM      2  C   UNL     1       4.959   4.044  15.400  0.00  0.00    +0.000 A 
ATOM      3  C   UNL     1       5.957   4.287  14.448  0.00  0.00    +0.000 A 
ATOM      4  C   UNL     1       7.144   4.893  14.828  0.00  0.00    +0.000 A 
ATOM      5  C   UNL     1       7.335   5.248  16.159  0.00  0.00    +0.000 A 
ATOM      6  C   UNL     1       6.347   4.976  17.127  0.00  0.00    +0.000 A 
ENDROOT
BRANCH   1  10
ATOM      7  C   UNL     1       1.882   3.466  19.526  0.00  0.00    +0.000 A 
ATOM      8  C   UNL     1       2.957   2.595  19.385  0.00  0.00    +0.000 A 
ATOM      9  C   UNL     1       4.010   2.902  18.513  0.00  0.00    +0.000 A 
ATOM     10  C   UNL     1       3.999   4.063  17.711  0.00  0.00    +0.000 A 
ATOM     11  C   UNL     1       2.864   4.885  17.824  0.00  0.00    +0.000 A 
ATOM     12  C   UNL     1       1.835   4.610  18.737  0.00  0.00    +0.000 A 
BRANCH   7  14
ATOM     13  C   UNL     1       1.394   2.633  21.674  0.00  0.00    +0.000 C 
ATOM     14  O   UNL     1       0.915   3.079  20.410  0.00  0.00    +0.000 OA
ENDBRANCH   7  14
ENDBRANCH   1  10
BRANCH   6  15
ATOM     15  C   UNL     1       6.690   5.349  18.516  0.00  0.00    +0.000 C 
ATOM     16  N   UNL     1       7.801   4.967  19.069  0.00  0.00    +0.000 NA
BRANCH  16  17
ATOM     17  O   UNL     1       7.879   5.488  20.363  0.00  0.00    +0.000 OA
ATOM     18  H   UNL     1       8.832   5.674  20.455  0.00  0.00    +0.000 HD
ENDBRANCH  16  17
ENDBRANCH   6  15
TORSDOF 4
ENDMDL
MODEL 2
REMARK VINA RESULT:      -7.1      0.337      1.147
REMARK  Name = 
REMARK  5 active torsions:
REMARK  status: ('A' for Active; 'I' for Inactive)
REMARK    1  A    between atoms: C_1  and  O_2
REMARK    2  A    between atoms: O_2  and  C_3
REMARK    3  A    between atoms: C_6  and  C_7
REMARK    4  A    between atoms: C_12  and  C_13
REMARK    5  A    between atoms: N_14  and  O_15
REMARK                            x       y       z     vdW  Elec       q    Type
REMARK                         _______ _______ _______ _____ _____    ______ ____
ROOT
ATOM      1  C   UNL     1       5.137   4.271  16.747  0.00  0.00    +0.000 A 
ATOM      2  C   UNL     1       4.977   4.034  15.358  0.00  0.00    +0.000 A 
ATOM      3  C   UNL     1       5.955   4.382  14.419  0.00  0.00    +0.000 A 
ATOM      4  C   UNL     1       7.117   5.015  14.831  0.00  0.00    +0.000 A 
ATOM      5  C   UNL     1       7.303   5.290  16.181  0.00  0.00    +0.000 A 
ATOM      6  C   UNL     1       6.337   4.912  17.135  0.00  0.00    +0.000 A 
ENDROOT
BRANCH   1  10
ATOM      7  C   UNL     1       1.919   3.106  19.426  0.00  0.00    +0.000 A 
ATOM      8  C   UNL     1       2.164   4.447  19.150  0.00  0.00    +0.000 A 
ATOM      9  C   UNL     1       3.187   4.814  18.267  0.00  0.00    +0.000 A 
ATOM     10  C   UNL     1       4.037   3.859  17.671  0.00  0.00    +0.000 A 
ATOM     11  C   UNL     1       3.810   2.518  18.028  0.00  0.00    +0.000 A 
ATOM     12  C   UNL     1       2.750   2.141  18.867  0.00  0.00    +0.000 A 
BRANCH   7  14
ATOM     13  C   UNL     1       1.270   2.713  21.656  0.00  0.00    +0.000 C 
ATOM     14  O   UNL     1       0.892   2.854  20.290  0.00  0.00    +0.000 OA
ENDBRANCH   7  14
ENDBRANCH   1  10
BRANCH   6  15
ATOM     15  C   UNL     1       6.675   5.209  18.544  0.00  0.00    +0.000 C 
ATOM     16  N   UNL     1       7.890   5.100  18.989  0.00  0.00    +0.000 NA
BRANCH  16  17
ATOM     17  O   UNL     1       7.925   5.472  20.336  0.00  0.00    +0.000 OA
ATOM     18  H   UNL     1       7.599   6.391  20.306  0.00  0.00    +0.000 HD
ENDBRANCH  16  17
ENDBRANCH   6  15
TORSDOF 4
ENDMDL
MODEL 3
REMARK VINA RESULT:      -7.0      2.428      5.803
REMARK  Name = 
REMARK  5 active torsions:
REMARK  status: ('A' for Active; 'I' for Inactive)
REMARK    1  A    between atoms: C_1  and  O_2
REMARK    2  A    between atoms: O_2  and  C_3
REMARK    3  A    between atoms: C_6  and  C_7
REMARK    4  A    between atoms: C_12  and  C_13
REMARK    5  A    between atoms: N_14  and  O_15
REMARK                            x       y       z     vdW  Elec       q    Type
REMARK                         _______ _______ _______ _____ _____    ______ ____
ROOT
ATOM      1  C   UNL     1       3.459   3.853  19.213  0.00  0.00    +0.000 A 
ATOM      2  C   UNL     1       2.274   4.629  19.134  0.00  0.00    +0.000 A 
ATOM      3  C   UNL     1       1.194   4.441  20.004  0.00  0.00    +0.000 A 
ATOM      4  C   UNL     1       1.243   3.444  20.966  0.00  0.00    +0.000 A 
ATOM      5  C   UNL     1       2.376   2.643  21.061  0.00  0.00    +0.000 A 
ATOM      6  C   UNL     1       3.479   2.849  20.210  0.00  0.00    +0.000 A 
ENDROOT
BRANCH   1  10
ATOM      7  C   UNL     1       6.633   4.668  16.359  0.00  0.00    +0.000 A 
ATOM      8  C   UNL     1       5.439   4.085  15.947  0.00  0.00    +0.000 A 
ATOM      9  C   UNL     1       4.411   3.847  16.868  0.00  0.00    +0.000 A 
ATOM     10  C   UNL     1       4.560   4.133  18.242  0.00  0.00    +0.000 A 
ATOM     11  C   UNL     1       5.805   4.653  18.636  0.00  0.00    +0.000 A 
ATOM     12  C   UNL     1       6.816   4.946  17.709  0.00  0.00    +0.000 A 
BRANCH   7  14
ATOM     13  C   UNL     1       7.077   4.766  14.048  0.00  0.00    +0.000 C 
ATOM     14  O   UNL     1       7.566   4.868  15.381  0.00  0.00    +0.000 OA
ENDBRANCH   7  14
ENDBRANCH   1  10
BRANCH   6  15
ATOM     15  C   UNL     1       4.645   1.971  20.447  0.00  0.00    +0.000 C 
ATOM     16  N   UNL     1       4.899   1.479  21.621  0.00  0.00    +0.000 NA
BRANCH  16  17
ATOM     17  O   UNL     1       6.033   0.664  21.548  0.00  0.00    +0.000 OA
ATOM     18  H   UNL     1       6.464   0.981  20.732  0.00  0.00    +0.000 HD
ENDBRANCH  16  17
ENDBRANCH   6  15
TORSDOF 4
ENDMDL
MODEL 4
REMARK VINA RESULT:      -7.0      2.485      5.958
REMARK  Name = 
REMARK  5 active torsions:
REMARK  status: ('A' for Active; 'I' for Inactive)
REMARK    1  A    between atoms: C_1  and  O_2
REMARK    2  A    between atoms: O_2  and  C_3
REMARK    3  A    between atoms: C_6  and  C_7
REMARK    4  A    between atoms: C_12  and  C_13
REMARK    5  A    between atoms: N_14  and  O_15
REMARK                            x       y       z     vdW  Elec       q    Type
REMARK                         _______ _______ _______ _____ _____    ______ ____
ROOT
ATOM      1  C   UNL     1       3.702   4.925  19.057  0.00  0.00    +0.000 A 
ATOM      2  C   UNL     1       2.979   6.100  19.388  0.00  0.00    +0.000 A 
ATOM      3  C   UNL     1       1.950   6.108  20.336  0.00  0.00    +0.000 A 
ATOM      4  C   UNL     1       1.579   4.930  20.966  0.00  0.00    +0.000 A 
ATOM      5  C   UNL     1       2.244   3.750  20.653  0.00  0.00    +0.000 A 
ATOM      6  C   UNL     1       3.302   3.742  19.723  0.00  0.00    +0.000 A 
ENDROOT
BRANCH   1  10
ATOM      7  C   UNL     1       6.830   5.210  16.055  0.00  0.00    +0.000 A 
ATOM      8  C   UNL     1       5.523   4.903  15.693  0.00  0.00    +0.000 A 
ATOM      9  C   UNL     1       4.515   4.836  16.662  0.00  0.00    +0.000 A 
ATOM     10  C   UNL     1       4.787   5.020  18.034  0.00  0.00    +0.000 A 
ATOM     11  C   UNL     1       6.130   5.257  18.375  0.00  0.00    +0.000 A 
ATOM     12  C   UNL     1       7.132   5.381  17.401  0.00  0.00    +0.000 A 
BRANCH   7  14
ATOM     13  C   UNL     1       7.225   4.895  13.754  0.00  0.00    +0.000 C 
ATOM     14  O   UNL     1       7.734   5.262  15.033  0.00  0.00    +0.000 OA
ENDBRANCH   7  14
ENDBRANCH   1  10
BRANCH   6  15
ATOM     15  C   UNL     1       3.967   2.437  19.518  0.00  0.00    +0.000 C 
ATOM     16  N   UNL     1       3.626   1.645  18.548  0.00  0.00    +0.000 NA
BRANCH  16  17
ATOM     17  O   UNL     1       4.436   0.506  18.572  0.00  0.00    +0.000 OA
ATOM     18  H   UNL     1       5.302   0.862  18.298  0.00  0.00    +0.000 HD
ENDBRANCH  16  17
ENDBRANCH   6  15
TORSDOF 4
ENDMDL
MODEL 5
REMARK VINA RESULT:      -7.0      2.443      5.803
REMARK  Name = 
REMARK  5 active torsions:
REMARK  status: ('A' for Active; 'I' for Inactive)
REMARK    1  A    between atoms: C_1  and  O_2
REMARK    2  A    between atoms: O_2  and  C_3
REMARK    3  A    between atoms: C_6  and  C_7
REMARK    4  A    between atoms: C_12  and  C_13
REMARK    5  A    between atoms: N_14  and  O_15
REMARK                            x       y       z     vdW  Elec       q    Type
REMARK                         _______ _______ _______ _____ _____    ______ ____
ROOT
ATOM      1  C   UNL     1       3.610   4.093  19.284  0.00  0.00    +0.000 A 
ATOM      2  C   UNL     1       2.644   5.114  19.477  0.00  0.00    +0.000 A 
ATOM      3  C   UNL     1       1.655   5.035  20.464  0.00  0.00    +0.000 A 
ATOM      4  C   UNL     1       1.572   3.913  21.274  0.00  0.00    +0.000 A 
ATOM      5  C   UNL     1       2.484   2.877  21.102  0.00  0.00    +0.000 A 
ATOM      6  C   UNL     1       3.501   2.966  20.132  0.00  0.00    +0.000 A 
ENDROOT
BRANCH   1  10
ATOM      7  C   UNL     1       6.602   4.607  16.174  0.00  0.00    +0.000 A 
ATOM      8  C   UNL     1       6.909   4.867  17.505  0.00  0.00    +0.000 A 
ATOM      9  C   UNL     1       5.947   4.677  18.505  0.00  0.00    +0.000 A 
ATOM     10  C   UNL     1       4.629   4.272  18.205  0.00  0.00    +0.000 A 
ATOM     11  C   UNL     1       4.331   4.088  16.844  0.00  0.00    +0.000 A 
ATOM     12  C   UNL     1       5.307   4.222  15.845  0.00  0.00    +0.000 A 
BRANCH   7  14
ATOM     13  C   UNL     1       7.211   4.872  13.914  0.00  0.00    +0.000 C 
ATOM     14  O   UNL     1       7.613   4.813  15.279  0.00  0.00    +0.000 OA
ENDBRANCH   7  14
ENDBRANCH   1  10
BRANCH   6  15
ATOM     15  C   UNL     1       4.443   1.826  20.083  0.00  0.00    +0.000 C 
ATOM     16  N   UNL     1       5.186   1.513  21.100  0.00  0.00    +0.000 NA
BRANCH  16  17
ATOM     17  O   UNL     1       5.947   0.383  20.789  0.00  0.00    +0.000 OA
ATOM     18  H   UNL     1       5.556   0.097  19.943  0.00  0.00    +0.000 HD
ENDBRANCH  16  17
ENDBRANCH   6  15
TORSDOF 4
ENDMDL
MODEL 6
REMARK VINA RESULT:      -7.0      2.528      5.947
REMARK  Name = 
REMARK  5 active torsions:
REMARK  status: ('A' for Active; 'I' for Inactive)
REMARK    1  A    between atoms: C_1  and  O_2
REMARK    2  A    between atoms: O_2  and  C_3
REMARK    3  A    between atoms: C_6  and  C_7
REMARK    4  A    between atoms: C_12  and  C_13
REMARK    5  A    between atoms: N_14  and  O_15
REMARK                            x       y       z     vdW  Elec       q    Type
REMARK                         _______ _______ _______ _____ _____    ______ ____
ROOT
ATOM      1  C   UNL     1       3.751   5.093  18.766  0.00  0.00    +0.000 A 
ATOM      2  C   UNL     1       3.045   6.286  19.070  0.00  0.00    +0.000 A 
ATOM      3  C   UNL     1       2.071   6.348  20.073  0.00  0.00    +0.000 A 
ATOM      4  C   UNL     1       1.739   5.208  20.789  0.00  0.00    +0.000 A 
ATOM      5  C   UNL     1       2.388   4.011  20.506  0.00  0.00    +0.000 A 
ATOM      6  C   UNL     1       3.392   3.951  19.520  0.00  0.00    +0.000 A 
ENDROOT
BRANCH   1  10
ATOM      7  C   UNL     1       6.761   5.202  15.634  0.00  0.00    +0.000 A 
ATOM      8  C   UNL     1       6.981   5.834  16.853  0.00  0.00    +0.000 A 
ATOM      9  C   UNL     1       6.016   5.775  17.867  0.00  0.00    +0.000 A 
ATOM     10  C   UNL     1       4.776   5.129  17.680  0.00  0.00    +0.000 A 
ATOM     11  C   UNL     1       4.556   4.564  16.412  0.00  0.00    +0.000 A 
ATOM     12  C   UNL     1       5.541   4.571  15.414  0.00  0.00    +0.000 A 
BRANCH   7  14
ATOM     13  C   UNL     1       7.420   4.935  13.389  0.00  0.00    +0.000 C 
ATOM     14  O   UNL     1       7.768   5.310  14.718  0.00  0.00    +0.000 OA
ENDBRANCH   7  14
ENDBRANCH   1  10
BRANCH   6  15
ATOM     15  C   UNL     1       4.047   2.635  19.352  0.00  0.00    +0.000 C 
ATOM     16  N   UNL     1       3.574   1.738  18.542  0.00  0.00    +0.000 NA
BRANCH  16  17
ATOM     17  O   UNL     1       4.405   0.614  18.557  0.00  0.00    +0.000 OA
ATOM     18  H   UNL     1       4.689   0.579  19.490  0.00  0.00    +0.000 HD
ENDBRANCH  16  17
ENDBRANCH   6  15
TORSDOF 4
ENDMDL
MODEL 7
REMARK VINA RESULT:      -6.9      2.605      5.898
REMARK  Name = 
REMARK  5 active torsions:
REMARK  status: ('A' for Active; 'I' for Inactive)
REMARK    1  A    between atoms: C_1  and  O_2
REMARK    2  A    between atoms: O_2  and  C_3
REMARK    3  A    between atoms: C_6  and  C_7
REMARK    4  A    between atoms: C_12  and  C_13
REMARK    5  A    between atoms: N_14  and  O_15
REMARK                            x       y       z     vdW  Elec       q    Type
REMARK                         _______ _______ _______ _____ _____    ______ ____
ROOT
ATOM      1  C   UNL     1       3.297   4.032  19.080  0.00  0.00    +0.000 A 
ATOM      2  C   UNL     1       2.955   2.710  19.463  0.00  0.00    +0.000 A 
ATOM      3  C   UNL     1       1.889   2.430  20.326  0.00  0.00    +0.000 A 
ATOM      4  C   UNL     1       1.144   3.467  20.867  0.00  0.00    +0.000 A 
ATOM      5  C   UNL     1       1.461   4.779  20.538  0.00  0.00    +0.000 A 
ATOM      6  C   UNL     1       2.513   5.065  19.645  0.00  0.00    +0.000 A 
ENDROOT
BRANCH   1  10
ATOM      7  C   UNL     1       6.627   4.611  16.348  0.00  0.00    +0.000 A 
ATOM      8  C   UNL     1       5.371   4.253  15.871  0.00  0.00    +0.000 A 
ATOM      9  C   UNL     1       4.296   4.091  16.755  0.00  0.00    +0.000 A 
ATOM     10  C   UNL     1       4.451   4.228  18.150  0.00  0.00    +0.000 A 
ATOM     11  C   UNL     1       5.749   4.519  18.605  0.00  0.00    +0.000 A 
ATOM     12  C   UNL     1       6.815   4.738  17.720  0.00  0.00    +0.000 A 
BRANCH   7  14
ATOM     13  C   UNL     1       7.138   4.842  14.060  0.00  0.00    +0.000 C 
ATOM     14  O   UNL     1       7.603   4.755  15.404  0.00  0.00    +0.000 OA
ENDBRANCH   7  14
ENDBRANCH   1  10
BRANCH   6  15
ATOM     15  C   UNL     1       2.716   6.496  19.330  0.00  0.00    +0.000 C 
ATOM     16  N   UNL     1       2.344   7.002  18.194  0.00  0.00    +0.000 NA
BRANCH  16  17
ATOM     17  O   UNL     1       2.625   8.372  18.181  0.00  0.00    +0.000 OA
ATOM     18  H   UNL     1       2.902   8.518  17.257  0.00  0.00    +0.000 HD
ENDBRANCH  16  17
ENDBRANCH   6  15
TORSDOF 4
ENDMDL
MODEL 8
REMARK VINA RESULT:      -6.9      2.759      5.862
REMARK  Name = 
REMARK  5 active torsions:
REMARK  status: ('A' for Active; 'I' for Inactive)
REMARK    1  A    between atoms: C_1  and  O_2
REMARK    2  A    between atoms: O_2  and  C_3
REMARK    3  A    between atoms: C_6  and  C_7
REMARK    4  A    between atoms: C_12  and  C_13
REMARK    5  A    between atoms: N_14  and  O_15
REMARK                            x       y       z     vdW  Elec       q    Type
REMARK                         _______ _______ _______ _____ _____    ______ ____
ROOT
ATOM      1  C   UNL     1       3.358   4.286  18.329  0.00  0.00    +0.000 A 
ATOM      2  C   UNL     1       3.286   2.977  17.784  0.00  0.00    +0.000 A 
ATOM      3  C   UNL     1       2.206   2.121  18.027  0.00  0.00    +0.000 A 
ATOM      4  C   UNL     1       1.170   2.529  18.853  0.00  0.00    +0.000 A 
ATOM      5  C   UNL     1       1.213   3.793  19.429  0.00  0.00    +0.000 A 
ATOM      6  C   UNL     1       2.282   4.672  19.162  0.00  0.00    +0.000 A 
ENDROOT
BRANCH   1  10
ATOM      7  C   UNL     1       6.805   6.755  17.379  0.00  0.00    +0.000 A 
ATOM      8  C   UNL     1       5.665   6.791  16.584  0.00  0.00    +0.000 A 
ATOM      9  C   UNL     1       4.548   6.010  16.909  0.00  0.00    +0.000 A 
ATOM     10  C   UNL     1       4.551   5.126  18.008  0.00  0.00    +0.000 A 
ATOM     11  C   UNL     1       5.745   5.059  18.748  0.00  0.00    +0.000 A 
ATOM     12  C   UNL     1       6.845   5.881  18.460  0.00  0.00    +0.000 A 
BRANCH   7  14
ATOM     13  C   UNL     1       8.041   8.718  17.788  0.00  0.00    +0.000 C 
ATOM     14  O   UNL     1       7.833   7.563  16.982  0.00  0.00    +0.000 OA
ENDBRANCH   7  14
ENDBRANCH   1  10
BRANCH   6  15
ATOM     15  C   UNL     1       2.185   6.009  19.787  0.00  0.00    +0.000 C 
ATOM     16  N   UNL     1       1.539   6.196  20.897  0.00  0.00    +0.000 NA
BRANCH  16  17
ATOM     17  O   UNL     1       1.639   7.539  21.272  0.00  0.00    +0.000 OA
ATOM     18  H   UNL     1       2.522   7.783  20.935  0.00  0.00    +0.000 HD
ENDBRANCH  16  17
ENDBRANCH   6  15
TORSDOF 4
ENDMDL
MODEL 9
REMARK VINA RESULT:      -6.8      2.820      5.781
REMARK  Name = 
REMARK  5 active torsions:
REMARK  status: ('A' for Active; 'I' for Inactive)
REMARK    1  A    between atoms: C_1  and  O_2
REMARK    2  A    between atoms: O_2  and  C_3
REMARK    3  A    between atoms: C_6  and  C_7
REMARK    4  A    between atoms: C_12  and  C_13
REMARK    5  A    between atoms: N_14  and  O_15
REMARK                            x       y       z     vdW  Elec       q    Type
REMARK                         _______ _______ _______ _____ _____    ______ ____
ROOT
ATOM      1  C   UNL     1       2.928   4.307  18.693  0.00  0.00    +0.000 A 
ATOM      2  C   UNL     1       2.607   3.095  18.029  0.00  0.00    +0.000 A 
ATOM      3  C   UNL     1       1.513   2.303  18.397  0.00  0.00    +0.000 A 
ATOM      4  C   UNL     1       0.716   2.676  19.469  0.00  0.00    +0.000 A 
ATOM      5  C   UNL     1       1.010   3.844  20.164  0.00  0.00    +0.000 A 
ATOM      6  C   UNL     1       2.091   4.661  19.777  0.00  0.00    +0.000 A 
ENDROOT
BRANCH   1  10
ATOM      7  C   UNL     1       6.402   6.538  17.339  0.00  0.00    +0.000 A 
ATOM      8  C   UNL     1       6.509   5.614  18.373  0.00  0.00    +0.000 A 
ATOM      9  C   UNL     1       5.390   4.881  18.789  0.00  0.00    +0.000 A 
ATOM     10  C   UNL     1       4.114   5.084  18.223  0.00  0.00    +0.000 A 
ATOM     11  C   UNL     1       4.025   6.076  17.231  0.00  0.00    +0.000 A 
ATOM     12  C   UNL     1       5.154   6.772  16.773  0.00  0.00    +0.000 A 
BRANCH   7  14
ATOM     13  C   UNL     1       7.800   8.394  17.723  0.00  0.00    +0.000 C 
ATOM     14  O   UNL     1       7.554   7.191  17.002  0.00  0.00    +0.000 OA
ENDBRANCH   7  14
ENDBRANCH   1  10
BRANCH   6  15
ATOM     15  C   UNL     1       2.267   5.904  20.559  0.00  0.00    +0.000 C 
ATOM     16  N   UNL     1       1.797   7.041  20.145  0.00  0.00    +0.000 NA
BRANCH  16  17
ATOM     17  O   UNL     1       2.077   8.032  21.090  0.00  0.00    +0.000 OA
ATOM     18  H   UNL     1       2.012   8.848  20.560  0.00  0.00    +0.000 HD
ENDBRANCH  16  17
ENDBRANCH   6  15
TORSDOF 4
ENDMDL
