MODEL 1
REMARK VINA RESULT:      -7.1      0.000      0.000
REMARK  Name = 
REMARK  4 active torsions:
REMARK  status: ('A' for Active; 'I' for Inactive)
REMARK    1  A    between atoms: N_1  and  C_2
REMARK    2  A    between atoms: C_2  and  C_3
REMARK    3  A    between atoms: C_3  and  C_4
REMARK    4  A    between atoms: C_4  and  N_5
REMARK                            x       y       z     vdW  Elec       q    Type
REMARK                         _______ _______ _______ _____ _____    ______ ____
ROOT
ATOM      1  N   UNL     1       5.325   4.804  15.324  0.00  0.00    +0.000 N 
ATOM      2  C   UNL     1       5.705   6.201  15.207  0.00  0.00    +0.000 C 
ATOM      3  C   UNL     1       6.568   6.401  16.439  0.00  0.00    +0.000 C 
ATOM      4  O   UNL     1       7.775   6.232  16.485  0.00  0.00    +0.000 OA
ATOM      5  N   UNL     1       5.758   6.524  17.559  0.00  0.00    +0.000 N 
ATOM      6  C   UNL     1       4.904   5.332  17.812  0.00  0.00    +0.000 C 
ATOM      7  C   UNL     1       5.627   4.354  18.781  0.00  0.00    +0.000 C 
ATOM      8  S   UNL     1       4.329   3.670  19.897  0.00  0.00    +0.000 S 
ATOM      9  C   UNL     1       3.309   5.039  19.645  0.00  0.00    +0.000 C 
ATOM     10  C   UNL     1       3.686   5.799  18.605  0.00  0.00    +0.000 C 
ATOM     11  C   UNL     1       3.068   7.126  18.421  0.00  0.00    +0.000 C 
ATOM     12  O   UNL     1       3.430   7.837  17.489  0.00  0.00    +0.000 OA
ATOM     13  C   UNL     1       2.098   7.602  19.432  0.00  0.00    +0.000 A 
ATOM     14  C   UNL     1       1.642   8.928  19.382  0.00  0.00    +0.000 A 
ATOM     15  C   UNL     1       0.677   9.375  20.292  0.00  0.00    +0.000 A 
ATOM     16  C   UNL     1       0.166   8.502  21.251  0.00  0.00    +0.000 A 
ATOM     17  C   UNL     1       0.653   7.194  21.332  0.00  0.00    +0.000 A 
ATOM     18  C   UNL     1       1.640   6.751  20.438  0.00  0.00    +0.000 A 
ATOM     19  C   UNL     1       2.231   5.399  20.596  0.00  0.00    +0.000 C 
ATOM     20  O   UNL     1       1.861   4.665  21.503  0.00  0.00    +0.000 OA
ATOM     21  C   UNL     1       4.556   4.478  16.469  0.00  0.00    +0.000 C 
ATOM     22  O   UNL     1       3.802   3.508  16.485  0.00  0.00    +0.000 OA
ATOM     23  H   UNL     1       5.155   7.334  17.418  0.00  0.00    +0.000 HD
ENDROOT
BRANCH   1  24
ATOM     24  C   UNL     1       5.320   3.978  14.109  0.00  0.00    +0.000 C 
BRANCH  24  25
ATOM     25  C   UNL     1       6.647   3.978  13.314  0.00  0.00    +0.000 C 
BRANCH  25  26
ATOM     26  C   UNL     1       6.501   3.425  11.894  0.00  0.00    +0.000 C 
BRANCH  26  27
ATOM     27  N   UNL     1       5.916   2.086  11.922  0.00  0.00    +0.000 NA
ATOM     28  H   UNL     1       6.390   1.499  11.237  0.00  0.00    +0.000 HD
ATOM     29  H   UNL     1       4.944   2.128  11.608  0.00  0.00    +0.000 HD
ENDBRANCH  26  27
ENDBRANCH  25  26
ENDBRANCH  24  25
ENDBRANCH   1  24
TORSDOF 4
ENDMDL
MODEL 2
REMARK VINA RESULT:      -6.8      0.872      1.083
REMARK  Name = 
REMARK  4 active torsions:
REMARK  status: ('A' for Active; 'I' for Inactive)
REMARK    1  A    between atoms: N_1  and  C_2
REMARK    2  A    between atoms: C_2  and  C_3
REMARK    3  A    between atoms: C_3  and  C_4
REMARK    4  A    between atoms: C_4  and  N_5
REMARK                            x       y       z     vdW  Elec       q    Type
REMARK                         _______ _______ _______ _____ _____    ______ ____
ROOT
ATOM      1  N   UNL     1       5.302   4.454  15.551  0.00  0.00    +0.000 N 
ATOM      2  C   UNL     1       5.904   5.723  15.183  0.00  0.00    +0.000 C 
ATOM      3  C   UNL     1       6.675   6.086  16.439  0.00  0.00    +0.000 C 
ATOM      4  O   UNL     1       7.832   5.774  16.666  0.00  0.00    +0.000 OA
ATOM      5  N   UNL     1       5.798   6.569  17.400  0.00  0.00    +0.000 N 
ATOM      6  C   UNL     1       4.750   5.590  17.798  0.00  0.00    +0.000 C 
ATOM      7  C   UNL     1       5.223   4.775  19.034  0.00  0.00    +0.000 C 
ATOM      8  S   UNL     1       3.742   4.543  20.105  0.00  0.00    +0.000 S 
ATOM      9  C   UNL     1       2.973   5.940  19.443  0.00  0.00    +0.000 C 
ATOM     10  C   UNL     1       3.555   6.384  18.318  0.00  0.00    +0.000 C 
ATOM     11  C   UNL     1       3.170   7.702  17.780  0.00  0.00    +0.000 C 
ATOM     12  O   UNL     1       3.718   8.126  16.768  0.00  0.00    +0.000 OA
ATOM     13  C   UNL     1       2.200   8.522  18.540  0.00  0.00    +0.000 A 
ATOM     14  C   UNL     1       1.962   9.849  18.152  0.00  0.00    +0.000 A 
ATOM     15  C   UNL     1       1.002  10.617  18.821  0.00  0.00    +0.000 A 
ATOM     16  C   UNL     1       0.278  10.063  19.877  0.00  0.00    +0.000 A 
ATOM     17  C   UNL     1       0.547   8.757  20.295  0.00  0.00    +0.000 A 
ATOM     18  C   UNL     1       1.528   7.993  19.643  0.00  0.00    +0.000 A 
ATOM     19  C   UNL     1       1.884   6.648  20.158  0.00  0.00    +0.000 C 
ATOM     20  O   UNL     1       1.327   6.198  21.149  0.00  0.00    +0.000 OA
ATOM     21  C   UNL     1       4.393   4.504  16.637  0.00  0.00    +0.000 C 
ATOM     22  O   UNL     1       3.499   3.672  16.769  0.00  0.00    +0.000 OA
ATOM     23  H   UNL     1       5.344   7.397  17.016  0.00  0.00    +0.000 HD
ENDROOT
BRANCH   1  24
ATOM     24  C   UNL     1       5.276   3.378  14.550  0.00  0.00    +0.000 C 
BRANCH  24  25
ATOM     25  C   UNL     1       6.101   3.655  13.271  0.00  0.00    +0.000 C 
BRANCH  25  26
ATOM     26  C   UNL     1       5.443   3.118  11.998  0.00  0.00    +0.000 C 
BRANCH  26  27
ATOM     27  N   UNL     1       5.962   1.791  11.671  0.00  0.00    +0.000 NA
ATOM     28  H   UNL     1       6.630   1.507  12.386  0.00  0.00    +0.000 HD
ATOM     29  H   UNL     1       6.504   1.837  10.806  0.00  0.00    +0.000 HD
ENDBRANCH  26  27
ENDBRANCH  25  26
ENDBRANCH  24  25
ENDBRANCH   1  24
TORSDOF 4
ENDMDL
MODEL 3
REMARK VINA RESULT:      -6.6      8.485     12.055
REMARK  Name = 
REMARK  4 active torsions:
REMARK  status: ('A' for Active; 'I' for Inactive)
REMARK    1  A    between atoms: N_1  and  C_2
REMARK    2  A    between atoms: C_2  and  C_3
REMARK    3  A    between atoms: C_3  and  C_4
REMARK    4  A    between atoms: C_4  and  N_5
REMARK                            x       y       z     vdW  Elec       q    Type
REMARK                         _______ _______ _______ _____ _____    ______ ____
ROOT
ATOM      1  N   UNL     1      -2.125  14.482  23.689  0.00  0.00    +0.000 N 
ATOM      2  C   UNL     1      -3.568  14.424  23.539  0.00  0.00    +0.000 C 
ATOM      3  C   UNL     1      -3.864  12.970  23.856  0.00  0.00    +0.000 C 
ATOM      4  O   UNL     1      -4.112  12.531  24.967  0.00  0.00    +0.000 OA
ATOM      5  N   UNL     1      -3.532  12.179  22.765  0.00  0.00    +0.000 N 
ATOM      6  C   UNL     1      -2.096  12.260  22.383  0.00  0.00    +0.000 C 
ATOM      7  C   UNL     1      -1.291  11.136  23.094  0.00  0.00    +0.000 C 
ATOM      8  S   UNL     1      -0.045  10.535  21.876  0.00  0.00    +0.000 S 
ATOM      9  C   UNL     1      -1.005  11.070  20.544  0.00  0.00    +0.000 C 
ATOM     10  C   UNL     1      -1.994  11.903  20.903  0.00  0.00    +0.000 C 
ATOM     11  C   UNL     1      -3.042  12.241  19.921  0.00  0.00    +0.000 C 
ATOM     12  O   UNL     1      -3.966  12.978  20.250  0.00  0.00    +0.000 OA
ATOM     13  C   UNL     1      -3.000  11.595  18.589  0.00  0.00    +0.000 A 
ATOM     14  C   UNL     1      -4.082  11.753  17.710  0.00  0.00    +0.000 A 
ATOM     15  C   UNL     1      -4.030  11.202  16.424  0.00  0.00    +0.000 A 
ATOM     16  C   UNL     1      -2.901  10.493  16.015  0.00  0.00    +0.000 A 
ATOM     17  C   UNL     1      -1.843  10.295  16.905  0.00  0.00    +0.000 A 
ATOM     18  C   UNL     1      -1.903  10.824  18.204  0.00  0.00    +0.000 A 
ATOM     19  C   UNL     1      -0.827  10.520  19.180  0.00  0.00    +0.000 C 
ATOM     20  O   UNL     1       0.116   9.810  18.858  0.00  0.00    +0.000 OA
ATOM     21  C   UNL     1      -1.387  13.668  22.794  0.00  0.00    +0.000 C 
ATOM     22  O   UNL     1      -0.227  13.933  22.487  0.00  0.00    +0.000 OA
ATOM     23  H   UNL     1      -4.099  12.488  21.976  0.00  0.00    +0.000 HD
ENDROOT
BRANCH   1  24
ATOM     24  C   UNL     1      -1.539  15.655  24.355  0.00  0.00    +0.000 C 
BRANCH  24  25
ATOM     25  C   UNL     1      -1.666  15.663  25.896  0.00  0.00    +0.000 C 
BRANCH  25  26
ATOM     26  C   UNL     1      -0.506  16.375  26.595  0.00  0.00    +0.000 C 
BRANCH  26  27
ATOM     27  N   UNL     1       0.588  16.619  25.657  0.00  0.00    +0.000 NA
ATOM     28  H   UNL     1       1.469  16.638  26.168  0.00  0.00    +0.000 HD
ATOM     29  H   UNL     1       0.494  17.555  25.255  0.00  0.00    +0.000 HD
ENDBRANCH  26  27
ENDBRANCH  25  26
ENDBRANCH  24  25
ENDBRANCH   1  24
TORSDOF 4
ENDMDL
MODEL 4
REMARK VINA RESULT:      -6.6      2.938      7.225
REMARK  Name = 
REMARK  4 active torsions:
REMARK  status: ('A' for Active; 'I' for Inactive)
REMARK    1  A    between atoms: N_1  and  C_2
REMARK    2  A    between atoms: C_2  and  C_3
REMARK    3  A    between atoms: C_3  and  C_4
REMARK    4  A    between atoms: C_4  and  N_5
REMARK                            x       y       z     vdW  Elec       q    Type
REMARK                         _______ _______ _______ _____ _____    ______ ____
ROOT
ATOM      1  N   UNL     1       2.151   3.565  18.681  0.00  0.00    +0.000 N 
ATOM      2  C   UNL     1       2.146   2.308  17.955  0.00  0.00    +0.000 C 
ATOM      3  C   UNL     1       3.454   1.678  18.400  0.00  0.00    +0.000 C 
ATOM      4  O   UNL     1       3.585   0.946  19.367  0.00  0.00    +0.000 OA
ATOM      5  N   UNL     1       4.511   2.275  17.729  0.00  0.00    +0.000 N 
ATOM      6  C   UNL     1       4.624   3.738  17.976  0.00  0.00    +0.000 C 
ATOM      7  C   UNL     1       5.588   4.006  19.166  0.00  0.00    +0.000 C 
ATOM      8  S   UNL     1       6.555   5.512  18.727  0.00  0.00    +0.000 S 
ATOM      9  C   UNL     1       6.303   5.252  17.039  0.00  0.00    +0.000 C 
ATOM     10  C   UNL     1       5.343   4.352  16.777  0.00  0.00    +0.000 C 
ATOM     11  C   UNL     1       5.189   3.843  15.401  0.00  0.00    +0.000 C 
ATOM     12  O   UNL     1       4.333   2.998  15.161  0.00  0.00    +0.000 OA
ATOM     13  C   UNL     1       6.146   4.297  14.367  0.00  0.00    +0.000 A 
ATOM     14  C   UNL     1       6.138   3.687  13.103  0.00  0.00    +0.000 A 
ATOM     15  C   UNL     1       6.994   4.147  12.094  0.00  0.00    +0.000 A 
ATOM     16  C   UNL     1       7.856   5.214  12.345  0.00  0.00    +0.000 A 
ATOM     17  C   UNL     1       7.898   5.791  13.617  0.00  0.00    +0.000 A 
ATOM     18  C   UNL     1       7.061   5.315  14.638  0.00  0.00    +0.000 A 
ATOM     19  C   UNL     1       7.185   5.857  16.013  0.00  0.00    +0.000 C 
ATOM     20  O   UNL     1       8.015   6.721  16.264  0.00  0.00    +0.000 OA
ATOM     21  C   UNL     1       3.210   4.450  18.358  0.00  0.00    +0.000 C 
ATOM     22  O   UNL     1       3.108   5.664  18.520  0.00  0.00    +0.000 OA
ATOM     23  H   UNL     1       4.370   2.121  16.731  0.00  0.00    +0.000 HD
ENDROOT
BRANCH   1  24
ATOM     24  C   UNL     1       0.892   4.027  19.284  0.00  0.00    +0.000 C 
BRANCH  24  25
ATOM     25  C   UNL     1       0.887   4.073  20.830  0.00  0.00    +0.000 C 
BRANCH  25  26
ATOM     26  C   UNL     1       1.264   2.738  21.476  0.00  0.00    +0.000 C 
BRANCH  26  27
ATOM     27  N   UNL     1       2.664   2.747  21.895  0.00  0.00    +0.000 NA
ATOM     28  H   UNL     1       2.720   3.021  22.875  0.00  0.00    +0.000 HD
ATOM     29  H   UNL     1       3.171   3.476  21.387  0.00  0.00    +0.000 HD
ENDBRANCH  26  27
ENDBRANCH  25  26
ENDBRANCH  24  25
ENDBRANCH   1  24
TORSDOF 4
ENDMDL
MODEL 5
REMARK VINA RESULT:      -6.5      5.505      8.252
REMARK  Name = 
REMARK  4 active torsions:
REMARK  status: ('A' for Active; 'I' for Inactive)
REMARK    1  A    between atoms: N_1  and  C_2
REMARK    2  A    between atoms: C_2  and  C_3
REMARK    3  A    between atoms: C_3  and  C_4
REMARK    4  A    between atoms: C_4  and  N_5
REMARK                            x       y       z     vdW  Elec       q    Type
REMARK                         _______ _______ _______ _____ _____    ______ ____
ROOT
ATOM      1  N   UNL     1       1.248   9.060  19.620  0.00  0.00    +0.000 N 
ATOM      2  C   UNL     1       1.245   9.251  18.180  0.00  0.00    +0.000 C 
ATOM      3  C   UNL     1       1.524  10.738  18.056  0.00  0.00    +0.000 C 
ATOM      4  O   UNL     1       2.633  11.238  17.969  0.00  0.00    +0.000 OA
ATOM      5  N   UNL     1       0.369  11.453  18.339  0.00  0.00    +0.000 N 
ATOM      6  C   UNL     1      -0.155  11.220  19.712  0.00  0.00    +0.000 C 
ATOM      7  C   UNL     1       0.416  12.286  20.690  0.00  0.00    +0.000 C 
ATOM      8  S   UNL     1      -0.950  12.719  21.847  0.00  0.00    +0.000 S 
ATOM      9  C   UNL     1      -2.150  12.232  20.705  0.00  0.00    +0.000 C 
ATOM     10  C   UNL     1      -1.653  11.513  19.687  0.00  0.00    +0.000 C 
ATOM     11  C   UNL     1      -2.505  11.242  18.514  0.00  0.00    +0.000 C 
ATOM     12  O   UNL     1      -2.048  10.610  17.567  0.00  0.00    +0.000 OA
ATOM     13  C   UNL     1      -3.862  11.832  18.472  0.00  0.00    +0.000 A 
ATOM     14  C   UNL     1      -4.616  11.748  17.292  0.00  0.00    +0.000 A 
ATOM     15  C   UNL     1      -5.924  12.245  17.256  0.00  0.00    +0.000 A 
ATOM     16  C   UNL     1      -6.481  12.826  18.395  0.00  0.00    +0.000 A 
ATOM     17  C   UNL     1      -5.714  12.953  19.557  0.00  0.00    +0.000 A 
ATOM     18  C   UNL     1      -4.393  12.480  19.588  0.00  0.00    +0.000 A 
ATOM     19  C   UNL     1      -3.549  12.713  20.785  0.00  0.00    +0.000 C 
ATOM     20  O   UNL     1      -3.999  13.317  21.750  0.00  0.00    +0.000 OA
ATOM     21  C   UNL     1       0.245   9.766  20.328  0.00  0.00    +0.000 C 
ATOM     22  O   UNL     1      -0.168   9.380  21.420  0.00  0.00    +0.000 OA
ATOM     23  H   UNL     1      -0.342  11.173  17.665  0.00  0.00    +0.000 HD
ENDROOT
BRANCH   1  24
ATOM     24  C   UNL     1       1.902   7.861  20.163  0.00  0.00    +0.000 C 
BRANCH  24  25
ATOM     25  C   UNL     1       2.562   6.942  19.109  0.00  0.00    +0.000 C 
BRANCH  25  26
ATOM     26  C   UNL     1       2.828   5.525  19.622  0.00  0.00    +0.000 C 
BRANCH  26  27
ATOM     27  N   UNL     1       2.391   5.391  21.010  0.00  0.00    +0.000 NA
ATOM     28  H   UNL     1       2.368   6.312  21.446  0.00  0.00    +0.000 HD
ATOM     29  H   UNL     1       3.087   4.864  21.542  0.00  0.00    +0.000 HD
ENDBRANCH  26  27
ENDBRANCH  25  26
ENDBRANCH  24  25
ENDBRANCH   1  24
TORSDOF 4
ENDMDL
MODEL 6
REMARK VINA RESULT:      -6.5      6.151     10.150
REMARK  Name = 
REMARK  4 active torsions:
REMARK  status: ('A' for Active; 'I' for Inactive)
REMARK    1  A    between atoms: N_1  and  C_2
REMARK    2  A    between atoms: C_2  and  C_3
REMARK    3  A    between atoms: C_3  and  C_4
REMARK    4  A    between atoms: C_4  and  N_5
REMARK                            x       y       z     vdW  Elec       q    Type
REMARK                         _______ _______ _______ _____ _____    ______ ____
ROOT
ATOM      1  N   UNL     1      -3.008  12.839  21.463  0.00  0.00    +0.000 N 
ATOM      2  C   UNL     1      -2.716  12.245  22.755  0.00  0.00    +0.000 C 
ATOM      3  C   UNL     1      -1.333  12.796  23.054  0.00  0.00    +0.000 C 
ATOM      4  O   UNL     1      -1.107  13.836  23.649  0.00  0.00    +0.000 OA
ATOM      5  N   UNL     1      -0.386  12.103  22.314  0.00  0.00    +0.000 N 
ATOM      6  C   UNL     1      -0.587  12.203  20.843  0.00  0.00    +0.000 C 
ATOM      7  C   UNL     1       0.236  13.391  20.271  0.00  0.00    +0.000 C 
ATOM      8  S   UNL     1       0.896  12.833  18.644  0.00  0.00    +0.000 S 
ATOM      9  C   UNL     1       0.795  11.173  19.106  0.00  0.00    +0.000 C 
ATOM     10  C   UNL     1       0.055  10.973  20.207  0.00  0.00    +0.000 C 
ATOM     11  C   UNL     1       0.082   9.651  20.863  0.00  0.00    +0.000 C 
ATOM     12  O   UNL     1      -0.569   9.470  21.886  0.00  0.00    +0.000 OA
ATOM     13  C   UNL     1       0.981   8.609  20.318  0.00  0.00    +0.000 A 
ATOM     14  C   UNL     1       1.166   7.414  21.030  0.00  0.00    +0.000 A 
ATOM     15  C   UNL     1       1.962   6.393  20.498  0.00  0.00    +0.000 A 
ATOM     16  C   UNL     1       2.574   6.562  19.256  0.00  0.00    +0.000 A 
ATOM     17  C   UNL     1       2.428   7.769  18.567  0.00  0.00    +0.000 A 
ATOM     18  C   UNL     1       1.652   8.805  19.110  0.00  0.00    +0.000 A 
ATOM     19  C   UNL     1       1.589  10.121  18.428  0.00  0.00    +0.000 C 
ATOM     20  O   UNL     1       2.210  10.310  17.391  0.00  0.00    +0.000 OA
ATOM     21  C   UNL     1      -2.136  12.463  20.410  0.00  0.00    +0.000 C 
ATOM     22  O   UNL     1      -2.492  12.496  19.234  0.00  0.00    +0.000 OA
ATOM     23  H   UNL     1      -0.438  11.121  22.586  0.00  0.00    +0.000 HD
ENDROOT
BRANCH   1  24
ATOM     24  C   UNL     1      -4.365  13.349  21.219  0.00  0.00    +0.000 C 
BRANCH  24  25
ATOM     25  C   UNL     1      -5.427  12.264  20.926  0.00  0.00    +0.000 C 
BRANCH  25  26
ATOM     26  C   UNL     1      -6.218  12.523  19.642  0.00  0.00    +0.000 C 
BRANCH  26  27
ATOM     27  N   UNL     1      -5.317  12.852  18.540  0.00  0.00    +0.000 NA
ATOM     28  H   UNL     1      -5.529  12.254  17.743  0.00  0.00    +0.000 HD
ATOM     29  H   UNL     1      -4.356  12.617  18.799  0.00  0.00    +0.000 HD
ENDBRANCH  26  27
ENDBRANCH  25  26
ENDBRANCH  24  25
ENDBRANCH   1  24
TORSDOF 4
ENDMDL
MODEL 7
REMARK VINA RESULT:      -6.5      8.420     11.726
REMARK  Name = 
REMARK  4 active torsions:
REMARK  status: ('A' for Active; 'I' for Inactive)
REMARK    1  A    between atoms: N_1  and  C_2
REMARK    2  A    between atoms: C_2  and  C_3
REMARK    3  A    between atoms: C_3  and  C_4
REMARK    4  A    between atoms: C_4  and  N_5
REMARK                            x       y       z     vdW  Elec       q    Type
REMARK                         _______ _______ _______ _____ _____    ______ ____
ROOT
ATOM      1  N   UNL     1      -1.988  14.489  23.608  0.00  0.00    +0.000 N 
ATOM      2  C   UNL     1      -3.433  14.462  23.463  0.00  0.00    +0.000 C 
ATOM      3  C   UNL     1      -3.760  13.019  23.801  0.00  0.00    +0.000 C 
ATOM      4  O   UNL     1      -4.014  12.601  24.918  0.00  0.00    +0.000 OA
ATOM      5  N   UNL     1      -3.451  12.206  22.719  0.00  0.00    +0.000 N 
ATOM      6  C   UNL     1      -2.015  12.250  22.331  0.00  0.00    +0.000 C 
ATOM      7  C   UNL     1      -1.232  11.118  23.054  0.00  0.00    +0.000 C 
ATOM      8  S   UNL     1      -0.005  10.473  21.840  0.00  0.00    +0.000 S 
ATOM      9  C   UNL     1      -0.957  11.012  20.504  0.00  0.00    +0.000 C 
ATOM     10  C   UNL     1      -1.927  11.871  20.855  0.00  0.00    +0.000 C 
ATOM     11  C   UNL     1      -2.970  12.220  19.872  0.00  0.00    +0.000 C 
ATOM     12  O   UNL     1      -3.876  12.982  20.196  0.00  0.00    +0.000 OA
ATOM     13  C   UNL     1      -2.948  11.556  18.550  0.00  0.00    +0.000 A 
ATOM     14  C   UNL     1      -4.030  11.727  17.672  0.00  0.00    +0.000 A 
ATOM     15  C   UNL     1      -3.995  11.158  16.393  0.00  0.00    +0.000 A 
ATOM     16  C   UNL     1      -2.884  10.418  15.989  0.00  0.00    +0.000 A 
ATOM     17  C   UNL     1      -1.827  10.208  16.879  0.00  0.00    +0.000 A 
ATOM     18  C   UNL     1      -1.870  10.755  18.171  0.00  0.00    +0.000 A 
ATOM     19  C   UNL     1      -0.797  10.440  19.146  0.00  0.00    +0.000 C 
ATOM     20  O   UNL     1       0.128   9.704  18.831  0.00  0.00    +0.000 OA
ATOM     21  C   UNL     1      -1.273  13.647  22.721  0.00  0.00    +0.000 C 
ATOM     22  O   UNL     1      -0.108  13.881  22.406  0.00  0.00    +0.000 OA
ATOM     23  H   UNL     1      -4.014  12.517  21.928  0.00  0.00    +0.000 HD
ENDROOT
BRANCH   1  24
ATOM     24  C   UNL     1      -1.373  15.657  24.255  0.00  0.00    +0.000 C 
BRANCH  24  25
ATOM     25  C   UNL     1      -1.321  16.934  23.386  0.00  0.00    +0.000 C 
BRANCH  25  26
ATOM     26  C   UNL     1       0.104  17.388  23.062  0.00  0.00    +0.000 C 
BRANCH  26  27
ATOM     27  N   UNL     1       1.079  16.433  23.583  0.00  0.00    +0.000 NA
ATOM     28  H   UNL     1       1.692  16.907  24.244  0.00  0.00    +0.000 HD
ATOM     29  H   UNL     1       1.694  16.121  22.828  0.00  0.00    +0.000 HD
ENDBRANCH  26  27
ENDBRANCH  25  26
ENDBRANCH  24  25
ENDBRANCH   1  24
TORSDOF 4
ENDMDL
MODEL 8
REMARK VINA RESULT:      -6.4      6.181     10.532
REMARK  Name = 
REMARK  4 active torsions:
REMARK  status: ('A' for Active; 'I' for Inactive)
REMARK    1  A    between atoms: N_1  and  C_2
REMARK    2  A    between atoms: C_2  and  C_3
REMARK    3  A    between atoms: C_3  and  C_4
REMARK    4  A    between atoms: C_4  and  N_5
REMARK                            x       y       z     vdW  Elec       q    Type
REMARK                         _______ _______ _______ _____ _____    ______ ____
ROOT
ATOM      1  N   UNL     1      -2.929  12.935  21.509  0.00  0.00    +0.000 N 
ATOM      2  C   UNL     1      -2.629  12.352  22.805  0.00  0.00    +0.000 C 
ATOM      3  C   UNL     1      -1.234  12.885  23.078  0.00  0.00    +0.000 C 
ATOM      4  O   UNL     1      -0.984  13.928  23.657  0.00  0.00    +0.000 OA
ATOM      5  N   UNL     1      -0.308  12.168  22.334  0.00  0.00    +0.000 N 
ATOM      6  C   UNL     1      -0.528  12.254  20.865  0.00  0.00    +0.000 C 
ATOM      7  C   UNL     1       0.306  13.423  20.267  0.00  0.00    +0.000 C 
ATOM      8  S   UNL     1       0.935  12.836  18.638  0.00  0.00    +0.000 S 
ATOM      9  C   UNL     1       0.814  11.183  19.121  0.00  0.00    +0.000 C 
ATOM     10  C   UNL     1       0.087  11.007  20.235  0.00  0.00    +0.000 C 
ATOM     11  C   UNL     1       0.103   9.693  20.905  0.00  0.00    +0.000 C 
ATOM     12  O   UNL     1      -0.537   9.533  21.940  0.00  0.00    +0.000 OA
ATOM     13  C   UNL     1       0.978   8.630  20.361  0.00  0.00    +0.000 A 
ATOM     14  C   UNL     1       1.154   7.441  21.085  0.00  0.00    +0.000 A 
ATOM     15  C   UNL     1       1.928   6.402  20.555  0.00  0.00    +0.000 A 
ATOM     16  C   UNL     1       2.524   6.547  19.302  0.00  0.00    +0.000 A 
ATOM     17  C   UNL     1       2.388   7.748  18.601  0.00  0.00    +0.000 A 
ATOM     18  C   UNL     1       1.635   8.802  19.143  0.00  0.00    +0.000 A 
ATOM     19  C   UNL     1       1.583  10.110  18.446  0.00  0.00    +0.000 C 
ATOM     20  O   UNL     1       2.192  10.278  17.398  0.00  0.00    +0.000 OA
ATOM     21  C   UNL     1      -2.078  12.533  20.450  0.00  0.00    +0.000 C 
ATOM     22  O   UNL     1      -2.450  12.558  19.278  0.00  0.00    +0.000 OA
ATOM     23  H   UNL     1      -0.371  11.191  22.618  0.00  0.00    +0.000 HD
ENDROOT
BRANCH   1  24
ATOM     24  C   UNL     1      -4.281  13.463  21.278  0.00  0.00    +0.000 C 
BRANCH  24  25
ATOM     25  C   UNL     1      -5.431  12.541  21.747  0.00  0.00    +0.000 C 
BRANCH  25  26
ATOM     26  C   UNL     1      -6.242  13.127  22.905  0.00  0.00    +0.000 C 
BRANCH  26  27
ATOM     27  N   UNL     1      -6.240  12.214  24.047  0.00  0.00    +0.000 NA
ATOM     28  H   UNL     1      -6.837  11.415  23.839  0.00  0.00    +0.000 HD
ATOM     29  H   UNL     1      -6.677  12.669  24.852  0.00  0.00    +0.000 HD
ENDBRANCH  26  27
ENDBRANCH  25  26
ENDBRANCH  24  25
ENDBRANCH   1  24
TORSDOF 4
ENDMDL
MODEL 9
REMARK VINA RESULT:      -6.3      6.050     10.414
REMARK  Name = 
REMARK  4 active torsions:
REMARK  status: ('A' for Active; 'I' for Inactive)
REMARK    1  A    between atoms: N_1  and  C_2
REMARK    2  A    between atoms: C_2  and  C_3
REMARK    3  A    between atoms: C_3  and  C_4
REMARK    4  A    between atoms: C_4  and  N_5
REMARK                            x       y       z     vdW  Elec       q    Type
REMARK                         _______ _______ _______ _____ _____    ______ ____
ROOT
ATOM      1  N   UNL     1      -2.914  12.666  21.567  0.00  0.00    +0.000 N 
ATOM      2  C   UNL     1      -2.567  12.065  22.842  0.00  0.00    +0.000 C 
ATOM      3  C   UNL     1      -1.184  12.635  23.097  0.00  0.00    +0.000 C 
ATOM      4  O   UNL     1      -0.952  13.673  23.694  0.00  0.00    +0.000 OA
ATOM      5  N   UNL     1      -0.253  11.964  22.317  0.00  0.00    +0.000 N 
ATOM      6  C   UNL     1      -0.508  12.075  20.855  0.00  0.00    +0.000 C 
ATOM      7  C   UNL     1       0.276  13.281  20.266  0.00  0.00    +0.000 C 
ATOM      8  S   UNL     1       0.886  12.750  18.611  0.00  0.00    +0.000 S 
ATOM      9  C   UNL     1       0.827  11.084  19.060  0.00  0.00    +0.000 C 
ATOM     10  C   UNL     1       0.130  10.861  20.184  0.00  0.00    +0.000 C 
ATOM     11  C   UNL     1       0.201   9.534  20.825  0.00  0.00    +0.000 C 
ATOM     12  O   UNL     1      -0.410   9.332  21.869  0.00  0.00    +0.000 OA
ATOM     13  C   UNL     1       1.096   8.511  20.238  0.00  0.00    +0.000 A 
ATOM     14  C   UNL     1       1.325   7.313  20.931  0.00  0.00    +0.000 A 
ATOM     15  C   UNL     1       2.117   6.310  20.361  0.00  0.00    +0.000 A 
ATOM     16  C   UNL     1       2.681   6.500  19.099  0.00  0.00    +0.000 A 
ATOM     17  C   UNL     1       2.493   7.712  18.428  0.00  0.00    +0.000 A 
ATOM     18  C   UNL     1       1.720   8.730  19.010  0.00  0.00    +0.000 A 
ATOM     19  C   UNL     1       1.612  10.051  18.343  0.00  0.00    +0.000 C 
ATOM     20  O   UNL     1       2.193  10.259  17.287  0.00  0.00    +0.000 OA
ATOM     21  C   UNL     1      -2.075  12.314  20.480  0.00  0.00    +0.000 C 
ATOM     22  O   UNL     1      -2.474  12.353  19.318  0.00  0.00    +0.000 OA
ATOM     23  H   UNL     1      -0.280  10.979  22.581  0.00  0.00    +0.000 HD
ENDROOT
BRANCH   1  24
ATOM     24  C   UNL     1      -4.287  13.157  21.377  0.00  0.00    +0.000 C 
BRANCH  24  25
ATOM     25  C   UNL     1      -4.535  14.606  21.857  0.00  0.00    +0.000 C 
BRANCH  25  26
ATOM     26  C   UNL     1      -3.324  15.522  21.666  0.00  0.00    +0.000 C 
BRANCH  26  27
ATOM     27  N   UNL     1      -2.803  15.962  22.959  0.00  0.00    +0.000 NA
ATOM     28  H   UNL     1      -3.467  16.606  23.387  0.00  0.00    +0.000 HD
ATOM     29  H   UNL     1      -1.953  16.513  22.818  0.00  0.00    +0.000 HD
ENDBRANCH  26  27
ENDBRANCH  25  26
ENDBRANCH  24  25
ENDBRANCH   1  24
TORSDOF 4
ENDMDL
