MODEL 1
REMARK VINA RESULT:      -7.4      0.000      0.000
REMARK  Name = 
REMARK  9 active torsions:
REMARK  status: ('A' for Active; 'I' for Inactive)
REMARK    1  A    between atoms: C_1  and  C_2
REMARK    2  A    between atoms: C_2  and  C_3
REMARK    3  A    between atoms: C_2  and  C_4
REMARK    4  A    between atoms: C_4  and  C_6
REMARK    5  A    between atoms: C_7  and  O_8
REMARK    6  A    between atoms: C_10  and  O_11
REMARK    7  A    between atoms: C_12  and  C_13
REMARK    8  A    between atoms: C_13  and  C_15
REMARK    9  A    between atoms: C_22  and  O_23
REMARK                            x       y       z     vdW  Elec       q    Type
REMARK                         _______ _______ _______ _____ _____    ______ ____
ROOT
ATOM      1  C   UNL     1       3.218   5.012  17.826  0.00  0.00    +0.000 A 
ATOM      2  C   UNL     1       3.197   6.377  18.152  0.00  0.00    +0.000 A 
ATOM      3  C   UNL     1       4.216   7.236  17.742  0.00  0.00    +0.000 A 
ATOM      4  C   UNL     1       5.305   6.723  17.040  0.00  0.00    +0.000 A 
ATOM      5  C   UNL     1       5.408   5.346  16.777  0.00  0.00    +0.000 A 
ATOM      6  C   UNL     1       4.357   4.495  17.184  0.00  0.00    +0.000 A 
ENDROOT
BRANCH   1   7
ATOM      7  C   UNL     1       2.066   4.158  18.257  0.00  0.00    +0.000 C 
ATOM      8  O   UNL     1       1.113   4.090  17.475  0.00  0.00    +0.000 OA
BRANCH   7  10
ATOM      9  C   UNL     1       1.061   3.865  20.549  0.00  0.00    +0.000 C 
ATOM     10  C   UNL     1       2.109   3.347  19.560  0.00  0.00    +0.000 C 
ATOM     11  C   UNL     1       1.887   1.857  19.303  0.00  0.00    +0.000 C 
ENDBRANCH   7  10
ENDBRANCH   1   7
BRANCH   2  12
ATOM     12  O   UNL     1       2.213   6.951  18.915  0.00  0.00    +0.000 OA
ATOM     13  H   UNL     1       1.732   7.595  18.343  0.00  0.00    +0.000 HD
ENDBRANCH   2  12
BRANCH   4  14
ATOM     14  O   UNL     1       6.269   7.590  16.606  0.00  0.00    +0.000 OA
ATOM     15  H   UNL     1       7.087   7.460  17.115  0.00  0.00    +0.000 HD
ENDBRANCH   4  14
BRANCH   5  16
ATOM     16  C   UNL     1       6.687   4.812  16.220  0.00  0.00    +0.000 C 
ATOM     17  O   UNL     1       7.522   4.337  16.988  0.00  0.00    +0.000 OA
BRANCH  16  18
ATOM     18  C   UNL     1       6.948   4.684  14.759  0.00  0.00    +0.000 A 
ATOM     19  C   UNL     1       6.172   3.757  14.041  0.00  0.00    +0.000 A 
ATOM     20  C   UNL     1       6.311   3.638  12.658  0.00  0.00    +0.000 A 
ATOM     21  C   UNL     1       7.227   4.446  11.997  0.00  0.00    +0.000 A 
ATOM     22  F   UNL     1       7.355   4.347  10.668  0.00  0.00    +0.000 F 
ATOM     23  C   UNL     1       8.018   5.356  12.697  0.00  0.00    +0.000 A 
ATOM     24  C   UNL     1       7.888   5.471  14.082  0.00  0.00    +0.000 A 
ENDBRANCH  16  18
ENDBRANCH   5  16
BRANCH   6  25
ATOM     25  O   UNL     1       4.436   3.138  17.060  0.00  0.00    +0.000 OA
ATOM     26  H   UNL     1       5.139   2.898  16.429  0.00  0.00    +0.000 HD
ENDBRANCH   6  25
TORSDOF 7
ENDMDL
MODEL 2
REMARK VINA RESULT:      -7.3      1.172      1.290
REMARK  Name = 
REMARK  9 active torsions:
REMARK  status: ('A' for Active; 'I' for Inactive)
REMARK    1  A    between atoms: C_1  and  C_2
REMARK    2  A    between atoms: C_2  and  C_3
REMARK    3  A    between atoms: C_2  and  C_4
REMARK    4  A    between atoms: C_4  and  C_6
REMARK    5  A    between atoms: C_7  and  O_8
REMARK    6  A    between atoms: C_10  and  O_11
REMARK    7  A    between atoms: C_12  and  C_13
REMARK    8  A    between atoms: C_13  and  C_15
REMARK    9  A    between atoms: C_22  and  O_23
REMARK                            x       y       z     vdW  Elec       q    Type
REMARK                         _______ _______ _______ _____ _____    ______ ____
ROOT
ATOM      1  C   UNL     1       3.563   5.064  19.002  0.00  0.00    +0.000 A 
ATOM      2  C   UNL     1       3.127   6.349  18.641  0.00  0.00    +0.000 A 
ATOM      3  C   UNL     1       3.722   7.048  17.592  0.00  0.00    +0.000 A 
ATOM      4  C   UNL     1       4.806   6.487  16.921  0.00  0.00    +0.000 A 
ATOM      5  C   UNL     1       5.332   5.244  17.315  0.00  0.00    +0.000 A 
ATOM      6  C   UNL     1       4.704   4.542  18.367  0.00  0.00    +0.000 A 
ENDROOT
BRANCH   1   7
ATOM      7  C   UNL     1       2.844   4.351  20.106  0.00  0.00    +0.000 C 
ATOM      8  O   UNL     1       2.767   4.948  21.183  0.00  0.00    +0.000 OA
BRANCH   7  10
ATOM      9  C   UNL     1       1.368   2.577  21.116  0.00  0.00    +0.000 C 
ATOM     10  C   UNL     1       2.168   2.991  19.877  0.00  0.00    +0.000 C 
ATOM     11  C   UNL     1       1.254   3.015  18.653  0.00  0.00    +0.000 C 
ENDBRANCH   7  10
ENDBRANCH   1   7
BRANCH   2  12
ATOM     12  O   UNL     1       2.128   7.015  19.303  0.00  0.00    +0.000 OA
ATOM     13  H   UNL     1       2.355   7.014  20.262  0.00  0.00    +0.000 HD
ENDBRANCH   2  12
BRANCH   4  14
ATOM     14  O   UNL     1       5.345   7.168  15.865  0.00  0.00    +0.000 OA
ATOM     15  H   UNL     1       4.936   6.871  15.035  0.00  0.00    +0.000 HD
ENDBRANCH   4  14
BRANCH   5  16
ATOM     16  C   UNL     1       6.621   4.784  16.717  0.00  0.00    +0.000 C 
ATOM     17  O   UNL     1       7.526   4.409  17.461  0.00  0.00    +0.000 OA
BRANCH  16  18
ATOM     18  C   UNL     1       6.822   4.611  15.251  0.00  0.00    +0.000 A 
ATOM     19  C   UNL     1       5.938   3.753  14.573  0.00  0.00    +0.000 A 
ATOM     20  C   UNL     1       6.020   3.602  13.189  0.00  0.00    +0.000 A 
ATOM     21  C   UNL     1       6.989   4.307  12.486  0.00  0.00    +0.000 A 
ATOM     22  F   UNL     1       7.064   4.178  11.156  0.00  0.00    +0.000 F 
ATOM     23  C   UNL     1       7.886   5.146  13.146  0.00  0.00    +0.000 A 
ATOM     24  C   UNL     1       7.811   5.293  14.532  0.00  0.00    +0.000 A 
ENDBRANCH  16  18
ENDBRANCH   5  16
BRANCH   6  25
ATOM     25  O   UNL     1       5.220   3.385  18.874  0.00  0.00    +0.000 OA
ATOM     26  H   UNL     1       5.748   2.926  18.196  0.00  0.00    +0.000 HD
ENDBRANCH   6  25
TORSDOF 7
ENDMDL
MODEL 3
REMARK VINA RESULT:      -7.3      0.659      1.224
REMARK  Name = 
REMARK  9 active torsions:
REMARK  status: ('A' for Active; 'I' for Inactive)
REMARK    1  A    between atoms: C_1  and  C_2
REMARK    2  A    between atoms: C_2  and  C_3
REMARK    3  A    between atoms: C_2  and  C_4
REMARK    4  A    between atoms: C_4  and  C_6
REMARK    5  A    between atoms: C_7  and  O_8
REMARK    6  A    between atoms: C_10  and  O_11
REMARK    7  A    between atoms: C_12  and  C_13
REMARK    8  A    between atoms: C_13  and  C_15
REMARK    9  A    between atoms: C_22  and  O_23
REMARK                            x       y       z     vdW  Elec       q    Type
REMARK                         _______ _______ _______ _____ _____    ______ ____
ROOT
ATOM      1  C   UNL     1       3.344   4.715  18.246  0.00  0.00    +0.000 A 
ATOM      2  C   UNL     1       3.183   6.097  18.436  0.00  0.00    +0.000 A 
ATOM      3  C   UNL     1       4.022   7.016  17.809  0.00  0.00    +0.000 A 
ATOM      4  C   UNL     1       5.076   6.559  17.021  0.00  0.00    +0.000 A 
ATOM      5  C   UNL     1       5.327   5.182  16.883  0.00  0.00    +0.000 A 
ATOM      6  C   UNL     1       4.454   4.266  17.510  0.00  0.00    +0.000 A 
ENDROOT
BRANCH   1   7
ATOM      7  C   UNL     1       2.374   3.787  18.909  0.00  0.00    +0.000 C 
ATOM      8  O   UNL     1       1.561   3.225  18.170  0.00  0.00    +0.000 OA
BRANCH   7  10
ATOM      9  C   UNL     1       1.099   2.977  20.926  0.00  0.00    +0.000 C 
ATOM     10  C   UNL     1       2.448   3.488  20.415  0.00  0.00    +0.000 C 
ATOM     11  C   UNL     1       3.543   2.472  20.733  0.00  0.00    +0.000 C 
ENDBRANCH   7  10
ENDBRANCH   1   7
BRANCH   2  12
ATOM     12  O   UNL     1       2.232   6.635  19.264  0.00  0.00    +0.000 OA
ATOM     13  H   UNL     1       1.357   6.281  18.979  0.00  0.00    +0.000 HD
ENDBRANCH   2  12
BRANCH   4  14
ATOM     14  O   UNL     1       5.858   7.477  16.378  0.00  0.00    +0.000 OA
ATOM     15  H   UNL     1       5.561   7.582  15.459  0.00  0.00    +0.000 HD
ENDBRANCH   4  14
BRANCH   5  16
ATOM     16  C   UNL     1       6.588   4.742  16.214  0.00  0.00    +0.000 C 
ATOM     17  O   UNL     1       7.532   4.366  16.906  0.00  0.00    +0.000 OA
BRANCH  16  18
ATOM     18  C   UNL     1       6.716   4.591  14.738  0.00  0.00    +0.000 A 
ATOM     19  C   UNL     1       7.693   5.367  14.089  0.00  0.00    +0.000 A 
ATOM     20  C   UNL     1       7.917   5.222  12.720  0.00  0.00    +0.000 A 
ATOM     21  C   UNL     1       7.163   4.302  12.003  0.00  0.00    +0.000 A 
ATOM     22  F   UNL     1       7.384   4.147  10.692  0.00  0.00    +0.000 F 
ATOM     23  C   UNL     1       6.177   3.540  12.628  0.00  0.00    +0.000 A 
ATOM     24  C   UNL     1       5.944   3.689  13.995  0.00  0.00    +0.000 A 
ENDBRANCH  16  18
ENDBRANCH   5  16
BRANCH   6  25
ATOM     25  O   UNL     1       4.695   2.922  17.510  0.00  0.00    +0.000 OA
ATOM     26  H   UNL     1       5.293   2.688  18.242  0.00  0.00    +0.000 HD
ENDBRANCH   6  25
TORSDOF 7
ENDMDL
MODEL 4
REMARK VINA RESULT:      -7.3      1.119      1.682
REMARK  Name = 
REMARK  9 active torsions:
REMARK  status: ('A' for Active; 'I' for Inactive)
REMARK    1  A    between atoms: C_1  and  C_2
REMARK    2  A    between atoms: C_2  and  C_3
REMARK    3  A    between atoms: C_2  and  C_4
REMARK    4  A    between atoms: C_4  and  C_6
REMARK    5  A    between atoms: C_7  and  O_8
REMARK    6  A    between atoms: C_10  and  O_11
REMARK    7  A    between atoms: C_12  and  C_13
REMARK    8  A    between atoms: C_13  and  C_15
REMARK    9  A    between atoms: C_22  and  O_23
REMARK                            x       y       z     vdW  Elec       q    Type
REMARK                         _______ _______ _______ _____ _____    ______ ____
ROOT
ATOM      1  C   UNL     1       3.682   4.755  18.841  0.00  0.00    +0.000 A 
ATOM      2  C   UNL     1       3.197   6.059  18.651  0.00  0.00    +0.000 A 
ATOM      3  C   UNL     1       3.722   6.891  17.663  0.00  0.00    +0.000 A 
ATOM      4  C   UNL     1       4.785   6.443  16.882  0.00  0.00    +0.000 A 
ATOM      5  C   UNL     1       5.360   5.179  17.105  0.00  0.00    +0.000 A 
ATOM      6  C   UNL     1       4.802   4.344  18.097  0.00  0.00    +0.000 A 
ENDROOT
BRANCH   1   7
ATOM      7  C   UNL     1       3.037   3.900  19.887  0.00  0.00    +0.000 C 
ATOM      8  O   UNL     1       3.774   3.486  20.786  0.00  0.00    +0.000 OA
BRANCH   7  10
ATOM      9  C   UNL     1       1.126   2.835  18.637  0.00  0.00    +0.000 C 
ATOM     10  C   UNL     1       1.525   3.629  19.884  0.00  0.00    +0.000 C 
ATOM     11  C   UNL     1       1.085   2.879  21.140  0.00  0.00    +0.000 C 
ENDBRANCH   7  10
ENDBRANCH   1   7
BRANCH   2  12
ATOM     12  O   UNL     1       2.216   6.616  19.431  0.00  0.00    +0.000 OA
ATOM     13  H   UNL     1       2.619   7.371  19.921  0.00  0.00    +0.000 HD
ENDBRANCH   2  12
BRANCH   4  14
ATOM     14  O   UNL     1       5.253   7.256  15.888  0.00  0.00    +0.000 OA
ATOM     15  H   UNL     1       6.056   7.715  16.185  0.00  0.00    +0.000 HD
ENDBRANCH   4  14
BRANCH   5  16
ATOM     16  C   UNL     1       6.629   4.830  16.399  0.00  0.00    +0.000 C 
ATOM     17  O   UNL     1       7.630   4.567  17.062  0.00  0.00    +0.000 OA
BRANCH  16  18
ATOM     18  C   UNL     1       6.711   4.633  14.924  0.00  0.00    +0.000 A 
ATOM     19  C   UNL     1       7.708   5.342  14.231  0.00  0.00    +0.000 A 
ATOM     20  C   UNL     1       7.891   5.149  12.861  0.00  0.00    +0.000 A 
ATOM     21  C   UNL     1       7.074   4.249  12.189  0.00  0.00    +0.000 A 
ATOM     22  F   UNL     1       7.254   4.049  10.877  0.00  0.00    +0.000 F 
ATOM     23  C   UNL     1       6.068   3.554  12.858  0.00  0.00    +0.000 A 
ATOM     24  C   UNL     1       5.877   3.750  14.226  0.00  0.00    +0.000 A 
ENDBRANCH  16  18
ENDBRANCH   5  16
BRANCH   6  25
ATOM     25  O   UNL     1       5.371   3.152  18.444  0.00  0.00    +0.000 OA
ATOM     26  H   UNL     1       6.271   3.297  18.789  0.00  0.00    +0.000 HD
ENDBRANCH   6  25
TORSDOF 7
ENDMDL
MODEL 5
REMARK VINA RESULT:      -7.2      1.613      1.814
REMARK  Name = 
REMARK  9 active torsions:
REMARK  status: ('A' for Active; 'I' for Inactive)
REMARK    1  A    between atoms: C_1  and  C_2
REMARK    2  A    between atoms: C_2  and  C_3
REMARK    3  A    between atoms: C_2  and  C_4
REMARK    4  A    between atoms: C_4  and  C_6
REMARK    5  A    between atoms: C_7  and  O_8
REMARK    6  A    between atoms: C_10  and  O_11
REMARK    7  A    between atoms: C_12  and  C_13
REMARK    8  A    between atoms: C_13  and  C_15
REMARK    9  A    between atoms: C_22  and  O_23
REMARK                            x       y       z     vdW  Elec       q    Type
REMARK                         _______ _______ _______ _____ _____    ______ ____
ROOT
ATOM      1  C   UNL     1       3.448   4.214  19.697  0.00  0.00    +0.000 A 
ATOM      2  C   UNL     1       2.989   5.540  19.715  0.00  0.00    +0.000 A 
ATOM      3  C   UNL     1       3.573   6.520  18.914  0.00  0.00    +0.000 A 
ATOM      4  C   UNL     1       4.669   6.192  18.118  0.00  0.00    +0.000 A 
ATOM      5  C   UNL     1       5.217   4.898  18.144  0.00  0.00    +0.000 A 
ATOM      6  C   UNL     1       4.599   3.914  18.947  0.00  0.00    +0.000 A 
ENDROOT
BRANCH   1   7
ATOM      7  C   UNL     1       2.740   3.203  20.546  0.00  0.00    +0.000 C 
ATOM      8  O   UNL     1       3.096   3.135  21.726  0.00  0.00    +0.000 OA
BRANCH   7  10
ATOM      9  C   UNL     1       0.276   3.168  20.019  0.00  0.00    +0.000 C 
ATOM     10  C   UNL     1       1.578   2.363  19.995  0.00  0.00    +0.000 C 
ATOM     11  C   UNL     1       1.861   1.875  18.575  0.00  0.00    +0.000 C 
ENDBRANCH   7  10
ENDBRANCH   1   7
BRANCH   2  12
ATOM     12  O   UNL     1       1.977   5.973  20.533  0.00  0.00    +0.000 OA
ATOM     13  H   UNL     1       1.144   5.545  20.225  0.00  0.00    +0.000 HD
ENDBRANCH   2  12
BRANCH   4  14
ATOM     14  O   UNL     1       5.197   7.156  17.304  0.00  0.00    +0.000 OA
ATOM     15  H   UNL     1       4.505   7.520  16.728  0.00  0.00    +0.000 HD
ENDBRANCH   4  14
BRANCH   5  16
ATOM     16  C   UNL     1       6.515   4.650  17.449  0.00  0.00    +0.000 C 
ATOM     17  O   UNL     1       7.524   4.443  18.121  0.00  0.00    +0.000 OA
BRANCH  16  18
ATOM     18  C   UNL     1       6.629   4.488  15.972  0.00  0.00    +0.000 A 
ATOM     19  C   UNL     1       5.712   3.629  15.341  0.00  0.00    +0.000 A 
ATOM     20  C   UNL     1       5.713   3.488  13.954  0.00  0.00    +0.000 A 
ATOM     21  C   UNL     1       6.633   4.205  13.200  0.00  0.00    +0.000 A 
ATOM     22  F   UNL     1       6.630   4.086  11.867  0.00  0.00    +0.000 F 
ATOM     23  C   UNL     1       7.563   5.046  13.812  0.00  0.00    +0.000 A 
ATOM     24  C   UNL     1       7.570   5.183  15.201  0.00  0.00    +0.000 A 
ENDBRANCH  16  18
ENDBRANCH   5  16
BRANCH   6  25
ATOM     25  O   UNL     1       5.136   2.669  19.107  0.00  0.00    +0.000 OA
ATOM     26  H   UNL     1       5.307   2.495  20.050  0.00  0.00    +0.000 HD
ENDBRANCH   6  25
TORSDOF 7
ENDMDL
MODEL 6
REMARK VINA RESULT:      -6.9      1.879      2.876
REMARK  Name = 
REMARK  9 active torsions:
REMARK  status: ('A' for Active; 'I' for Inactive)
REMARK    1  A    between atoms: C_1  and  C_2
REMARK    2  A    between atoms: C_2  and  C_3
REMARK    3  A    between atoms: C_2  and  C_4
REMARK    4  A    between atoms: C_4  and  C_6
REMARK    5  A    between atoms: C_7  and  O_8
REMARK    6  A    between atoms: C_10  and  O_11
REMARK    7  A    between atoms: C_12  and  C_13
REMARK    8  A    between atoms: C_13  and  C_15
REMARK    9  A    between atoms: C_22  and  O_23
REMARK                            x       y       z     vdW  Elec       q    Type
REMARK                         _______ _______ _______ _____ _____    ______ ____
ROOT
ATOM      1  C   UNL     1       3.825   5.980  18.293  0.00  0.00    +0.000 A 
ATOM      2  C   UNL     1       4.181   5.002  19.236  0.00  0.00    +0.000 A 
ATOM      3  C   UNL     1       5.438   4.401  19.218  0.00  0.00    +0.000 A 
ATOM      4  C   UNL     1       6.344   4.735  18.213  0.00  0.00    +0.000 A 
ATOM      5  C   UNL     1       5.990   5.638  17.196  0.00  0.00    +0.000 A 
ATOM      6  C   UNL     1       4.719   6.251  17.243  0.00  0.00    +0.000 A 
ENDROOT
BRANCH   1   7
ATOM      7  C   UNL     1       2.476   6.619  18.404  0.00  0.00    +0.000 C 
ATOM      8  O   UNL     1       1.508   5.909  18.116  0.00  0.00    +0.000 OA
BRANCH   7  10
ATOM      9  C   UNL     1       1.580   8.920  17.898  0.00  0.00    +0.000 C 
ATOM     10  C   UNL     1       2.306   8.053  18.930  0.00  0.00    +0.000 C 
ATOM     11  C   UNL     1       1.547   8.079  20.256  0.00  0.00    +0.000 C 
ENDBRANCH   7  10
ENDBRANCH   1   7
BRANCH   2  12
ATOM     12  O   UNL     1       3.323   4.547  20.205  0.00  0.00    +0.000 OA
ATOM     13  H   UNL     1       3.736   3.752  20.616  0.00  0.00    +0.000 HD
ENDBRANCH   2  12
BRANCH   4  14
ATOM     14  O   UNL     1       7.588   4.169  18.241  0.00  0.00    +0.000 OA
ATOM     15  H   UNL     1       8.266   4.860  18.329  0.00  0.00    +0.000 HD
ENDBRANCH   4  14
BRANCH   5  16
ATOM     16  C   UNL     1       6.903   5.799  16.025  0.00  0.00    +0.000 C 
ATOM     17  O   UNL     1       7.894   6.518  16.133  0.00  0.00    +0.000 OA
BRANCH  16  18
ATOM     18  C   UNL     1       6.761   5.011  14.768  0.00  0.00    +0.000 A 
ATOM     19  C   UNL     1       5.671   4.127  14.678  0.00  0.00    +0.000 A 
ATOM     20  C   UNL     1       5.434   3.413  13.504  0.00  0.00    +0.000 A 
ATOM     21  C   UNL     1       6.289   3.584  12.422  0.00  0.00    +0.000 A 
ATOM     22  F   UNL     1       6.059   2.913  11.287  0.00  0.00    +0.000 F 
ATOM     23  C   UNL     1       7.386   4.441  12.503  0.00  0.00    +0.000 A 
ATOM     24  C   UNL     1       7.630   5.150  13.679  0.00  0.00    +0.000 A 
ENDBRANCH  16  18
ENDBRANCH   5  16
BRANCH   6  25
ATOM     25  O   UNL     1       4.266   7.054  16.236  0.00  0.00    +0.000 OA
ATOM     26  H   UNL     1       4.874   7.016  15.476  0.00  0.00    +0.000 HD
ENDBRANCH   6  25
TORSDOF 7
ENDMDL
MODEL 7
REMARK VINA RESULT:      -6.9      1.841      3.003
REMARK  Name = 
REMARK  9 active torsions:
REMARK  status: ('A' for Active; 'I' for Inactive)
REMARK    1  A    between atoms: C_1  and  C_2
REMARK    2  A    between atoms: C_2  and  C_3
REMARK    3  A    between atoms: C_2  and  C_4
REMARK    4  A    between atoms: C_4  and  C_6
REMARK    5  A    between atoms: C_7  and  O_8
REMARK    6  A    between atoms: C_10  and  O_11
REMARK    7  A    between atoms: C_12  and  C_13
REMARK    8  A    between atoms: C_13  and  C_15
REMARK    9  A    between atoms: C_22  and  O_23
REMARK                            x       y       z     vdW  Elec       q    Type
REMARK                         _______ _______ _______ _____ _____    ______ ____
ROOT
ATOM      1  C   UNL     1       3.820   5.935  18.303  0.00  0.00    +0.000 A 
ATOM      2  C   UNL     1       4.181   4.932  19.216  0.00  0.00    +0.000 A 
ATOM      3  C   UNL     1       5.437   4.329  19.171  0.00  0.00    +0.000 A 
ATOM      4  C   UNL     1       6.335   4.688  18.168  0.00  0.00    +0.000 A 
ATOM      5  C   UNL     1       5.975   5.620  17.179  0.00  0.00    +0.000 A 
ATOM      6  C   UNL     1       4.706   6.234  17.253  0.00  0.00    +0.000 A 
ENDROOT
BRANCH   1   7
ATOM      7  C   UNL     1       2.473   6.575  18.442  0.00  0.00    +0.000 C 
ATOM      8  O   UNL     1       1.499   5.862  18.183  0.00  0.00    +0.000 OA
BRANCH   7  10
ATOM      9  C   UNL     1       1.579   8.875  17.934  0.00  0.00    +0.000 C 
ATOM     10  C   UNL     1       2.315   8.011  18.963  0.00  0.00    +0.000 C 
ATOM     11  C   UNL     1       1.572   8.048  20.297  0.00  0.00    +0.000 C 
ENDBRANCH   7  10
ENDBRANCH   1   7
BRANCH   2  12
ATOM     12  O   UNL     1       3.330   4.452  20.179  0.00  0.00    +0.000 OA
ATOM     13  H   UNL     1       3.213   3.487  20.016  0.00  0.00    +0.000 HD
ENDBRANCH   2  12
BRANCH   4  14
ATOM     14  O   UNL     1       7.578   4.119  18.170  0.00  0.00    +0.000 OA
ATOM     15  H   UNL     1       7.614   3.396  17.522  0.00  0.00    +0.000 HD
ENDBRANCH   4  14
BRANCH   5  16
ATOM     16  C   UNL     1       6.879   5.811  16.005  0.00  0.00    +0.000 C 
ATOM     17  O   UNL     1       7.884   6.506  16.131  0.00  0.00    +0.000 OA
BRANCH  16  18
ATOM     18  C   UNL     1       6.708   5.077  14.719  0.00  0.00    +0.000 A 
ATOM     19  C   UNL     1       7.643   5.330  13.700  0.00  0.00    +0.000 A 
ATOM     20  C   UNL     1       7.588   4.625  12.498  0.00  0.00    +0.000 A 
ATOM     21  C   UNL     1       6.597   3.669  12.318  0.00  0.00    +0.000 A 
ATOM     22  F   UNL     1       6.548   2.977  11.172  0.00  0.00    +0.000 F 
ATOM     23  C   UNL     1       5.650   3.420  13.311  0.00  0.00    +0.000 A 
ATOM     24  C   UNL     1       5.697   4.131  14.511  0.00  0.00    +0.000 A 
ENDBRANCH  16  18
ENDBRANCH   5  16
BRANCH   6  25
ATOM     25  O   UNL     1       4.246   7.065  16.272  0.00  0.00    +0.000 OA
ATOM     26  H   UNL     1       3.537   7.635  16.620  0.00  0.00    +0.000 HD
ENDBRANCH   6  25
TORSDOF 7
ENDMDL
MODEL 8
REMARK VINA RESULT:      -6.9      4.117      6.474
REMARK  Name = 
REMARK  9 active torsions:
REMARK  status: ('A' for Active; 'I' for Inactive)
REMARK    1  A    between atoms: C_1  and  C_2
REMARK    2  A    between atoms: C_2  and  C_3
REMARK    3  A    between atoms: C_2  and  C_4
REMARK    4  A    between atoms: C_4  and  C_6
REMARK    5  A    between atoms: C_7  and  O_8
REMARK    6  A    between atoms: C_10  and  O_11
REMARK    7  A    between atoms: C_12  and  C_13
REMARK    8  A    between atoms: C_13  and  C_15
REMARK    9  A    between atoms: C_22  and  O_23
REMARK                            x       y       z     vdW  Elec       q    Type
REMARK                         _______ _______ _______ _____ _____    ______ ____
ROOT
ATOM      1  C   UNL     1       0.944   9.660  19.386  0.00  0.00    +0.000 A 
ATOM      2  C   UNL     1       0.614   9.072  20.617  0.00  0.00    +0.000 A 
ATOM      3  C   UNL     1       1.206   7.881  21.033  0.00  0.00    +0.000 A 
ATOM      4  C   UNL     1       2.104   7.229  20.190  0.00  0.00    +0.000 A 
ATOM      5  C   UNL     1       2.388   7.737  18.910  0.00  0.00    +0.000 A 
ATOM      6  C   UNL     1       1.793   8.955  18.515  0.00  0.00    +0.000 A 
ENDROOT
BRANCH   1   7
ATOM      7  C   UNL     1       0.307  10.967  19.026  0.00  0.00    +0.000 C 
ATOM      8  O   UNL     1       1.053  11.949  18.995  0.00  0.00    +0.000 OA
BRANCH   7  10
ATOM      9  C   UNL     1      -1.505  12.457  18.107  0.00  0.00    +0.000 C 
ATOM     10  C   UNL     1      -1.175  11.057  18.633  0.00  0.00    +0.000 C 
ATOM     11  C   UNL     1      -1.544  10.008  17.586  0.00  0.00    +0.000 C 
ENDBRANCH   7  10
ENDBRANCH   1   7
BRANCH   2  12
ATOM     12  O   UNL     1      -0.324   9.594  21.470  0.00  0.00    +0.000 OA
ATOM     13  H   UNL     1      -0.107   9.279  22.379  0.00  0.00    +0.000 HD
ENDBRANCH   2  12
BRANCH   4  14
ATOM     14  O   UNL     1       2.708   6.087  20.637  0.00  0.00    +0.000 OA
ATOM     15  H   UNL     1       2.738   6.085  21.608  0.00  0.00    +0.000 HD
ENDBRANCH   4  14
BRANCH   5  16
ATOM     16  C   UNL     1       3.179   6.898  17.961  0.00  0.00    +0.000 C 
ATOM     17  O   UNL     1       4.091   7.417  17.322  0.00  0.00    +0.000 OA
BRANCH  16  18
ATOM     18  C   UNL     1       3.022   5.420  17.856  0.00  0.00    +0.000 A 
ATOM     19  C   UNL     1       4.193   4.641  17.865  0.00  0.00    +0.000 A 
ATOM     20  C   UNL     1       4.117   3.249  17.844  0.00  0.00    +0.000 A 
ATOM     21  C   UNL     1       2.870   2.638  17.813  0.00  0.00    +0.000 A 
ATOM     22  F   UNL     1       2.790   1.302  17.809  0.00  0.00    +0.000 F 
ATOM     23  C   UNL     1       1.700   3.396  17.784  0.00  0.00    +0.000 A 
ATOM     24  C   UNL     1       1.773   4.790  17.796  0.00  0.00    +0.000 A 
ENDBRANCH  16  18
ENDBRANCH   5  16
BRANCH   6  25
ATOM     25  O   UNL     1       1.937   9.453  17.251  0.00  0.00    +0.000 OA
ATOM     26  H   UNL     1       2.841   9.292  16.927  0.00  0.00    +0.000 HD
ENDBRANCH   6  25
TORSDOF 7
ENDMDL
MODEL 9
REMARK VINA RESULT:      -6.8      1.665      2.396
REMARK  Name = 
REMARK  9 active torsions:
REMARK  status: ('A' for Active; 'I' for Inactive)
REMARK    1  A    between atoms: C_1  and  C_2
REMARK    2  A    between atoms: C_2  and  C_3
REMARK    3  A    between atoms: C_2  and  C_4
REMARK    4  A    between atoms: C_4  and  C_6
REMARK    5  A    between atoms: C_7  and  O_8
REMARK    6  A    between atoms: C_10  and  O_11
REMARK    7  A    between atoms: C_12  and  C_13
REMARK    8  A    between atoms: C_13  and  C_15
REMARK    9  A    between atoms: C_22  and  O_23
REMARK                            x       y       z     vdW  Elec       q    Type
REMARK                         _______ _______ _______ _____ _____    ______ ____
ROOT
ATOM      1  C   UNL     1       3.606   3.470  18.773  0.00  0.00    +0.000 A 
ATOM      2  C   UNL     1       4.741   3.286  19.579  0.00  0.00    +0.000 A 
ATOM      3  C   UNL     1       5.934   3.955  19.312  0.00  0.00    +0.000 A 
ATOM      4  C   UNL     1       6.023   4.782  18.194  0.00  0.00    +0.000 A 
ATOM      5  C   UNL     1       4.938   4.917  17.310  0.00  0.00    +0.000 A 
ATOM      6  C   UNL     1       3.731   4.247  17.608  0.00  0.00    +0.000 A 
ENDROOT
BRANCH   1   7
ATOM      7  C   UNL     1       2.343   2.758  19.148  0.00  0.00    +0.000 C 
ATOM      8  O   UNL     1       2.189   1.630  18.674  0.00  0.00    +0.000 OA
BRANCH   7  10
ATOM      9  C   UNL     1       1.424   2.660  21.492  0.00  0.00    +0.000 C 
ATOM     10  C   UNL     1       1.339   3.369  20.138  0.00  0.00    +0.000 C 
ATOM     11  C   UNL     1       1.571   4.868  20.321  0.00  0.00    +0.000 C 
ENDBRANCH   7  10
ENDBRANCH   1   7
BRANCH   2  12
ATOM     12  O   UNL     1       4.772   2.425  20.645  0.00  0.00    +0.000 OA
ATOM     13  H   UNL     1       5.315   1.645  20.380  0.00  0.00    +0.000 HD
ENDBRANCH   2  12
BRANCH   4  14
ATOM     14  O   UNL     1       7.188   5.465  17.978  0.00  0.00    +0.000 OA
ATOM     15  H   UNL     1       7.048   6.156  17.309  0.00  0.00    +0.000 HD
ENDBRANCH   4  14
BRANCH   5  16
ATOM     16  C   UNL     1       5.147   5.633  16.016  0.00  0.00    +0.000 C 
ATOM     17  O   UNL     1       4.887   6.832  15.947  0.00  0.00    +0.000 OA
BRANCH  16  18
ATOM     18  C   UNL     1       5.801   5.003  14.835  0.00  0.00    +0.000 A 
ATOM     19  C   UNL     1       5.042   4.086  14.086  0.00  0.00    +0.000 A 
ATOM     20  C   UNL     1       5.564   3.516  12.926  0.00  0.00    +0.000 A 
ATOM     21  C   UNL     1       6.846   3.862  12.518  0.00  0.00    +0.000 A 
ATOM     22  F   UNL     1       7.348   3.329  11.397  0.00  0.00    +0.000 F 
ATOM     23  C   UNL     1       7.619   4.754  13.260  0.00  0.00    +0.000 A 
ATOM     24  C   UNL     1       7.103   5.320  14.426  0.00  0.00    +0.000 A 
ENDBRANCH  16  18
ENDBRANCH   5  16
BRANCH   6  25
ATOM     25  O   UNL     1       2.674   4.244  16.744  0.00  0.00    +0.000 OA
ATOM     26  H   UNL     1       2.985   4.376  15.831  0.00  0.00    +0.000 HD
ENDBRANCH   6  25
TORSDOF 7
ENDMDL
