MODEL 1
REMARK VINA RESULT:      -8.3      0.000      0.000
REMARK  Name = 
REMARK  5 active torsions:
REMARK  status: ('A' for Active; 'I' for Inactive)
REMARK    1  A    between atoms: C_2  and  C_3
REMARK    2  A    between atoms: C_3  and  C_4
REMARK    3  A    between atoms: N_10  and  C_11
REMARK    4  A    between atoms: C_11  and  C_12
REMARK    5  A    between atoms: N_22  and  C_23
REMARK                            x       y       z     vdW  Elec       q    Type
REMARK                         _______ _______ _______ _____ _____    ______ ____
ROOT
ATOM      1  C   UNL     1       2.470   3.705  18.646  0.00  0.00    +0.000 C 
ATOM      2  C   UNL     1       1.405   2.664  19.050  0.00  0.00    +0.000 C 
ATOM      3  O   UNL     1       0.433   2.420  18.338  0.00  0.00    +0.000 OA
ATOM      4  N   UNL     1       1.599   1.958  20.209  0.00  0.00    +0.000 N 
ATOM      5  C   UNL     1       2.467   2.411  21.278  0.00  0.00    +0.000 C 
ATOM      6  C   UNL     1       3.567   3.367  20.803  0.00  0.00    +0.000 C 
ATOM      7  N   UNL     1       3.086   4.385  19.842  0.00  0.00    +0.000 NA
ATOM      8  H   UNL     1       0.845   1.319  20.429  0.00  0.00    +0.000 HD
ENDROOT
BRANCH   1   9
ATOM      9  C   UNL     1       3.543   3.047  17.767  0.00  0.00    +0.000 C 
BRANCH   9  11
ATOM     10  O   UNL     1       4.667   4.208  15.993  0.00  0.00    +0.000 OA
ATOM     11  C   UNL     1       4.577   4.006  17.198  0.00  0.00    +0.000 C 
ATOM     12  N   UNL     1       5.460   4.526  18.120  0.00  0.00    +0.000 N 
ATOM     13  H   UNL     1       5.232   4.468  19.102  0.00  0.00    +0.000 HD
BRANCH  12  14
ATOM     14  C   UNL     1       6.540   5.412  17.731  0.00  0.00    +0.000 C 
ATOM     15  C   UNL     1       6.060   6.801  17.325  0.00  0.00    +0.000 C 
ATOM     16  C   UNL     1       7.308   7.667  17.446  0.00  0.00    +0.000 C 
ATOM     17  C   UNL     1       8.151   7.035  18.554  0.00  0.00    +0.000 C 
ATOM     18  C   UNL     1       7.485   5.705  18.896  0.00  0.00    +0.000 C 
ENDBRANCH  12  14
ENDBRANCH   9  11
ENDBRANCH   1   9
BRANCH   7  19
ATOM     19  C   UNL     1       2.117   5.324  20.457  0.00  0.00    +0.000 C 
BRANCH  19  20
ATOM     20  C   UNL     1       2.077   6.693  19.804  0.00  0.00    +0.000 A 
ATOM     21  C   UNL     1       2.616   6.891  18.527  0.00  0.00    +0.000 A 
ATOM     22  C   UNL     1       2.576   8.152  17.924  0.00  0.00    +0.000 A 
ATOM     23  C   UNL     1       1.972   9.241  18.571  0.00  0.00    +0.000 A 
ATOM     24  C   UNL     1       1.919  10.510  17.971  0.00  0.00    +0.000 A 
ATOM     25  C   UNL     1       1.280  11.576  18.606  0.00  0.00    +0.000 A 
ATOM     26  C   UNL     1       0.691  11.387  19.851  0.00  0.00    +0.000 A 
ATOM     27  C   UNL     1       0.757  10.137  20.473  0.00  0.00    +0.000 A 
ATOM     28  C   UNL     1       1.397   9.052  19.847  0.00  0.00    +0.000 A 
ATOM     29  C   UNL     1       1.468   7.782  20.453  0.00  0.00    +0.000 A 
ENDBRANCH  19  20
ENDBRANCH   7  19
TORSDOF 5
ENDMDL
MODEL 2
REMARK VINA RESULT:      -8.3      2.822      4.597
REMARK  Name = 
REMARK  5 active torsions:
REMARK  status: ('A' for Active; 'I' for Inactive)
REMARK    1  A    between atoms: C_2  and  C_3
REMARK    2  A    between atoms: C_3  and  C_4
REMARK    3  A    between atoms: N_10  and  C_11
REMARK    4  A    between atoms: C_11  and  C_12
REMARK    5  A    between atoms: N_22  and  C_23
REMARK                            x       y       z     vdW  Elec       q    Type
REMARK                         _______ _______ _______ _____ _____    ______ ____
ROOT
ATOM      1  C   UNL     1       6.297   6.636  17.213  0.00  0.00    +0.000 C 
ATOM      2  C   UNL     1       6.485   5.362  16.364  0.00  0.00    +0.000 C 
ATOM      3  O   UNL     1       6.819   5.413  15.182  0.00  0.00    +0.000 OA
ATOM      4  N   UNL     1       6.332   4.146  16.979  0.00  0.00    +0.000 N 
ATOM      5  C   UNL     1       5.595   3.971  18.215  0.00  0.00    +0.000 C 
ATOM      6  C   UNL     1       5.523   5.244  19.066  0.00  0.00    +0.000 C 
ATOM      7  N   UNL     1       5.242   6.464  18.275  0.00  0.00    +0.000 NA
ATOM      8  H   UNL     1       6.435   3.356  16.355  0.00  0.00    +0.000 HD
ENDROOT
BRANCH   1   9
ATOM      9  C   UNL     1       7.639   7.062  17.827  0.00  0.00    +0.000 C 
BRANCH   9  11
ATOM     10  O   UNL     1       7.286   9.341  17.162  0.00  0.00    +0.000 OA
ATOM     11  C   UNL     1       7.842   8.566  17.931  0.00  0.00    +0.000 C 
ATOM     12  N   UNL     1       8.774   8.966  18.864  0.00  0.00    +0.000 N 
ATOM     13  H   UNL     1       9.062   8.313  19.577  0.00  0.00    +0.000 HD
BRANCH  12  14
ATOM     14  C   UNL     1       9.124  10.361  19.048  0.00  0.00    +0.000 C 
ATOM     15  C   UNL     1       9.633  10.672  20.452  0.00  0.00    +0.000 C 
ATOM     16  C   UNL     1      10.381  11.989  20.284  0.00  0.00    +0.000 C 
ATOM     17  C   UNL     1      10.923  11.984  18.855  0.00  0.00    +0.000 C 
ATOM     18  C   UNL     1      10.297  10.777  18.162  0.00  0.00    +0.000 C 
ENDBRANCH  12  14
ENDBRANCH   9  11
ENDBRANCH   1   9
BRANCH   7  19
ATOM     19  C   UNL     1       3.892   6.436  17.661  0.00  0.00    +0.000 C 
BRANCH  19  20
ATOM     20  C   UNL     1       2.922   7.446  18.246  0.00  0.00    +0.000 A 
ATOM     21  C   UNL     1       2.465   8.524  17.479  0.00  0.00    +0.000 A 
ATOM     22  C   UNL     1       1.569   9.452  18.017  0.00  0.00    +0.000 A 
ATOM     23  C   UNL     1       1.084   9.310  19.326  0.00  0.00    +0.000 A 
ATOM     24  C   UNL     1       0.177  10.233  19.874  0.00  0.00    +0.000 A 
ATOM     25  C   UNL     1      -0.330  10.059  21.162  0.00  0.00    +0.000 A 
ATOM     26  C   UNL     1       0.069   8.964  21.922  0.00  0.00    +0.000 A 
ATOM     27  C   UNL     1       0.991   8.052  21.401  0.00  0.00    +0.000 A 
ATOM     28  C   UNL     1       1.511   8.212  20.104  0.00  0.00    +0.000 A 
ATOM     29  C   UNL     1       2.435   7.299  19.557  0.00  0.00    +0.000 A 
ENDBRANCH  19  20
ENDBRANCH   7  19
TORSDOF 5
ENDMDL
MODEL 3
REMARK VINA RESULT:      -8.1      1.772      4.888
REMARK  Name = 
REMARK  5 active torsions:
REMARK  status: ('A' for Active; 'I' for Inactive)
REMARK    1  A    between atoms: C_2  and  C_3
REMARK    2  A    between atoms: C_3  and  C_4
REMARK    3  A    between atoms: N_10  and  C_11
REMARK    4  A    between atoms: C_11  and  C_12
REMARK    5  A    between atoms: N_22  and  C_23
REMARK                            x       y       z     vdW  Elec       q    Type
REMARK                         _______ _______ _______ _____ _____    ______ ____
ROOT
ATOM      1  C   UNL     1       5.683   6.331  18.140  0.00  0.00    +0.000 C 
ATOM      2  C   UNL     1       6.705   6.799  17.083  0.00  0.00    +0.000 C 
ATOM      3  O   UNL     1       7.569   7.635  17.340  0.00  0.00    +0.000 OA
ATOM      4  N   UNL     1       6.672   6.208  15.847  0.00  0.00    +0.000 N 
ATOM      5  C   UNL     1       5.507   5.519  15.328  0.00  0.00    +0.000 C 
ATOM      6  C   UNL     1       4.575   4.990  16.425  0.00  0.00    +0.000 C 
ATOM      7  N   UNL     1       4.359   5.955  17.527  0.00  0.00    +0.000 NA
ATOM      8  H   UNL     1       7.347   6.587  15.194  0.00  0.00    +0.000 HD
ENDROOT
BRANCH   1   9
ATOM      9  C   UNL     1       6.266   5.171  18.960  0.00  0.00    +0.000 C 
BRANCH   9  11
ATOM     10  O   UNL     1       5.505   2.900  18.820  0.00  0.00    +0.000 OA
ATOM     11  C   UNL     1       5.294   4.034  19.234  0.00  0.00    +0.000 C 
ATOM     12  N   UNL     1       4.128   4.403  19.868  0.00  0.00    +0.000 N 
ATOM     13  H   UNL     1       4.088   5.297  20.336  0.00  0.00    +0.000 HD
BRANCH  12  14
ATOM     14  C   UNL     1       3.074   3.448  20.152  0.00  0.00    +0.000 C 
ATOM     15  C   UNL     1       2.358   3.719  21.470  0.00  0.00    +0.000 C 
ATOM     16  C   UNL     1       1.041   2.964  21.331  0.00  0.00    +0.000 C 
ATOM     17  C   UNL     1       0.713   2.966  19.838  0.00  0.00    +0.000 C 
ATOM     18  C   UNL     1       1.944   3.525  19.128  0.00  0.00    +0.000 C 
ENDBRANCH  12  14
ENDBRANCH   9  11
ENDBRANCH   1   9
BRANCH   7  19
ATOM     19  C   UNL     1       3.635   7.168  17.077  0.00  0.00    +0.000 C 
BRANCH  19  20
ATOM     20  C   UNL     1       2.714   7.767  18.124  0.00  0.00    +0.000 A 
ATOM     21  C   UNL     1       2.529   7.134  19.359  0.00  0.00    +0.000 A 
ATOM     22  C   UNL     1       1.684   7.687  20.324  0.00  0.00    +0.000 A 
ATOM     23  C   UNL     1       1.022   8.902  20.091  0.00  0.00    +0.000 A 
ATOM     24  C   UNL     1       0.176   9.471  21.058  0.00  0.00    +0.000 A 
ATOM     25  C   UNL     1      -0.445  10.700  20.831  0.00  0.00    +0.000 A 
ATOM     26  C   UNL     1      -0.231  11.373  19.632  0.00  0.00    +0.000 A 
ATOM     27  C   UNL     1       0.587  10.808  18.650  0.00  0.00    +0.000 A 
ATOM     28  C   UNL     1       1.220   9.570  18.863  0.00  0.00    +0.000 A 
ATOM     29  C   UNL     1       2.055   8.987  17.889  0.00  0.00    +0.000 A 
ENDBRANCH  19  20
ENDBRANCH   7  19
TORSDOF 5
ENDMDL
MODEL 4
REMARK VINA RESULT:      -8.0      1.747      5.024
REMARK  Name = 
REMARK  5 active torsions:
REMARK  status: ('A' for Active; 'I' for Inactive)
REMARK    1  A    between atoms: C_2  and  C_3
REMARK    2  A    between atoms: C_3  and  C_4
REMARK    3  A    between atoms: N_10  and  C_11
REMARK    4  A    between atoms: C_11  and  C_12
REMARK    5  A    between atoms: N_22  and  C_23
REMARK                            x       y       z     vdW  Elec       q    Type
REMARK                         _______ _______ _______ _____ _____    ______ ____
ROOT
ATOM      1  C   UNL     1       5.550   4.342  17.158  0.00  0.00    +0.000 C 
ATOM      2  C   UNL     1       7.082   4.517  17.111  0.00  0.00    +0.000 C 
ATOM      3  O   UNL     1       7.779   4.409  18.118  0.00  0.00    +0.000 OA
ATOM      4  N   UNL     1       7.671   4.738  15.892  0.00  0.00    +0.000 N 
ATOM      5  C   UNL     1       6.948   5.246  14.743  0.00  0.00    +0.000 C 
ATOM      6  C   UNL     1       5.443   4.958  14.796  0.00  0.00    +0.000 C 
ATOM      7  N   UNL     1       4.847   5.192  16.131  0.00  0.00    +0.000 NA
ATOM      8  H   UNL     1       8.672   4.877  15.941  0.00  0.00    +0.000 HD
ENDROOT
BRANCH   1   9
ATOM      9  C   UNL     1       5.185   2.859  16.998  0.00  0.00    +0.000 C 
BRANCH   9  11
ATOM     10  O   UNL     1       2.928   2.045  17.016  0.00  0.00    +0.000 OA
ATOM     11  C   UNL     1       3.883   2.449  17.669  0.00  0.00    +0.000 C 
ATOM     12  N   UNL     1       3.829   2.677  19.027  0.00  0.00    +0.000 N 
ATOM     13  H   UNL     1       4.689   2.839  19.529  0.00  0.00    +0.000 HD
BRANCH  12  14
ATOM     14  C   UNL     1       2.638   2.393  19.805  0.00  0.00    +0.000 C 
ATOM     15  C   UNL     1       2.798   2.720  21.286  0.00  0.00    +0.000 C 
ATOM     16  C   UNL     1       1.364   2.828  21.791  0.00  0.00    +0.000 C 
ATOM     17  C   UNL     1       0.537   3.317  20.602  0.00  0.00    +0.000 C 
ATOM     18  C   UNL     1       1.461   3.271  19.387  0.00  0.00    +0.000 C 
ENDBRANCH  12  14
ENDBRANCH   9  11
ENDBRANCH   1   9
BRANCH   7  19
ATOM     19  C   UNL     1       4.894   6.621  16.525  0.00  0.00    +0.000 C 
BRANCH  19  20
ATOM     20  C   UNL     1       3.891   7.003  17.598  0.00  0.00    +0.000 A 
ATOM     21  C   UNL     1       3.742   6.220  18.749  0.00  0.00    +0.000 A 
ATOM     22  C   UNL     1       2.821   6.575  19.738  0.00  0.00    +0.000 A 
ATOM     23  C   UNL     1       2.044   7.736  19.616  0.00  0.00    +0.000 A 
ATOM     24  C   UNL     1       1.121   8.107  20.609  0.00  0.00    +0.000 A 
ATOM     25  C   UNL     1       0.384   9.286  20.496  0.00  0.00    +0.000 A 
ATOM     26  C   UNL     1       0.556  10.107  19.387  0.00  0.00    +0.000 A 
ATOM     27  C   UNL     1       1.451   9.740  18.378  0.00  0.00    +0.000 A 
ATOM     28  C   UNL     1       2.202   8.555  18.477  0.00  0.00    +0.000 A 
ATOM     29  C   UNL     1       3.116   8.171  17.475  0.00  0.00    +0.000 A 
ENDBRANCH  19  20
ENDBRANCH   7  19
TORSDOF 5
ENDMDL
MODEL 5
REMARK VINA RESULT:      -8.0      1.827      4.976
REMARK  Name = 
REMARK  5 active torsions:
REMARK  status: ('A' for Active; 'I' for Inactive)
REMARK    1  A    between atoms: C_2  and  C_3
REMARK    2  A    between atoms: C_3  and  C_4
REMARK    3  A    between atoms: N_10  and  C_11
REMARK    4  A    between atoms: C_11  and  C_12
REMARK    5  A    between atoms: N_22  and  C_23
REMARK                            x       y       z     vdW  Elec       q    Type
REMARK                         _______ _______ _______ _____ _____    ______ ____
ROOT
ATOM      1  C   UNL     1       5.690   6.558  18.119  0.00  0.00    +0.000 C 
ATOM      2  C   UNL     1       6.760   6.888  17.058  0.00  0.00    +0.000 C 
ATOM      3  O   UNL     1       7.627   7.737  17.252  0.00  0.00    +0.000 OA
ATOM      4  N   UNL     1       6.764   6.160  15.896  0.00  0.00    +0.000 N 
ATOM      5  C   UNL     1       5.608   5.430  15.413  0.00  0.00    +0.000 C 
ATOM      6  C   UNL     1       4.627   5.042  16.525  0.00  0.00    +0.000 C 
ATOM      7  N   UNL     1       4.384   6.130  17.500  0.00  0.00    +0.000 NA
ATOM      8  H   UNL     1       7.470   6.453  15.232  0.00  0.00    +0.000 HD
ENDROOT
BRANCH   1   9
ATOM      9  C   UNL     1       6.222   5.492  19.088  0.00  0.00    +0.000 C 
BRANCH   9  11
ATOM     10  O   UNL     1       5.584   3.184  18.943  0.00  0.00    +0.000 OA
ATOM     11  C   UNL     1       5.288   4.313  19.314  0.00  0.00    +0.000 C 
ATOM     12  N   UNL     1       4.060   4.636  19.849  0.00  0.00    +0.000 N 
ATOM     13  H   UNL     1       3.941   5.536  20.292  0.00  0.00    +0.000 HD
BRANCH  12  14
ATOM     14  C   UNL     1       3.034   3.635  20.073  0.00  0.00    +0.000 C 
ATOM     15  C   UNL     1       2.357   3.765  21.434  0.00  0.00    +0.000 C 
ATOM     16  C   UNL     1       1.051   2.997  21.264  0.00  0.00    +0.000 C 
ATOM     17  C   UNL     1       0.674   3.134  19.790  0.00  0.00    +0.000 C 
ATOM     18  C   UNL     1       1.869   3.784  19.098  0.00  0.00    +0.000 C 
ENDBRANCH  12  14
ENDBRANCH   9  11
ENDBRANCH   1   9
BRANCH   7  19
ATOM     19  C   UNL     1       3.699   7.292  16.886  0.00  0.00    +0.000 C 
BRANCH  19  20
ATOM     20  C   UNL     1       2.788   8.049  17.835  0.00  0.00    +0.000 A 
ATOM     21  C   UNL     1       2.276   9.304  17.484  0.00  0.00    +0.000 A 
ATOM     22  C   UNL     1       1.434   9.999  18.356  0.00  0.00    +0.000 A 
ATOM     23  C   UNL     1       1.059   9.446  19.590  0.00  0.00    +0.000 A 
ATOM     24  C   UNL     1       0.207  10.133  20.471  0.00  0.00    +0.000 A 
ATOM     25  C   UNL     1      -0.192   9.555  21.677  0.00  0.00    +0.000 A 
ATOM     26  C   UNL     1       0.261   8.285  22.020  0.00  0.00    +0.000 A 
ATOM     27  C   UNL     1       1.130   7.600  21.167  0.00  0.00    +0.000 A 
ATOM     28  C   UNL     1       1.541   8.168  19.947  0.00  0.00    +0.000 A 
ATOM     29  C   UNL     1       2.410   7.490  19.069  0.00  0.00    +0.000 A 
ENDBRANCH  19  20
ENDBRANCH   7  19
TORSDOF 5
ENDMDL
MODEL 6
REMARK VINA RESULT:      -7.9      2.864      4.706
REMARK  Name = 
REMARK  5 active torsions:
REMARK  status: ('A' for Active; 'I' for Inactive)
REMARK    1  A    between atoms: C_2  and  C_3
REMARK    2  A    between atoms: C_3  and  C_4
REMARK    3  A    between atoms: N_10  and  C_11
REMARK    4  A    between atoms: C_11  and  C_12
REMARK    5  A    between atoms: N_22  and  C_23
REMARK                            x       y       z     vdW  Elec       q    Type
REMARK                         _______ _______ _______ _____ _____    ______ ____
ROOT
ATOM      1  C   UNL     1       6.434   6.709  17.191  0.00  0.00    +0.000 C 
ATOM      2  C   UNL     1       6.638   5.466  16.299  0.00  0.00    +0.000 C 
ATOM      3  O   UNL     1       6.948   5.562  15.113  0.00  0.00    +0.000 OA
ATOM      4  N   UNL     1       6.526   4.229  16.879  0.00  0.00    +0.000 N 
ATOM      5  C   UNL     1       5.816   3.997  18.122  0.00  0.00    +0.000 C 
ATOM      6  C   UNL     1       5.729   5.242  19.012  0.00  0.00    +0.000 C 
ATOM      7  N   UNL     1       5.403   6.478  18.265  0.00  0.00    +0.000 NA
ATOM      8  H   UNL     1       6.637   3.461  16.229  0.00  0.00    +0.000 HD
ENDROOT
BRANCH   1   9
ATOM      9  C   UNL     1       7.776   7.150  17.793  0.00  0.00    +0.000 C 
BRANCH   9  11
ATOM     10  O   UNL     1       7.404   9.434  17.158  0.00  0.00    +0.000 OA
ATOM     11  C   UNL     1       7.948   8.655  17.931  0.00  0.00    +0.000 C 
ATOM     12  N   UNL     1       8.840   9.054  18.903  0.00  0.00    +0.000 N 
ATOM     13  H   UNL     1       9.116   8.392  19.614  0.00  0.00    +0.000 HD
BRANCH  12  14
ATOM     14  C   UNL     1       9.159  10.451  19.124  0.00  0.00    +0.000 C 
ATOM     15  C   UNL     1       9.618  10.743  20.549  0.00  0.00    +0.000 C 
ATOM     16  C   UNL     1      10.346  12.076  20.430  0.00  0.00    +0.000 C 
ATOM     17  C   UNL     1      10.931  12.110  19.018  0.00  0.00    +0.000 C 
ATOM     18  C   UNL     1      10.350  10.905  18.283  0.00  0.00    +0.000 C 
ENDBRANCH  12  14
ENDBRANCH   9  11
ENDBRANCH   1   9
BRANCH   7  19
ATOM     19  C   UNL     1       4.044   6.434  17.675  0.00  0.00    +0.000 C 
BRANCH  19  20
ATOM     20  C   UNL     1       3.003   7.220  18.452  0.00  0.00    +0.000 A 
ATOM     21  C   UNL     1       2.589   6.796  19.721  0.00  0.00    +0.000 A 
ATOM     22  C   UNL     1       1.634   7.521  20.438  0.00  0.00    +0.000 A 
ATOM     23  C   UNL     1       1.088   8.704  19.918  0.00  0.00    +0.000 A 
ATOM     24  C   UNL     1       0.132   9.446  20.633  0.00  0.00    +0.000 A 
ATOM     25  C   UNL     1      -0.373  10.642  20.124  0.00  0.00    +0.000 A 
ATOM     26  C   UNL     1       0.066  11.110  18.890  0.00  0.00    +0.000 A 
ATOM     27  C   UNL     1       0.996  10.372  18.154  0.00  0.00    +0.000 A 
ATOM     28  C   UNL     1       1.516   9.164  18.653  0.00  0.00    +0.000 A 
ATOM     29  C   UNL     1       2.461   8.408  17.930  0.00  0.00    +0.000 A 
ENDBRANCH  19  20
ENDBRANCH   7  19
TORSDOF 5
ENDMDL
MODEL 7
REMARK VINA RESULT:      -7.9      2.336      3.773
REMARK  Name = 
REMARK  5 active torsions:
REMARK  status: ('A' for Active; 'I' for Inactive)
REMARK    1  A    between atoms: C_2  and  C_3
REMARK    2  A    between atoms: C_3  and  C_4
REMARK    3  A    between atoms: N_10  and  C_11
REMARK    4  A    between atoms: C_11  and  C_12
REMARK    5  A    between atoms: N_22  and  C_23
REMARK                            x       y       z     vdW  Elec       q    Type
REMARK                         _______ _______ _______ _____ _____    ______ ____
ROOT
ATOM      1  C   UNL     1       5.578   6.017  17.714  0.00  0.00    +0.000 C 
ATOM      2  C   UNL     1       5.635   4.874  16.680  0.00  0.00    +0.000 C 
ATOM      3  O   UNL     1       5.969   5.070  15.513  0.00  0.00    +0.000 OA
ATOM      4  N   UNL     1       5.363   3.600  17.108  0.00  0.00    +0.000 N 
ATOM      5  C   UNL     1       4.616   3.312  18.317  0.00  0.00    +0.000 C 
ATOM      6  C   UNL     1       4.675   4.443  19.350  0.00  0.00    +0.000 C 
ATOM      7  N   UNL     1       4.514   5.790  18.757  0.00  0.00    +0.000 NA
ATOM      8  H   UNL     1       5.386   2.907  16.370  0.00  0.00    +0.000 HD
ENDROOT
BRANCH   1   9
ATOM      9  C   UNL     1       6.957   6.212  18.360  0.00  0.00    +0.000 C 
BRANCH   9  11
ATOM     10  O   UNL     1       8.056   7.490  16.652  0.00  0.00    +0.000 OA
ATOM     11  C   UNL     1       7.744   7.403  17.833  0.00  0.00    +0.000 C 
ATOM     12  N   UNL     1       8.168   8.294  18.795  0.00  0.00    +0.000 N 
ATOM     13  H   UNL     1       7.738   8.267  19.708  0.00  0.00    +0.000 HD
BRANCH  12  14
ATOM     14  C   UNL     1       8.976   9.451  18.465  0.00  0.00    +0.000 C 
ATOM     15  C   UNL     1       8.193  10.544  17.745  0.00  0.00    +0.000 C 
ATOM     16  C   UNL     1       9.045  11.792  17.942  0.00  0.00    +0.000 C 
ATOM     17  C   UNL     1       9.765  11.602  19.277  0.00  0.00    +0.000 C 
ATOM     18  C   UNL     1       9.487  10.166  19.714  0.00  0.00    +0.000 C 
ENDBRANCH  12  14
ENDBRANCH   9  11
ENDBRANCH   1   9
BRANCH   7  19
ATOM     19  C   UNL     1       3.166   5.988  18.171  0.00  0.00    +0.000 C 
BRANCH  19  20
ATOM     20  C   UNL     1       2.459   7.243  18.648  0.00  0.00    +0.000 A 
ATOM     21  C   UNL     1       2.147   8.272  17.750  0.00  0.00    +0.000 A 
ATOM     22  C   UNL     1       1.492   9.426  18.189  0.00  0.00    +0.000 A 
ATOM     23  C   UNL     1       1.107   9.570  19.531  0.00  0.00    +0.000 A 
ATOM     24  C   UNL     1       0.441  10.722  19.981  0.00  0.00    +0.000 A 
ATOM     25  C   UNL     1       0.026  10.836  21.308  0.00  0.00    +0.000 A 
ATOM     26  C   UNL     1       0.277   9.802  22.204  0.00  0.00    +0.000 A 
ATOM     27  C   UNL     1       0.961   8.660  21.778  0.00  0.00    +0.000 A 
ATOM     28  C   UNL     1       1.386   8.529  20.443  0.00  0.00    +0.000 A 
ATOM     29  C   UNL     1       2.070   7.382  19.992  0.00  0.00    +0.000 A 
ENDBRANCH  19  20
ENDBRANCH   7  19
TORSDOF 5
ENDMDL
MODEL 8
REMARK VINA RESULT:      -7.8      2.753      3.715
REMARK  Name = 
REMARK  5 active torsions:
REMARK  status: ('A' for Active; 'I' for Inactive)
REMARK    1  A    between atoms: C_2  and  C_3
REMARK    2  A    between atoms: C_3  and  C_4
REMARK    3  A    between atoms: N_10  and  C_11
REMARK    4  A    between atoms: C_11  and  C_12
REMARK    5  A    between atoms: N_22  and  C_23
REMARK                            x       y       z     vdW  Elec       q    Type
REMARK                         _______ _______ _______ _____ _____    ______ ____
ROOT
ATOM      1  C   UNL     1       4.006   5.601  17.433  0.00  0.00    +0.000 C 
ATOM      2  C   UNL     1       3.812   4.078  17.289  0.00  0.00    +0.000 C 
ATOM      3  O   UNL     1       3.132   3.593  16.387  0.00  0.00    +0.000 OA
ATOM      4  N   UNL     1       4.475   3.256  18.163  0.00  0.00    +0.000 N 
ATOM      5  C   UNL     1       4.974   3.703  19.448  0.00  0.00    +0.000 C 
ATOM      6  C   UNL     1       5.243   5.211  19.504  0.00  0.00    +0.000 C 
ATOM      7  N   UNL     1       4.177   6.021  18.871  0.00  0.00    +0.000 NA
ATOM      8  H   UNL     1       4.274   2.272  18.032  0.00  0.00    +0.000 HD
ENDROOT
BRANCH   1   9
ATOM      9  C   UNL     1       5.191   6.064  16.574  0.00  0.00    +0.000 C 
BRANCH   9  11
ATOM     10  O   UNL     1       6.858   4.365  16.272  0.00  0.00    +0.000 OA
ATOM     11  C   UNL     1       5.891   4.954  15.804  0.00  0.00    +0.000 C 
ATOM     12  N   UNL     1       5.432   4.755  14.520  0.00  0.00    +0.000 N 
ATOM     13  H   UNL     1       4.536   5.138  14.257  0.00  0.00    +0.000 HD
BRANCH  12  14
ATOM     14  C   UNL     1       6.030   3.773  13.636  0.00  0.00    +0.000 C 
ATOM     15  C   UNL     1       5.047   3.204  12.619  0.00  0.00    +0.000 C 
ATOM     16  C   UNL     1       5.943   2.620  11.534  0.00  0.00    +0.000 C 
ATOM     17  C   UNL     1       7.211   3.474  11.533  0.00  0.00    +0.000 C 
ATOM     18  C   UNL     1       7.116   4.387  12.754  0.00  0.00    +0.000 C 
ENDBRANCH  12  14
ENDBRANCH   9  11
ENDBRANCH   1   9
BRANCH   7  19
ATOM     19  C   UNL     1       2.888   5.918  19.595  0.00  0.00    +0.000 C 
BRANCH  19  20
ATOM     20  C   UNL     1       2.154   7.238  19.749  0.00  0.00    +0.000 A 
ATOM     21  C   UNL     1       2.050   8.127  18.673  0.00  0.00    +0.000 A 
ATOM     22  C   UNL     1       1.371   9.340  18.814  0.00  0.00    +0.000 A 
ATOM     23  C   UNL     1       0.755   9.684  20.026  0.00  0.00    +0.000 A 
ATOM     24  C   UNL     1       0.063  10.898  20.177  0.00  0.00    +0.000 A 
ATOM     25  C   UNL     1      -0.581  11.211  21.375  0.00  0.00    +0.000 A 
ATOM     26  C   UNL     1      -0.537  10.316  22.439  0.00  0.00    +0.000 A 
ATOM     27  C   UNL     1       0.169   9.117  22.314  0.00  0.00    +0.000 A 
ATOM     28  C   UNL     1       0.823   8.786  21.114  0.00  0.00    +0.000 A 
ATOM     29  C   UNL     1       1.533   7.578  20.965  0.00  0.00    +0.000 A 
ENDBRANCH  19  20
ENDBRANCH   7  19
TORSDOF 5
ENDMDL
MODEL 9
REMARK VINA RESULT:      -7.8      2.551      6.713
REMARK  Name = 
REMARK  5 active torsions:
REMARK  status: ('A' for Active; 'I' for Inactive)
REMARK    1  A    between atoms: C_2  and  C_3
REMARK    2  A    between atoms: C_3  and  C_4
REMARK    3  A    between atoms: N_10  and  C_11
REMARK    4  A    between atoms: C_11  and  C_12
REMARK    5  A    between atoms: N_22  and  C_23
REMARK                            x       y       z     vdW  Elec       q    Type
REMARK                         _______ _______ _______ _____ _____    ______ ____
ROOT
ATOM      1  C   UNL     1       2.522   4.597  20.434  0.00  0.00    +0.000 C 
ATOM      2  C   UNL     1       2.293   3.240  21.131  0.00  0.00    +0.000 C 
ATOM      3  O   UNL     1       2.413   3.105  22.347  0.00  0.00    +0.000 OA
ATOM      4  N   UNL     1       1.883   2.180  20.364  0.00  0.00    +0.000 N 
ATOM      5  C   UNL     1       2.071   2.121  18.928  0.00  0.00    +0.000 C 
ATOM      6  C   UNL     1       2.195   3.502  18.275  0.00  0.00    +0.000 C 
ATOM      7  N   UNL     1       3.057   4.436  19.034  0.00  0.00    +0.000 NA
ATOM      8  H   UNL     1       1.786   1.314  20.880  0.00  0.00    +0.000 HD
ENDROOT
BRANCH   1   9
ATOM      9  C   UNL     1       1.225   5.419  20.444  0.00  0.00    +0.000 C 
BRANCH   9  11
ATOM     10  O   UNL     1       2.400   7.472  20.041  0.00  0.00    +0.000 OA
ATOM     11  C   UNL     1       1.426   6.923  20.541  0.00  0.00    +0.000 C 
ATOM     12  N   UNL     1       0.504   7.585  21.324  0.00  0.00    +0.000 N 
ATOM     13  H   UNL     1      -0.361   7.121  21.559  0.00  0.00    +0.000 HD
BRANCH  12  14
ATOM     14  C   UNL     1       0.588   9.013  21.564  0.00  0.00    +0.000 C 
ATOM     15  C   UNL     1      -0.096   9.844  20.484  0.00  0.00    +0.000 C 
ATOM     16  C   UNL     1      -0.325  11.194  21.154  0.00  0.00    +0.000 C 
ATOM     17  C   UNL     1      -0.503  10.898  22.643  0.00  0.00    +0.000 C 
ATOM     18  C   UNL     1      -0.159   9.423  22.832  0.00  0.00    +0.000 C 
ENDBRANCH  12  14
ENDBRANCH   9  11
ENDBRANCH   1   9
BRANCH   7  19
ATOM     19  C   UNL     1       4.471   3.993  19.070  0.00  0.00    +0.000 C 
BRANCH  19  20
ATOM     20  C   UNL     1       5.274   4.376  17.841  0.00  0.00    +0.000 A 
ATOM     21  C   UNL     1       6.344   5.274  17.938  0.00  0.00    +0.000 A 
ATOM     22  C   UNL     1       7.086   5.623  16.806  0.00  0.00    +0.000 A 
ATOM     23  C   UNL     1       6.795   5.064  15.553  0.00  0.00    +0.000 A 
ATOM     24  C   UNL     1       7.539   5.402  14.410  0.00  0.00    +0.000 A 
ATOM     25  C   UNL     1       7.268   4.807  13.177  0.00  0.00    +0.000 A 
ATOM     26  C   UNL     1       6.245   3.871  13.070  0.00  0.00    +0.000 A 
ATOM     27  C   UNL     1       5.478   3.543  14.192  0.00  0.00    +0.000 A 
ATOM     28  C   UNL     1       5.739   4.133  15.442  0.00  0.00    +0.000 A 
ATOM     29  C   UNL     1       4.984   3.809  16.587  0.00  0.00    +0.000 A 
ENDBRANCH  19  20
ENDBRANCH   7  19
TORSDOF 5
ENDMDL
