MODEL 1
REMARK VINA RESULT:      -7.9      0.000      0.000
REMARK  Name = 
REMARK  9 active torsions:
REMARK  status: ('A' for Active; 'I' for Inactive)
REMARK    1  A    between atoms: C_1  and  C_2
REMARK    2  A    between atoms: C_2  and  O_3
REMARK    3  A    between atoms: O_3  and  C_4
REMARK    4  A    between atoms: C_7  and  C_8
REMARK    5  A    between atoms: C_9  and  N_10
REMARK    6  A    between atoms: N_13  and  CA_14
REMARK    7  A    between atoms: C_20  and  C_21
REMARK    8  A    between atoms: C_20  and  C_22
REMARK    9  A    between atoms: CA_23  and  C_24
REMARK                            x       y       z     vdW  Elec       q    Type
REMARK                         _______ _______ _______ _____ _____    ______ ____
ROOT
ATOM      1  N   UNL     1       8.533   8.152  18.623  0.00  0.00    +0.000 N 
ATOM      2  C   UNL     1       7.435   7.792  17.865  0.00  0.00    +0.000 C 
ATOM      3  O   UNL     1       6.872   8.553  17.082  0.00  0.00    +0.000 OA
ATOM      4  N   UNL     1       7.020   6.503  18.042  0.00  0.00    +0.000 N 
ATOM      5  H   UNL     1       8.893   7.502  19.307  0.00  0.00    +0.000 HD
ATOM      6  H   UNL     1       7.380   5.964  18.821  0.00  0.00    +0.000 HD
ENDROOT
BRANCH   4   7
ATOM      7  CA  UNL     1       5.698   6.083  17.454  0.00  0.00    +0.000 C 
ATOM      8  C   UNL     1       5.654   4.608  16.899  0.00  0.00    +0.000 C 
ATOM      9  O   UNL     1       6.270   3.953  16.093  0.00  0.00    +0.000 OA
ATOM     10  N   UNL     1       4.579   4.380  17.651  0.00  0.00    +0.000 N 
ATOM     11  C   UNL     1       4.700   5.537  18.505  0.00  0.00    +0.000 C 
ATOM     12  S   UNL     1       2.950   6.021  18.552  0.00  0.00    +0.000 S 
ATOM     13  C   UNL     1       2.398   4.174  18.473  0.00  0.00    +0.000 C 
ATOM     14  C   UNL     1       1.781   3.837  19.833  0.00  0.00    +0.000 C 
ATOM     15  C   UNL     1       1.309   4.114  17.391  0.00  0.00    +0.000 C 
ATOM     16  CA  UNL     1       3.656   3.341  18.065  0.00  0.00    +0.000 C 
BRANCH  16  17
ATOM     17  C   UNL     1       4.272   2.419  19.169  0.00  0.00    +0.000 C 
ATOM     18  O   UNL     1       5.092   2.984  19.945  0.00  0.00    +0.000 OA
ATOM     19  OXT UNL     1       3.895   1.207  19.155  0.00  0.00    +0.000 OA
ENDBRANCH  16  17
ENDBRANCH   4   7
BRANCH   1  21
ATOM     20  C   UNL     1       9.487  10.193  19.519  0.00  0.00    +0.000 C 
ATOM     21  C   UNL     1       9.063   9.416  18.510  0.00  0.00    +0.000 C 
BRANCH  20  25
ATOM     22  C   UNL     1      11.073  14.156  18.827  0.00  0.00    +0.000 A 
ATOM     23  C   UNL     1      11.131  13.592  20.100  0.00  0.00    +0.000 A 
ATOM     24  C   UNL     1      10.620  12.312  20.327  0.00  0.00    +0.000 A 
ATOM     25  C   UNL     1      10.018  11.561  19.307  0.00  0.00    +0.000 A 
ATOM     26  C   UNL     1       9.940  12.154  18.039  0.00  0.00    +0.000 A 
ATOM     27  C   UNL     1      10.460  13.442  17.801  0.00  0.00    +0.000 A 
BRANCH  22  28
ATOM     28  O   UNL     1      11.628  15.399  18.746  0.00  0.00    +0.000 OA
BRANCH  28  30
ATOM     29  C   UNL     1      11.954  17.397  17.517  0.00  0.00    +0.000 C 
ATOM     30  C   UNL     1      11.935  15.880  17.444  0.00  0.00    +0.000 C 
ENDBRANCH  28  30
ENDBRANCH  22  28
ENDBRANCH  20  25
ENDBRANCH   1  21
TORSDOF 6
ENDMDL
MODEL 2
REMARK VINA RESULT:      -7.9      0.920      1.166
REMARK  Name = 
REMARK  9 active torsions:
REMARK  status: ('A' for Active; 'I' for Inactive)
REMARK    1  A    between atoms: C_1  and  C_2
REMARK    2  A    between atoms: C_2  and  O_3
REMARK    3  A    between atoms: O_3  and  C_4
REMARK    4  A    between atoms: C_7  and  C_8
REMARK    5  A    between atoms: C_9  and  N_10
REMARK    6  A    between atoms: N_13  and  CA_14
REMARK    7  A    between atoms: C_20  and  C_21
REMARK    8  A    between atoms: C_20  and  C_22
REMARK    9  A    between atoms: CA_23  and  C_24
REMARK                            x       y       z     vdW  Elec       q    Type
REMARK                         _______ _______ _______ _____ _____    ______ ____
ROOT
ATOM      1  N   UNL     1       8.479   8.029  18.656  0.00  0.00    +0.000 N 
ATOM      2  C   UNL     1       7.408   7.626  17.882  0.00  0.00    +0.000 C 
ATOM      3  O   UNL     1       6.987   8.264  16.920  0.00  0.00    +0.000 OA
ATOM      4  N   UNL     1       6.848   6.439  18.260  0.00  0.00    +0.000 N 
ATOM      5  H   UNL     1       8.718   7.498  19.481  0.00  0.00    +0.000 HD
ATOM      6  H   UNL     1       7.091   6.035  19.156  0.00  0.00    +0.000 HD
ENDROOT
BRANCH   4   7
ATOM      7  CA  UNL     1       5.536   6.031  17.642  0.00  0.00    +0.000 C 
ATOM      8  C   UNL     1       5.524   4.594  16.994  0.00  0.00    +0.000 C 
ATOM      9  O   UNL     1       6.154   4.004  16.150  0.00  0.00    +0.000 OA
ATOM     10  N   UNL     1       4.452   4.297  17.727  0.00  0.00    +0.000 N 
ATOM     11  C   UNL     1       4.548   5.399  18.653  0.00  0.00    +0.000 C 
ATOM     12  S   UNL     1       2.787   5.844  18.725  0.00  0.00    +0.000 S 
ATOM     13  C   UNL     1       2.274   3.994  18.527  0.00  0.00    +0.000 C 
ATOM     14  C   UNL     1       1.661   3.559  19.861  0.00  0.00    +0.000 C 
ATOM     15  C   UNL     1       1.188   3.981  17.439  0.00  0.00    +0.000 C 
ATOM     16  CA  UNL     1       3.549   3.214  18.071  0.00  0.00    +0.000 C 
BRANCH  16  17
ATOM     17  C   UNL     1       4.181   2.237  19.115  0.00  0.00    +0.000 C 
ATOM     18  O   UNL     1       3.861   1.023  18.979  0.00  0.00    +0.000 OA
ATOM     19  OXT UNL     1       4.930   2.769  19.991  0.00  0.00    +0.000 OA
ENDBRANCH  16  17
ENDBRANCH   4   7
BRANCH   1  21
ATOM     20  C   UNL     1       8.739  10.440  18.642  0.00  0.00    +0.000 C 
ATOM     21  C   UNL     1       9.146   9.194  18.356  0.00  0.00    +0.000 C 
BRANCH  20  25
ATOM     22  C   UNL     1      11.056  13.924  17.552  0.00  0.00    +0.000 A 
ATOM     23  C   UNL     1       9.717  14.059  17.910  0.00  0.00    +0.000 A 
ATOM     24  C   UNL     1       8.964  12.936  18.263  0.00  0.00    +0.000 A 
ATOM     25  C   UNL     1       9.510  11.644  18.252  0.00  0.00    +0.000 A 
ATOM     26  C   UNL     1      10.850  11.521  17.860  0.00  0.00    +0.000 A 
ATOM     27  C   UNL     1      11.617  12.650  17.510  0.00  0.00    +0.000 A 
BRANCH  22  28
ATOM     28  O   UNL     1      11.672  15.103  17.252  0.00  0.00    +0.000 OA
BRANCH  28  30
ATOM     29  C   UNL     1      11.290  17.436  17.395  0.00  0.00    +0.000 C 
ATOM     30  C   UNL     1      10.852  16.141  16.733  0.00  0.00    +0.000 C 
ENDBRANCH  28  30
ENDBRANCH  22  28
ENDBRANCH  20  25
ENDBRANCH   1  21
TORSDOF 6
ENDMDL
MODEL 3
REMARK VINA RESULT:      -7.3      0.840      1.103
REMARK  Name = 
REMARK  9 active torsions:
REMARK  status: ('A' for Active; 'I' for Inactive)
REMARK    1  A    between atoms: C_1  and  C_2
REMARK    2  A    between atoms: C_2  and  O_3
REMARK    3  A    between atoms: O_3  and  C_4
REMARK    4  A    between atoms: C_7  and  C_8
REMARK    5  A    between atoms: C_9  and  N_10
REMARK    6  A    between atoms: N_13  and  CA_14
REMARK    7  A    between atoms: C_20  and  C_21
REMARK    8  A    between atoms: C_20  and  C_22
REMARK    9  A    between atoms: CA_23  and  C_24
REMARK                            x       y       z     vdW  Elec       q    Type
REMARK                         _______ _______ _______ _____ _____    ______ ____
ROOT
ATOM      1  N   UNL     1       8.601   7.907  18.741  0.00  0.00    +0.000 N 
ATOM      2  C   UNL     1       7.492   7.625  17.967  0.00  0.00    +0.000 C 
ATOM      3  O   UNL     1       6.939   8.453  17.247  0.00  0.00    +0.000 OA
ATOM      4  N   UNL     1       7.052   6.335  18.051  0.00  0.00    +0.000 N 
ATOM      5  H   UNL     1       8.952   7.201  19.373  0.00  0.00    +0.000 HD
ATOM      6  H   UNL     1       7.405   5.733  18.785  0.00  0.00    +0.000 HD
ENDROOT
BRANCH   4   7
ATOM      7  CA  UNL     1       5.719   5.985  17.444  0.00  0.00    +0.000 C 
ATOM      8  C   UNL     1       5.624   4.536  16.832  0.00  0.00    +0.000 C 
ATOM      9  O   UNL     1       6.219   3.889  16.004  0.00  0.00    +0.000 OA
ATOM     10  N   UNL     1       4.538   4.319  17.572  0.00  0.00    +0.000 N 
ATOM     11  C   UNL     1       4.697   5.437  18.470  0.00  0.00    +0.000 C 
ATOM     12  S   UNL     1       2.965   5.982  18.529  0.00  0.00    +0.000 S 
ATOM     13  C   UNL     1       2.347   4.160  18.379  0.00  0.00    +0.000 C 
ATOM     14  C   UNL     1       1.712   3.795  19.723  0.00  0.00    +0.000 C 
ATOM     15  C   UNL     1       1.261   4.181  17.291  0.00  0.00    +0.000 C 
ATOM     16  CA  UNL     1       3.576   3.298  17.944  0.00  0.00    +0.000 C 
BRANCH  16  17
ATOM     17  C   UNL     1       4.153   2.314  19.013  0.00  0.00    +0.000 C 
ATOM     18  O   UNL     1       3.760   1.118  18.912  0.00  0.00    +0.000 OA
ATOM     19  OXT UNL     1       4.936   2.823  19.872  0.00  0.00    +0.000 OA
ENDBRANCH  16  17
ENDBRANCH   4   7
BRANCH   1  21
ATOM     20  C   UNL     1       8.684  10.230  18.053  0.00  0.00    +0.000 C 
ATOM     21  C   UNL     1       9.156   9.165  18.719  0.00  0.00    +0.000 C 
BRANCH  20  25
ATOM     22  C   UNL     1      10.631  14.091  18.004  0.00  0.00    +0.000 A 
ATOM     23  C   UNL     1      11.375  12.936  18.236  0.00  0.00    +0.000 A 
ATOM     24  C   UNL     1      10.749  11.687  18.253  0.00  0.00    +0.000 A 
ATOM     25  C   UNL     1       9.367  11.546  18.061  0.00  0.00    +0.000 A 
ATOM     26  C   UNL     1       8.628  12.720  17.859  0.00  0.00    +0.000 A 
ATOM     27  C   UNL     1       9.253  13.982  17.834  0.00  0.00    +0.000 A 
BRANCH  22  28
ATOM     28  O   UNL     1      11.373  15.235  17.994  0.00  0.00    +0.000 OA
BRANCH  28  30
ATOM     29  C   UNL     1      10.750  17.435  17.379  0.00  0.00    +0.000 C 
ATOM     30  C   UNL     1      10.748  16.408  18.498  0.00  0.00    +0.000 C 
ENDBRANCH  28  30
ENDBRANCH  22  28
ENDBRANCH  20  25
ENDBRANCH   1  21
TORSDOF 6
ENDMDL
MODEL 4
REMARK VINA RESULT:      -7.3      1.201      1.497
REMARK  Name = 
REMARK  9 active torsions:
REMARK  status: ('A' for Active; 'I' for Inactive)
REMARK    1  A    between atoms: C_1  and  C_2
REMARK    2  A    between atoms: C_2  and  O_3
REMARK    3  A    between atoms: O_3  and  C_4
REMARK    4  A    between atoms: C_7  and  C_8
REMARK    5  A    between atoms: C_9  and  N_10
REMARK    6  A    between atoms: N_13  and  CA_14
REMARK    7  A    between atoms: C_20  and  C_21
REMARK    8  A    between atoms: C_20  and  C_22
REMARK    9  A    between atoms: CA_23  and  C_24
REMARK                            x       y       z     vdW  Elec       q    Type
REMARK                         _______ _______ _______ _____ _____    ______ ____
ROOT
ATOM      1  N   UNL     1       7.936   7.643  17.927  0.00  0.00    +0.000 N 
ATOM      2  C   UNL     1       6.591   7.396  17.729  0.00  0.00    +0.000 C 
ATOM      3  O   UNL     1       5.759   8.279  17.538  0.00  0.00    +0.000 OA
ATOM      4  N   UNL     1       6.247   6.074  17.748  0.00  0.00    +0.000 N 
ATOM      5  H   UNL     1       8.548   6.874  18.160  0.00  0.00    +0.000 HD
ATOM      6  H   UNL     1       6.910   5.389  18.089  0.00  0.00    +0.000 HD
ENDROOT
BRANCH   4   7
ATOM      7  CA  UNL     1       4.786   5.709  17.785  0.00  0.00    +0.000 C 
ATOM      8  C   UNL     1       4.422   4.344  17.085  0.00  0.00    +0.000 C 
ATOM      9  O   UNL     1       4.561   3.851  15.992  0.00  0.00    +0.000 OA
ATOM     10  N   UNL     1       3.811   3.959  18.204  0.00  0.00    +0.000 N 
ATOM     11  C   UNL     1       4.368   4.964  19.077  0.00  0.00    +0.000 C 
ATOM     12  S   UNL     1       2.863   5.373  20.011  0.00  0.00    +0.000 S 
ATOM     13  C   UNL     1       2.256   3.544  19.903  0.00  0.00    +0.000 C 
ATOM     14  C   UNL     1       2.328   2.969  21.320  0.00  0.00    +0.000 C 
ATOM     15  C   UNL     1       0.786   3.623  19.459  0.00  0.00    +0.000 C 
ATOM     16  CA  UNL     1       3.140   2.834  18.828  0.00  0.00    +0.000 C 
BRANCH  16  17
ATOM     17  C   UNL     1       4.156   1.767  19.354  0.00  0.00    +0.000 C 
ATOM     18  O   UNL     1       4.940   2.170  20.258  0.00  0.00    +0.000 OA
ATOM     19  OXT UNL     1       4.094   0.624  18.806  0.00  0.00    +0.000 OA
ENDBRANCH  16  17
ENDBRANCH   4   7
BRANCH   1  21
ATOM     20  C   UNL     1       9.068   9.559  18.888  0.00  0.00    +0.000 C 
ATOM     21  C   UNL     1       8.410   8.933  17.900  0.00  0.00    +0.000 C 
BRANCH  20  25
ATOM     22  C   UNL     1      10.299  13.695  18.606  0.00  0.00    +0.000 A 
ATOM     23  C   UNL     1      10.668  12.787  17.617  0.00  0.00    +0.000 A 
ATOM     24  C   UNL     1      10.273  11.450  17.704  0.00  0.00    +0.000 A 
ATOM     25  C   UNL     1       9.517  10.968  18.783  0.00  0.00    +0.000 A 
ATOM     26  C   UNL     1       9.179  11.887  19.786  0.00  0.00    +0.000 A 
ATOM     27  C   UNL     1       9.569  13.238  19.701  0.00  0.00    +0.000 A 
BRANCH  22  28
ATOM     28  O   UNL     1      10.735  14.967  18.382  0.00  0.00    +0.000 OA
BRANCH  28  30
ATOM     29  C   UNL     1      10.567  16.916  17.048  0.00  0.00    +0.000 C 
ATOM     30  C   UNL     1       9.791  15.884  17.848  0.00  0.00    +0.000 C 
ENDBRANCH  28  30
ENDBRANCH  22  28
ENDBRANCH  20  25
ENDBRANCH   1  21
TORSDOF 6
ENDMDL
MODEL 5
REMARK VINA RESULT:      -7.3      6.548      9.276
REMARK  Name = 
REMARK  9 active torsions:
REMARK  status: ('A' for Active; 'I' for Inactive)
REMARK    1  A    between atoms: C_1  and  C_2
REMARK    2  A    between atoms: C_2  and  O_3
REMARK    3  A    between atoms: O_3  and  C_4
REMARK    4  A    between atoms: C_7  and  C_8
REMARK    5  A    between atoms: C_9  and  N_10
REMARK    6  A    between atoms: N_13  and  CA_14
REMARK    7  A    between atoms: C_20  and  C_21
REMARK    8  A    between atoms: C_20  and  C_22
REMARK    9  A    between atoms: CA_23  and  C_24
REMARK                            x       y       z     vdW  Elec       q    Type
REMARK                         _______ _______ _______ _____ _____    ______ ____
ROOT
ATOM      1  N   UNL     1       2.371   9.180  18.153  0.00  0.00    +0.000 N 
ATOM      2  C   UNL     1       2.599   7.860  17.814  0.00  0.00    +0.000 C 
ATOM      3  O   UNL     1       1.720   7.100  17.417  0.00  0.00    +0.000 OA
ATOM      4  N   UNL     1       3.898   7.456  17.943  0.00  0.00    +0.000 N 
ATOM      5  H   UNL     1       3.124   9.723  18.551  0.00  0.00    +0.000 HD
ATOM      6  H   UNL     1       4.555   8.040  18.444  0.00  0.00    +0.000 HD
ENDROOT
BRANCH   4   7
ATOM      7  CA  UNL     1       4.210   5.987  17.835  0.00  0.00    +0.000 C 
ATOM      8  C   UNL     1       4.898   5.357  19.105  0.00  0.00    +0.000 C 
ATOM      9  O   UNL     1       5.889   5.563  19.763  0.00  0.00    +0.000 OA
ATOM     10  N   UNL     1       3.950   4.422  19.128  0.00  0.00    +0.000 N 
ATOM     11  C   UNL     1       3.025   5.072  18.231  0.00  0.00    +0.000 C 
ATOM     12  S   UNL     1       2.528   3.620  17.258  0.00  0.00    +0.000 S 
ATOM     13  C   UNL     1       2.679   2.483  18.809  0.00  0.00    +0.000 C 
ATOM     14  C   UNL     1       1.259   2.046  19.178  0.00  0.00    +0.000 C 
ATOM     15  C   UNL     1       3.484   1.258  18.346  0.00  0.00    +0.000 C 
ATOM     16  CA  UNL     1       3.451   3.297  19.897  0.00  0.00    +0.000 C 
BRANCH  16  17
ATOM     17  C   UNL     1       2.624   3.761  21.140  0.00  0.00    +0.000 C 
ATOM     18  O   UNL     1       2.106   4.909  21.044  0.00  0.00    +0.000 OA
ATOM     19  OXT UNL     1       2.577   2.946  22.112  0.00  0.00    +0.000 OA
ENDBRANCH  16  17
ENDBRANCH   4   7
BRANCH   1  21
ATOM     20  C   UNL     1       0.258   9.969  19.042  0.00  0.00    +0.000 C 
ATOM     21  C   UNL     1       1.108   9.713  18.037  0.00  0.00    +0.000 C 
BRANCH  20  25
ATOM     22  C   UNL     1      -3.692  11.569  18.312  0.00  0.00    +0.000 A 
ATOM     23  C   UNL     1      -2.907  12.087  19.339  0.00  0.00    +0.000 A 
ATOM     24  C   UNL     1      -1.631  11.573  19.578  0.00  0.00    +0.000 A 
ATOM     25  C   UNL     1      -1.102  10.518  18.821  0.00  0.00    +0.000 A 
ATOM     26  C   UNL     1      -1.916   9.986  17.811  0.00  0.00    +0.000 A 
ATOM     27  C   UNL     1      -3.201  10.505  17.560  0.00  0.00    +0.000 A 
BRANCH  22  28
ATOM     28  O   UNL     1      -4.905  12.179  18.179  0.00  0.00    +0.000 OA
BRANCH  28  30
ATOM     29  C   UNL     1      -6.711  10.842  18.925  0.00  0.00    +0.000 C 
ATOM     30  C   UNL     1      -5.978  11.375  17.706  0.00  0.00    +0.000 C 
ENDBRANCH  28  30
ENDBRANCH  22  28
ENDBRANCH  20  25
ENDBRANCH   1  21
TORSDOF 6
ENDMDL
MODEL 6
REMARK VINA RESULT:      -7.2      2.837     11.146
REMARK  Name = 
REMARK  9 active torsions:
REMARK  status: ('A' for Active; 'I' for Inactive)
REMARK    1  A    between atoms: C_1  and  C_2
REMARK    2  A    between atoms: C_2  and  O_3
REMARK    3  A    between atoms: O_3  and  C_4
REMARK    4  A    between atoms: C_7  and  C_8
REMARK    5  A    between atoms: C_9  and  N_10
REMARK    6  A    between atoms: N_13  and  CA_14
REMARK    7  A    between atoms: C_20  and  C_21
REMARK    8  A    between atoms: C_20  and  C_22
REMARK    9  A    between atoms: CA_23  and  C_24
REMARK                            x       y       z     vdW  Elec       q    Type
REMARK                         _______ _______ _______ _____ _____    ______ ____
ROOT
ATOM      1  N   UNL     1       7.850   8.805  17.321  0.00  0.00    +0.000 N 
ATOM      2  C   UNL     1       8.660   9.443  18.240  0.00  0.00    +0.000 C 
ATOM      3  O   UNL     1       8.883   9.007  19.367  0.00  0.00    +0.000 OA
ATOM      4  N   UNL     1       9.218  10.608  17.795  0.00  0.00    +0.000 N 
ATOM      5  H   UNL     1       7.645   9.264  16.444  0.00  0.00    +0.000 HD
ATOM      6  H   UNL     1       8.874  11.034  16.944  0.00  0.00    +0.000 HD
ENDROOT
BRANCH   4   7
ATOM      7  CA  UNL     1       9.917  11.499  18.789  0.00  0.00    +0.000 C 
ATOM      8  C   UNL     1      10.814  12.630  18.155  0.00  0.00    +0.000 C 
ATOM      9  O   UNL     1      11.742  12.689  17.385  0.00  0.00    +0.000 OA
ATOM     10  N   UNL     1      10.160  13.529  18.889  0.00  0.00    +0.000 N 
ATOM     11  C   UNL     1       9.050  12.689  19.267  0.00  0.00    +0.000 C 
ATOM     12  S   UNL     1       8.922  13.182  21.012  0.00  0.00    +0.000 S 
ATOM     13  C   UNL     1       9.457  14.985  20.579  0.00  0.00    +0.000 C 
ATOM     14  C   UNL     1       8.231  15.876  20.801  0.00  0.00    +0.000 C 
ATOM     15  C   UNL     1      10.543  15.350  21.604  0.00  0.00    +0.000 C 
ATOM     16  CA  UNL     1      10.029  14.954  19.126  0.00  0.00    +0.000 C 
BRANCH  16  17
ATOM     17  C   UNL     1       9.169  15.652  18.021  0.00  0.00    +0.000 C 
ATOM     18  O   UNL     1       9.651  16.726  17.563  0.00  0.00    +0.000 OA
ATOM     19  OXT UNL     1       8.080  15.076  17.718  0.00  0.00    +0.000 OA
ENDBRANCH  16  17
ENDBRANCH   4   7
BRANCH   1  21
ATOM     20  C   UNL     1       6.106   7.132  17.136  0.00  0.00    +0.000 C 
ATOM     21  C   UNL     1       7.254   7.608  17.641  0.00  0.00    +0.000 C 
BRANCH  20  25
ATOM     22  C   UNL     1       4.322   3.380  18.338  0.00  0.00    +0.000 A 
ATOM     23  C   UNL     1       4.981   4.172  19.275  0.00  0.00    +0.000 A 
ATOM     24  C   UNL     1       5.559   5.384  18.891  0.00  0.00    +0.000 A 
ATOM     25  C   UNL     1       5.519   5.839  17.564  0.00  0.00    +0.000 A 
ATOM     26  C   UNL     1       4.879   5.016  16.627  0.00  0.00    +0.000 A 
ATOM     27  C   UNL     1       4.288   3.795  17.009  0.00  0.00    +0.000 A 
BRANCH  22  28
ATOM     28  O   UNL     1       3.789   2.236  18.855  0.00  0.00    +0.000 OA
BRANCH  28  30
ATOM     29  C   UNL     1       1.625   2.494  19.780  0.00  0.00    +0.000 C 
ATOM     30  C   UNL     1       2.416   1.990  18.585  0.00  0.00    +0.000 C 
ENDBRANCH  28  30
ENDBRANCH  22  28
ENDBRANCH  20  25
ENDBRANCH   1  21
TORSDOF 6
ENDMDL
MODEL 7
REMARK VINA RESULT:      -7.2      1.037      1.185
REMARK  Name = 
REMARK  9 active torsions:
REMARK  status: ('A' for Active; 'I' for Inactive)
REMARK    1  A    between atoms: C_1  and  C_2
REMARK    2  A    between atoms: C_2  and  O_3
REMARK    3  A    between atoms: O_3  and  C_4
REMARK    4  A    between atoms: C_7  and  C_8
REMARK    5  A    between atoms: C_9  and  N_10
REMARK    6  A    between atoms: N_13  and  CA_14
REMARK    7  A    between atoms: C_20  and  C_21
REMARK    8  A    between atoms: C_20  and  C_22
REMARK    9  A    between atoms: CA_23  and  C_24
REMARK                            x       y       z     vdW  Elec       q    Type
REMARK                         _______ _______ _______ _____ _____    ______ ____
ROOT
ATOM      1  N   UNL     1       8.555   7.642  18.683  0.00  0.00    +0.000 N 
ATOM      2  C   UNL     1       7.431   7.374  17.925  0.00  0.00    +0.000 C 
ATOM      3  O   UNL     1       6.911   8.191  17.170  0.00  0.00    +0.000 OA
ATOM      4  N   UNL     1       6.938   6.108  18.068  0.00  0.00    +0.000 N 
ATOM      5  H   UNL     1       8.880   6.951  19.344  0.00  0.00    +0.000 HD
ATOM      6  H   UNL     1       7.269   5.525  18.827  0.00  0.00    +0.000 HD
ENDROOT
BRANCH   4   7
ATOM      7  CA  UNL     1       5.588   5.789  17.481  0.00  0.00    +0.000 C 
ATOM      8  C   UNL     1       5.468   4.362  16.823  0.00  0.00    +0.000 C 
ATOM      9  O   UNL     1       6.038   3.740  15.959  0.00  0.00    +0.000 OA
ATOM     10  N   UNL     1       4.398   4.127  17.580  0.00  0.00    +0.000 N 
ATOM     11  C   UNL     1       4.586   5.213  18.512  0.00  0.00    +0.000 C 
ATOM     12  S   UNL     1       2.860   5.768  18.631  0.00  0.00    +0.000 S 
ATOM     13  C   UNL     1       2.225   3.956  18.433  0.00  0.00    +0.000 C 
ATOM     14  C   UNL     1       1.620   3.550  19.779  0.00  0.00    +0.000 C 
ATOM     15  C   UNL     1       1.114   4.022  17.373  0.00  0.00    +0.000 C 
ATOM     16  CA  UNL     1       3.437   3.101  17.939  0.00  0.00    +0.000 C 
BRANCH  16  17
ATOM     17  C   UNL     1       4.031   2.077  18.961  0.00  0.00    +0.000 C 
ATOM     18  O   UNL     1       4.789   2.572  19.841  0.00  0.00    +0.000 OA
ATOM     19  OXT UNL     1       3.703   0.863  18.785  0.00  0.00    +0.000 OA
ENDBRANCH  16  17
ENDBRANCH   4   7
BRANCH   1  21
ATOM     20  C   UNL     1       8.576  10.027  18.252  0.00  0.00    +0.000 C 
ATOM     21  C   UNL     1       9.163   8.873  18.603  0.00  0.00    +0.000 C 
BRANCH  20  25
ATOM     22  C   UNL     1      10.795  13.734  18.052  0.00  0.00    +0.000 A 
ATOM     23  C   UNL     1       9.402  13.752  18.040  0.00  0.00    +0.000 A 
ATOM     24  C   UNL     1       8.682  12.556  18.104  0.00  0.00    +0.000 A 
ATOM     25  C   UNL     1       9.318  11.308  18.162  0.00  0.00    +0.000 A 
ATOM     26  C   UNL     1      10.720  11.305  18.142  0.00  0.00    +0.000 A 
ATOM     27  C   UNL     1      11.453  12.507  18.084  0.00  0.00    +0.000 A 
BRANCH  22  28
ATOM     28  O   UNL     1      11.365  14.972  18.005  0.00  0.00    +0.000 OA
BRANCH  28  30
ATOM     29  C   UNL     1      11.639  16.100  20.069  0.00  0.00    +0.000 C 
ATOM     30  C   UNL     1      12.333  15.269  19.002  0.00  0.00    +0.000 C 
ENDBRANCH  28  30
ENDBRANCH  22  28
ENDBRANCH  20  25
ENDBRANCH   1  21
TORSDOF 6
ENDMDL
MODEL 8
REMARK VINA RESULT:      -7.2      0.641      1.099
REMARK  Name = 
REMARK  9 active torsions:
REMARK  status: ('A' for Active; 'I' for Inactive)
REMARK    1  A    between atoms: C_1  and  C_2
REMARK    2  A    between atoms: C_2  and  O_3
REMARK    3  A    between atoms: O_3  and  C_4
REMARK    4  A    between atoms: C_7  and  C_8
REMARK    5  A    between atoms: C_9  and  N_10
REMARK    6  A    between atoms: N_13  and  CA_14
REMARK    7  A    between atoms: C_20  and  C_21
REMARK    8  A    between atoms: C_20  and  C_22
REMARK    9  A    between atoms: CA_23  and  C_24
REMARK                            x       y       z     vdW  Elec       q    Type
REMARK                         _______ _______ _______ _____ _____    ______ ____
ROOT
ATOM      1  N   UNL     1       8.561   8.591  18.450  0.00  0.00    +0.000 N 
ATOM      2  C   UNL     1       7.451   8.186  17.735  0.00  0.00    +0.000 C 
ATOM      3  O   UNL     1       6.720   8.959  17.119  0.00  0.00    +0.000 OA
ATOM      4  N   UNL     1       7.224   6.839  17.750  0.00  0.00    +0.000 N 
ATOM      5  H   UNL     1       9.067   7.911  19.000  0.00  0.00    +0.000 HD
ATOM      6  H   UNL     1       7.724   6.255  18.409  0.00  0.00    +0.000 HD
ENDROOT
BRANCH   4   7
ATOM      7  CA  UNL     1       5.917   6.320  17.210  0.00  0.00    +0.000 C 
ATOM      8  C   UNL     1       5.906   4.786  16.851  0.00  0.00    +0.000 C 
ATOM      9  O   UNL     1       6.542   4.043  16.142  0.00  0.00    +0.000 OA
ATOM     10  N   UNL     1       4.827   4.636  17.617  0.00  0.00    +0.000 N 
ATOM     11  C   UNL     1       4.918   5.896  18.315  0.00  0.00    +0.000 C 
ATOM     12  S   UNL     1       3.158   6.349  18.283  0.00  0.00    +0.000 S 
ATOM     13  C   UNL     1       2.641   4.496  18.441  0.00  0.00    +0.000 C 
ATOM     14  C   UNL     1       2.016   4.327  19.828  0.00  0.00    +0.000 C 
ATOM     15  C   UNL     1       1.565   4.275  17.366  0.00  0.00    +0.000 C 
ATOM     16  CA  UNL     1       3.918   3.642  18.155  0.00  0.00    +0.000 C 
BRANCH  16  17
ATOM     17  C   UNL     1       4.538   2.883  19.374  0.00  0.00    +0.000 C 
ATOM     18  O   UNL     1       5.406   3.530  20.025  0.00  0.00    +0.000 OA
ATOM     19  OXT UNL     1       4.117   1.701  19.566  0.00  0.00    +0.000 OA
ENDBRANCH  16  17
ENDBRANCH   4   7
BRANCH   1  21
ATOM     20  C   UNL     1      10.155  10.413  18.579  0.00  0.00    +0.000 C 
ATOM     21  C   UNL     1       8.911   9.920  18.486  0.00  0.00    +0.000 C 
BRANCH  20  25
ATOM     22  C   UNL     1      10.922  14.661  18.832  0.00  0.00    +0.000 A 
ATOM     23  C   UNL     1      10.759  14.053  17.589  0.00  0.00    +0.000 A 
ATOM     24  C   UNL     1      10.511  12.681  17.503  0.00  0.00    +0.000 A 
ATOM     25  C   UNL     1      10.437  11.867  18.643  0.00  0.00    +0.000 A 
ATOM     26  C   UNL     1      10.634  12.488  19.884  0.00  0.00    +0.000 A 
ATOM     27  C   UNL     1      10.877  13.873  19.979  0.00  0.00    +0.000 A 
BRANCH  22  28
ATOM     28  O   UNL     1      11.136  16.007  18.767  0.00  0.00    +0.000 OA
BRANCH  28  30
ATOM     29  C   UNL     1      10.515  17.808  17.361  0.00  0.00    +0.000 C 
ATOM     30  C   UNL     1      11.370  16.557  17.478  0.00  0.00    +0.000 C 
ENDBRANCH  28  30
ENDBRANCH  22  28
ENDBRANCH  20  25
ENDBRANCH   1  21
TORSDOF 6
ENDMDL
MODEL 9
REMARK VINA RESULT:      -7.2      7.741     10.805
REMARK  Name = 
REMARK  9 active torsions:
REMARK  status: ('A' for Active; 'I' for Inactive)
REMARK    1  A    between atoms: C_1  and  C_2
REMARK    2  A    between atoms: C_2  and  O_3
REMARK    3  A    between atoms: O_3  and  C_4
REMARK    4  A    between atoms: C_7  and  C_8
REMARK    5  A    between atoms: C_9  and  N_10
REMARK    6  A    between atoms: N_13  and  CA_14
REMARK    7  A    between atoms: C_20  and  C_21
REMARK    8  A    between atoms: C_20  and  C_22
REMARK    9  A    between atoms: CA_23  and  C_24
REMARK                            x       y       z     vdW  Elec       q    Type
REMARK                         _______ _______ _______ _____ _____    ______ ____
ROOT
ATOM      1  N   UNL     1       1.701   8.267  19.674  0.00  0.00    +0.000 N 
ATOM      2  C   UNL     1       1.158   9.486  19.316  0.00  0.00    +0.000 C 
ATOM      3  O   UNL     1       1.348  10.021  18.226  0.00  0.00    +0.000 OA
ATOM      4  N   UNL     1       0.368  10.059  20.272  0.00  0.00    +0.000 N 
ATOM      5  H   UNL     1       1.570   7.927  20.616  0.00  0.00    +0.000 HD
ATOM      6  H   UNL     1       0.380   9.693  21.216  0.00  0.00    +0.000 HD
ENDROOT
BRANCH   4   7
ATOM      7  CA  UNL     1      -0.074  11.487  20.082  0.00  0.00    +0.000 C 
ATOM      8  C   UNL     1      -1.607  11.675  19.770  0.00  0.00    +0.000 C 
ATOM      9  O   UNL     1      -2.392  11.277  18.943  0.00  0.00    +0.000 OA
ATOM     10  N   UNL     1      -1.685  12.537  20.781  0.00  0.00    +0.000 N 
ATOM     11  C   UNL     1      -0.428  12.205  21.408  0.00  0.00    +0.000 C 
ATOM     12  S   UNL     1       0.131  13.889  21.800  0.00  0.00    +0.000 S 
ATOM     13  C   UNL     1      -1.686  14.456  22.121  0.00  0.00    +0.000 C 
ATOM     14  C   UNL     1      -1.807  14.728  23.622  0.00  0.00    +0.000 C 
ATOM     15  C   UNL     1      -1.848  15.776  21.349  0.00  0.00    +0.000 C 
ATOM     16  CA  UNL     1      -2.619  13.341  21.548  0.00  0.00    +0.000 C 
BRANCH  16  17
ATOM     17  C   UNL     1      -3.405  12.483  22.593  0.00  0.00    +0.000 C 
ATOM     18  O   UNL     1      -4.663  12.586  22.537  0.00  0.00    +0.000 OA
ATOM     19  OXT UNL     1      -2.698  11.793  23.390  0.00  0.00    +0.000 OA
ENDBRANCH  16  17
ENDBRANCH   4   7
BRANCH   1  21
ATOM     20  C   UNL     1       2.793   6.271  18.837  0.00  0.00    +0.000 C 
ATOM     21  C   UNL     1       2.491   7.577  18.784  0.00  0.00    +0.000 C 
BRANCH  20  25
ATOM     22  C   UNL     1       5.357   4.412  15.893  0.00  0.00    +0.000 A 
ATOM     23  C   UNL     1       4.600   3.624  16.758  0.00  0.00    +0.000 A 
ATOM     24  C   UNL     1       3.771   4.221  17.711  0.00  0.00    +0.000 A 
ATOM     25  C   UNL     1       3.682   5.614  17.848  0.00  0.00    +0.000 A 
ATOM     26  C   UNL     1       4.472   6.392  16.991  0.00  0.00    +0.000 A 
ATOM     27  C   UNL     1       5.305   5.797  16.023  0.00  0.00    +0.000 A 
BRANCH  22  28
ATOM     28  O   UNL     1       6.103   3.697  15.002  0.00  0.00    +0.000 OA
BRANCH  28  30
ATOM     29  C   UNL     1       6.061   3.494  12.644  0.00  0.00    +0.000 C 
ATOM     30  C   UNL     1       6.492   4.366  13.811  0.00  0.00    +0.000 C 
ENDBRANCH  28  30
ENDBRANCH  22  28
ENDBRANCH  20  25
ENDBRANCH   1  21
TORSDOF 6
ENDMDL
