MODEL 1
REMARK VINA RESULT:      -6.9      0.000      0.000
REMARK  Name = 
REMARK  7 active torsions:
REMARK  status: ('A' for Active; 'I' for Inactive)
REMARK    1  A    between atoms: C_1  and  C_2
REMARK    2  A    between atoms: C_2  and  C_3
REMARK    3  A    between atoms: C_17  and  C_18
REMARK    4  A    between atoms: C_21  and  O_22
REMARK    5  A    between atoms: C_24  and  C_25
REMARK    6  A    between atoms: C_26  and  C_27
REMARK    7  A    between atoms: C_27  and  C_29
REMARK                            x       y       z     vdW  Elec       q    Type
REMARK                         _______ _______ _______ _____ _____    ______ ____
ROOT
ATOM      1  C   UNL     1       1.245   8.907  19.819  0.00  0.00    +0.000 C 
ATOM      2  C   UNL     1       1.061   9.983  18.719  0.00  0.00    +0.000 C 
ATOM      3  C   UNL     1       2.204   9.846  17.728  0.00  0.00    +0.000 C 
ATOM      4  O   UNL     1      -0.185   9.752  18.087  0.00  0.00    +0.000 OA
ATOM      5  C   UNL     1      -1.094  10.334  19.011  0.00  0.00    +0.000 C 
ATOM      6  C   UNL     1      -2.268  10.999  18.308  0.00  0.00    +0.000 C 
ATOM      7  C   UNL     1      -2.590  11.979  19.407  0.00  0.00    +0.000 C 
ATOM      8  C   UNL     1      -3.963  12.651  19.456  0.00  0.00    +0.000 C 
ATOM      9  C   UNL     1      -5.046  11.540  19.516  0.00  0.00    +0.000 C 
ATOM     10  C   UNL     1      -6.443  12.078  19.748  0.00  0.00    +0.000 C 
ATOM     11  C   UNL     1      -6.437  12.889  21.013  0.00  0.00    +0.000 C 
ATOM     12  C   UNL     1      -7.156  12.456  22.062  0.00  0.00    +0.000 C 
ATOM     13  C   UNL     1      -6.978  13.043  23.409  0.00  0.00    +0.000 C 
ATOM     14  O   UNL     1      -7.766  12.767  24.309  0.00  0.00    +0.000 OA
ATOM     15  C   UNL     1      -5.751  13.881  23.617  0.00  0.00    +0.000 C 
ATOM     16  C   UNL     1      -5.597  14.814  22.425  0.00  0.00    +0.000 C 
ATOM     17  C   UNL     1      -5.461  14.098  21.040  0.00  0.00    +0.000 C 
ATOM     18  C   UNL     1      -5.864  15.122  19.970  0.00  0.00    +0.000 C 
ATOM     19  C   UNL     1      -4.017  13.542  20.746  0.00  0.00    +0.000 C 
ATOM     20  F   UNL     1      -3.727  12.719  21.819  0.00  0.00    +0.000 F 
ATOM     21  C   UNL     1      -2.814  14.535  20.630  0.00  0.00    +0.000 C 
ATOM     22  C   UNL     1      -1.477  13.745  20.767  0.00  0.00    +0.000 C 
ATOM     23  C   UNL     1      -1.246  12.754  19.595  0.00  0.00    +0.000 C 
ATOM     24  C   UNL     1      -0.679  13.604  18.441  0.00  0.00    +0.000 C 
ATOM     25  C   UNL     1      -0.328  11.463  19.789  0.00  0.00    +0.000 C 
ATOM     26  O   UNL     1       0.991  11.347  19.219  0.00  0.00    +0.000 OA
ENDROOT
BRANCH  21  27
ATOM     27  O   UNL     1      -2.800  15.574  21.593  0.00  0.00    +0.000 OA
ATOM     28  H   UNL     1      -3.722  15.792  21.816  0.00  0.00    +0.000 HD
ENDBRANCH  21  27
BRANCH  25  29
ATOM     29  C   UNL     1      -0.070  11.265  21.293  0.00  0.00    +0.000 C 
ATOM     30  O   UNL     1       0.841  11.842  21.871  0.00  0.00    +0.000 OA
BRANCH  29  31
ATOM     31  C   UNL     1      -1.048  10.313  21.987  0.00  0.00    +0.000 C 
ATOM     32 CL   UNL     1      -0.288   9.531  23.380  0.00  0.00    +0.000 Cl
ENDBRANCH  29  31
ENDBRANCH  25  29
TORSDOF 3
ENDMDL
MODEL 2
REMARK VINA RESULT:      -6.6      2.410      7.163
REMARK  Name = 
REMARK  7 active torsions:
REMARK  status: ('A' for Active; 'I' for Inactive)
REMARK    1  A    between atoms: C_1  and  C_2
REMARK    2  A    between atoms: C_2  and  C_3
REMARK    3  A    between atoms: C_17  and  C_18
REMARK    4  A    between atoms: C_21  and  O_22
REMARK    5  A    between atoms: C_24  and  C_25
REMARK    6  A    between atoms: C_26  and  C_27
REMARK    7  A    between atoms: C_27  and  C_29
REMARK                            x       y       z     vdW  Elec       q    Type
REMARK                         _______ _______ _______ _____ _____    ______ ____
ROOT
ATOM      1  C   UNL     1      -7.892  12.191  22.967  0.00  0.00    +0.000 C 
ATOM      2  C   UNL     1      -7.019  13.268  23.661  0.00  0.00    +0.000 C 
ATOM      3  C   UNL     1      -7.917  14.089  24.572  0.00  0.00    +0.000 C 
ATOM      4  O   UNL     1      -6.018  12.602  24.408  0.00  0.00    +0.000 OA
ATOM      5  C   UNL     1      -5.070  12.276  23.400  0.00  0.00    +0.000 C 
ATOM      6  C   UNL     1      -3.641  12.370  23.914  0.00  0.00    +0.000 C 
ATOM      7  C   UNL     1      -2.996  12.621  22.575  0.00  0.00    +0.000 C 
ATOM      8  C   UNL     1      -1.496  12.381  22.391  0.00  0.00    +0.000 C 
ATOM      9  C   UNL     1      -1.191  10.906  22.764  0.00  0.00    +0.000 C 
ATOM     10  C   UNL     1       0.233  10.492  22.453  0.00  0.00    +0.000 C 
ATOM     11  C   UNL     1       0.492  10.740  20.993  0.00  0.00    +0.000 C 
ATOM     12  C   UNL     1       0.724   9.688  20.190  0.00  0.00    +0.000 C 
ATOM     13  C   UNL     1       0.709   9.830  18.717  0.00  0.00    +0.000 C 
ATOM     14  O   UNL     1       1.101   8.909  18.006  0.00  0.00    +0.000 OA
ATOM     15  C   UNL     1       0.101  11.089  18.172  0.00  0.00    +0.000 C 
ATOM     16  C   UNL     1       0.628  12.266  18.979  0.00  0.00    +0.000 C 
ATOM     17  C   UNL     1       0.317  12.207  20.512  0.00  0.00    +0.000 C 
ATOM     18  C   UNL     1       1.341  13.114  21.207  0.00  0.00    +0.000 C 
ATOM     19  C   UNL     1      -1.148  12.651  20.886  0.00  0.00    +0.000 C 
ATOM     20  F   UNL     1      -1.971  11.838  20.127  0.00  0.00    +0.000 F 
ATOM     21  C   UNL     1      -1.609  14.118  20.596  0.00  0.00    +0.000 C 
ATOM     22  C   UNL     1      -3.166  14.188  20.647  0.00  0.00    +0.000 C 
ATOM     23  C   UNL     1      -3.732  13.901  22.063  0.00  0.00    +0.000 C 
ATOM     24  C   UNL     1      -3.599  15.227  22.838  0.00  0.00    +0.000 C 
ATOM     25  C   UNL     1      -5.212  13.336  22.250  0.00  0.00    +0.000 C 
ATOM     26  O   UNL     1      -6.300  14.140  22.746  0.00  0.00    +0.000 OA
ENDROOT
BRANCH  21  27
ATOM     27  O   UNL     1      -1.195  14.640  19.346  0.00  0.00    +0.000 OA
ATOM     28  H   UNL     1      -0.668  13.958  18.893  0.00  0.00    +0.000 HD
ENDBRANCH  21  27
BRANCH  25  29
ATOM     29  C   UNL     1      -5.732  12.861  20.881  0.00  0.00    +0.000 C 
ATOM     30  O   UNL     1      -5.575  11.710  20.497  0.00  0.00    +0.000 OA
BRANCH  29  31
ATOM     31  C   UNL     1      -6.463  13.935  20.070  0.00  0.00    +0.000 C 
ATOM     32 CL   UNL     1      -6.412  13.564  18.341  0.00  0.00    +0.000 Cl
ENDBRANCH  29  31
ENDBRANCH  25  29
TORSDOF 3
ENDMDL
MODEL 3
REMARK VINA RESULT:      -6.1      7.889     12.072
REMARK  Name = 
REMARK  7 active torsions:
REMARK  status: ('A' for Active; 'I' for Inactive)
REMARK    1  A    between atoms: C_1  and  C_2
REMARK    2  A    between atoms: C_2  and  C_3
REMARK    3  A    between atoms: C_17  and  C_18
REMARK    4  A    between atoms: C_21  and  O_22
REMARK    5  A    between atoms: C_24  and  C_25
REMARK    6  A    between atoms: C_26  and  C_27
REMARK    7  A    between atoms: C_27  and  C_29
REMARK                            x       y       z     vdW  Elec       q    Type
REMARK                         _______ _______ _______ _____ _____    ______ ____
ROOT
ATOM      1  C   UNL     1       1.436  14.551  20.742  0.00  0.00    +0.000 C 
ATOM      2  C   UNL     1       2.130  15.535  21.717  0.00  0.00    +0.000 C 
ATOM      3  C   UNL     1       1.051  16.291  22.474  0.00  0.00    +0.000 C 
ATOM      4  O   UNL     1       2.930  14.776  22.605  0.00  0.00    +0.000 OA
ATOM      5  C   UNL     1       4.083  14.521  21.814  0.00  0.00    +0.000 C 
ATOM      6  C   UNL     1       5.356  14.528  22.648  0.00  0.00    +0.000 C 
ATOM      7  C   UNL     1       6.292  14.885  21.522  0.00  0.00    +0.000 C 
ATOM      8  C   UNL     1       7.793  14.624  21.663  0.00  0.00    +0.000 C 
ATOM      9  C   UNL     1       7.998  13.113  21.952  0.00  0.00    +0.000 C 
ATOM     10  C   UNL     1       9.453  12.692  21.935  0.00  0.00    +0.000 C 
ATOM     11  C   UNL     1      10.042  13.067  20.605  0.00  0.00    +0.000 C 
ATOM     12  C   UNL     1      10.447  12.089  19.778  0.00  0.00    +0.000 C 
ATOM     13  C   UNL     1      10.772  12.367  18.361  0.00  0.00    +0.000 C 
ATOM     14  O   UNL     1      11.313  11.506  17.673  0.00  0.00    +0.000 OA
ATOM     15  C   UNL     1      10.312  13.687  17.815  0.00  0.00    +0.000 C 
ATOM     16  C   UNL     1      10.644  14.770  18.831  0.00  0.00    +0.000 C 
ATOM     17  C   UNL     1       9.989  14.577  20.240  0.00  0.00    +0.000 C 
ATOM     18  C   UNL     1      10.830  15.388  21.235  0.00  0.00    +0.000 C 
ATOM     19  C   UNL     1       8.479  15.023  20.310  0.00  0.00    +0.000 C 
ATOM     20  F   UNL     1       7.849  14.306  19.309  0.00  0.00    +0.000 F 
ATOM     21  C   UNL     1       8.104  16.522  20.066  0.00  0.00    +0.000 C 
ATOM     22  C   UNL     1       6.577  16.629  19.766  0.00  0.00    +0.000 C 
ATOM     23  C   UNL     1       5.700  16.227  20.981  0.00  0.00    +0.000 C 
ATOM     24  C   UNL     1       5.657  17.471  21.890  0.00  0.00    +0.000 C 
ATOM     25  C   UNL     1       4.214  15.686  20.770  0.00  0.00    +0.000 C 
ATOM     26  O   UNL     1       3.044  16.469  21.079  0.00  0.00    +0.000 OA
ENDROOT
BRANCH  21  27
ATOM     27  O   UNL     1       8.796  17.147  18.999  0.00  0.00    +0.000 OA
ATOM     28  H   UNL     1       9.674  16.733  18.926  0.00  0.00    +0.000 HD
ENDBRANCH  21  27
BRANCH  25  29
ATOM     29  C   UNL     1       4.020  15.354  19.279  0.00  0.00    +0.000 C 
ATOM     30  O   UNL     1       4.292  14.251  18.825  0.00  0.00    +0.000 OA
BRANCH  29  31
ATOM     31  C   UNL     1       3.452  16.502  18.440  0.00  0.00    +0.000 C 
ATOM     32 CL   UNL     1       3.333  16.040  16.736  0.00  0.00    +0.000 Cl
ENDBRANCH  29  31
ENDBRANCH  25  29
TORSDOF 3
ENDMDL
MODEL 4
REMARK VINA RESULT:      -6.0      8.040     12.208
REMARK  Name = 
REMARK  7 active torsions:
REMARK  status: ('A' for Active; 'I' for Inactive)
REMARK    1  A    between atoms: C_1  and  C_2
REMARK    2  A    between atoms: C_2  and  C_3
REMARK    3  A    between atoms: C_17  and  C_18
REMARK    4  A    between atoms: C_21  and  O_22
REMARK    5  A    between atoms: C_24  and  C_25
REMARK    6  A    between atoms: C_26  and  C_27
REMARK    7  A    between atoms: C_27  and  C_29
REMARK                            x       y       z     vdW  Elec       q    Type
REMARK                         _______ _______ _______ _____ _____    ______ ____
ROOT
ATOM      1  C   UNL     1       1.504  16.241  20.014  0.00  0.00    +0.000 C 
ATOM      2  C   UNL     1       2.361  17.223  20.852  0.00  0.00    +0.000 C 
ATOM      3  C   UNL     1       1.431  18.256  21.467  0.00  0.00    +0.000 C 
ATOM      4  O   UNL     1       3.020  16.477  21.859  0.00  0.00    +0.000 OA
ATOM      5  C   UNL     1       4.108  15.914  21.139  0.00  0.00    +0.000 C 
ATOM      6  C   UNL     1       5.366  15.825  21.991  0.00  0.00    +0.000 C 
ATOM      7  C   UNL     1       6.347  15.847  20.847  0.00  0.00    +0.000 C 
ATOM      8  C   UNL     1       7.780  15.355  21.058  0.00  0.00    +0.000 C 
ATOM      9  C   UNL     1       7.721  13.891  21.568  0.00  0.00    +0.000 C 
ATOM     10  C   UNL     1       9.081  13.228  21.645  0.00  0.00    +0.000 C 
ATOM     11  C   UNL     1       9.723  13.298  20.288  0.00  0.00    +0.000 C 
ATOM     12  C   UNL     1       9.950  12.154  19.621  0.00  0.00    +0.000 C 
ATOM     13  C   UNL     1      10.314  12.162  18.187  0.00  0.00    +0.000 C 
ATOM     14  O   UNL     1      10.696  11.129  17.642  0.00  0.00    +0.000 OA
ATOM     15  C   UNL     1      10.088  13.448  17.445  0.00  0.00    +0.000 C 
ATOM     16  C   UNL     1      10.605  14.594  18.301  0.00  0.00    +0.000 C 
ATOM     17  C   UNL     1       9.930  14.724  19.708  0.00  0.00    +0.000 C 
ATOM     18  C   UNL     1      10.902  15.516  20.594  0.00  0.00    +0.000 C 
ATOM     19  C   UNL     1       8.521  15.429  19.678  0.00  0.00    +0.000 C 
ATOM     20  F   UNL     1       7.774  14.692  18.777  0.00  0.00    +0.000 F 
ATOM     21  C   UNL     1       8.410  16.918  19.211  0.00  0.00    +0.000 C 
ATOM     22  C   UNL     1       6.925  17.240  18.865  0.00  0.00    +0.000 C 
ATOM     23  C   UNL     1       5.994  17.177  20.105  0.00  0.00    +0.000 C 
ATOM     24  C   UNL     1       6.169  18.529  20.823  0.00  0.00    +0.000 C 
ATOM     25  C   UNL     1       4.436  16.874  19.940  0.00  0.00    +0.000 C 
ATOM     26  O   UNL     1       3.421  17.883  20.106  0.00  0.00    +0.000 OA
ENDROOT
BRANCH  21  27
ATOM     27  O   UNL     1       9.198  17.251  18.082  0.00  0.00    +0.000 OA
ATOM     28  H   UNL     1      10.033  16.754  18.138  0.00  0.00    +0.000 HD
ENDBRANCH  21  27
BRANCH  25  29
ATOM     29  C   UNL     1       4.184  16.366  18.509  0.00  0.00    +0.000 C 
ATOM     30  O   UNL     1       3.740  17.098  17.635  0.00  0.00    +0.000 OA
BRANCH  29  31
ATOM     31  C   UNL     1       4.545  14.895  18.283  0.00  0.00    +0.000 C 
ATOM     32 CL   UNL     1       3.089  13.892  18.201  0.00  0.00    +0.000 Cl
ENDBRANCH  29  31
ENDBRANCH  25  29
TORSDOF 3
ENDMDL
MODEL 5
REMARK VINA RESULT:      -5.9      7.380      9.657
REMARK  Name = 
REMARK  7 active torsions:
REMARK  status: ('A' for Active; 'I' for Inactive)
REMARK    1  A    between atoms: C_1  and  C_2
REMARK    2  A    between atoms: C_2  and  C_3
REMARK    3  A    between atoms: C_17  and  C_18
REMARK    4  A    between atoms: C_21  and  O_22
REMARK    5  A    between atoms: C_24  and  C_25
REMARK    6  A    between atoms: C_26  and  C_27
REMARK    7  A    between atoms: C_27  and  C_29
REMARK                            x       y       z     vdW  Elec       q    Type
REMARK                         _______ _______ _______ _____ _____    ______ ____
ROOT
ATOM      1  C   UNL     1      11.002  12.000  19.492  0.00  0.00    +0.000 C 
ATOM      2  C   UNL     1      10.836  13.037  18.351  0.00  0.00    +0.000 C 
ATOM      3  C   UNL     1      12.124  13.062  17.545  0.00  0.00    +0.000 C 
ATOM      4  O   UNL     1       9.745  12.628  17.546  0.00  0.00    +0.000 OA
ATOM      5  C   UNL     1       8.634  13.076  18.310  0.00  0.00    +0.000 C 
ATOM      6  C   UNL     1       7.497  13.564  17.424  0.00  0.00    +0.000 C 
ATOM      7  C   UNL     1       6.878  14.490  18.440  0.00  0.00    +0.000 C 
ATOM      8  C   UNL     1       5.432  14.959  18.267  0.00  0.00    +0.000 C 
ATOM      9  C   UNL     1       4.521  13.705  18.192  0.00  0.00    +0.000 C 
ATOM     10  C   UNL     1       3.043  14.037  18.199  0.00  0.00    +0.000 C 
ATOM     11  C   UNL     1       2.743  14.844  19.432  0.00  0.00    +0.000 C 
ATOM     12  C   UNL     1       1.942  14.315  20.372  0.00  0.00    +0.000 C 
ATOM     13  C   UNL     1       1.830  14.924  21.716  0.00  0.00    +0.000 C 
ATOM     14  O   UNL     1       0.963  14.541  22.495  0.00  0.00    +0.000 OA
ATOM     15  C   UNL     1       2.882  15.930  22.085  0.00  0.00    +0.000 C 
ATOM     16  C   UNL     1       3.080  16.873  20.907  0.00  0.00    +0.000 C 
ATOM     17  C   UNL     1       3.523  16.180  19.575  0.00  0.00    +0.000 C 
ATOM     18  C   UNL     1       3.145  17.134  18.433  0.00  0.00    +0.000 C 
ATOM     19  C   UNL     1       5.059  15.836  19.513  0.00  0.00    +0.000 C 
ATOM     20  F   UNL     1       5.297  15.066  20.637  0.00  0.00    +0.000 F 
ATOM     21  C   UNL     1       6.114  16.991  19.553  0.00  0.00    +0.000 C 
ATOM     22  C   UNL     1       7.512  16.400  19.907  0.00  0.00    +0.000 C 
ATOM     23  C   UNL     1       8.056  15.450  18.807  0.00  0.00    +0.000 C 
ATOM     24  C   UNL     1       8.664  16.370  17.730  0.00  0.00    +0.000 C 
ATOM     25  C   UNL     1       9.107  14.304  19.166  0.00  0.00    +0.000 C 
ATOM     26  O   UNL     1      10.499  14.378  18.802  0.00  0.00    +0.000 OA
ENDROOT
BRANCH  21  27
ATOM     27  O   UNL     1       5.835  18.024  20.483  0.00  0.00    +0.000 OA
ATOM     28  H   UNL     1       6.615  18.604  20.533  0.00  0.00    +0.000 HD
ENDBRANCH  21  27
BRANCH  25  29
ATOM     29  C   UNL     1       9.160  14.149  20.697  0.00  0.00    +0.000 C 
ATOM     30  O   UNL     1      10.002  14.723  21.373  0.00  0.00    +0.000 OA
BRANCH  29  31
ATOM     31  C   UNL     1       8.074  13.242  21.283  0.00  0.00    +0.000 C 
ATOM     32 CL   UNL     1       8.780  12.024  22.355  0.00  0.00    +0.000 Cl
ENDBRANCH  29  31
ENDBRANCH  25  29
TORSDOF 3
ENDMDL
MODEL 6
REMARK VINA RESULT:      -5.7      8.222     12.264
REMARK  Name = 
REMARK  7 active torsions:
REMARK  status: ('A' for Active; 'I' for Inactive)
REMARK    1  A    between atoms: C_1  and  C_2
REMARK    2  A    between atoms: C_2  and  C_3
REMARK    3  A    between atoms: C_17  and  C_18
REMARK    4  A    between atoms: C_21  and  O_22
REMARK    5  A    between atoms: C_24  and  C_25
REMARK    6  A    between atoms: C_26  and  C_27
REMARK    7  A    between atoms: C_27  and  C_29
REMARK                            x       y       z     vdW  Elec       q    Type
REMARK                         _______ _______ _______ _____ _____    ______ ____
ROOT
ATOM      1  C   UNL     1       1.624  14.644  20.307  0.00  0.00    +0.000 C 
ATOM      2  C   UNL     1       2.221  15.423  21.506  0.00  0.00    +0.000 C 
ATOM      3  C   UNL     1       1.070  15.946  22.350  0.00  0.00    +0.000 C 
ATOM      4  O   UNL     1       3.025  14.527  22.251  0.00  0.00    +0.000 OA
ATOM      5  C   UNL     1       4.222  14.504  21.485  0.00  0.00    +0.000 C 
ATOM      6  C   UNL     1       5.457  14.389  22.367  0.00  0.00    +0.000 C 
ATOM      7  C   UNL     1       6.417  15.026  21.396  0.00  0.00    +0.000 C 
ATOM      8  C   UNL     1       7.924  14.810  21.556  0.00  0.00    +0.000 C 
ATOM      9  C   UNL     1       8.201  13.283  21.523  0.00  0.00    +0.000 C 
ATOM     10  C   UNL     1       9.677  12.943  21.494  0.00  0.00    +0.000 C 
ATOM     11  C   UNL     1      10.299  13.626  20.308  0.00  0.00    +0.000 C 
ATOM     12  C   UNL     1      10.793  12.871  19.312  0.00  0.00    +0.000 C 
ATOM     13  C   UNL     1      11.160  13.465  18.008  0.00  0.00    +0.000 C 
ATOM     14  O   UNL     1      11.777  12.801  17.180  0.00  0.00    +0.000 OA
ATOM     15  C   UNL     1      10.648  14.850  17.735  0.00  0.00    +0.000 C 
ATOM     16  C   UNL     1      10.876  15.700  18.976  0.00  0.00    +0.000 C 
ATOM     17  C   UNL     1      10.175  15.175  20.274  0.00  0.00    +0.000 C 
ATOM     18  C   UNL     1      10.927  15.788  21.463  0.00  0.00    +0.000 C 
ATOM     19  C   UNL     1       8.641  15.525  20.359  0.00  0.00    +0.000 C 
ATOM     20  F   UNL     1       8.095  15.015  19.195  0.00  0.00    +0.000 F 
ATOM     21  C   UNL     1       8.192  17.022  20.423  0.00  0.00    +0.000 C 
ATOM     22  C   UNL     1       6.675  17.121  20.074  0.00  0.00    +0.000 C 
ATOM     23  C   UNL     1       5.772  16.423  21.126  0.00  0.00    +0.000 C 
ATOM     24  C   UNL     1       5.621  17.437  22.277  0.00  0.00    +0.000 C 
ATOM     25  C   UNL     1       4.330  15.873  20.725  0.00  0.00    +0.000 C 
ATOM     26  O   UNL     1       3.106  16.515  21.133  0.00  0.00    +0.000 OA
ENDROOT
BRANCH  21  27
ATOM     27  O   UNL     1       8.892  17.895  19.554  0.00  0.00    +0.000 OA
ATOM     28  H   UNL     1       8.324  18.666  19.379  0.00  0.00    +0.000 HD
ENDBRANCH  21  27
BRANCH  25  29
ATOM     29  C   UNL     1       4.217  15.865  19.189  0.00  0.00    +0.000 C 
ATOM     30  O   UNL     1       3.935  16.875  18.560  0.00  0.00    +0.000 OA
BRANCH  29  31
ATOM     31  C   UNL     1       4.499  14.508  18.538  0.00  0.00    +0.000 C 
ATOM     32 CL   UNL     1       5.910  14.601  17.473  0.00  0.00    +0.000 Cl
ENDBRANCH  29  31
ENDBRANCH  25  29
TORSDOF 3
ENDMDL
MODEL 7
REMARK VINA RESULT:      -5.7      7.422      9.528
REMARK  Name = 
REMARK  7 active torsions:
REMARK  status: ('A' for Active; 'I' for Inactive)
REMARK    1  A    between atoms: C_1  and  C_2
REMARK    2  A    between atoms: C_2  and  C_3
REMARK    3  A    between atoms: C_17  and  C_18
REMARK    4  A    between atoms: C_21  and  O_22
REMARK    5  A    between atoms: C_24  and  C_25
REMARK    6  A    between atoms: C_26  and  C_27
REMARK    7  A    between atoms: C_27  and  C_29
REMARK                            x       y       z     vdW  Elec       q    Type
REMARK                         _______ _______ _______ _____ _____    ______ ____
ROOT
ATOM      1  C   UNL     1      10.937  12.816  19.867  0.00  0.00    +0.000 C 
ATOM      2  C   UNL     1      10.724  13.902  18.782  0.00  0.00    +0.000 C 
ATOM      3  C   UNL     1      12.050  14.132  18.076  0.00  0.00    +0.000 C 
ATOM      4  O   UNL     1       9.747  13.425  17.875  0.00  0.00    +0.000 OA
ATOM      5  C   UNL     1       8.541  13.688  18.580  0.00  0.00    +0.000 C 
ATOM      6  C   UNL     1       7.415  14.100  17.643  0.00  0.00    +0.000 C 
ATOM      7  C   UNL     1       6.623  14.876  18.663  0.00  0.00    +0.000 C 
ATOM      8  C   UNL     1       5.145  15.185  18.411  0.00  0.00    +0.000 C 
ATOM      9  C   UNL     1       4.399  13.841  18.194  0.00  0.00    +0.000 C 
ATOM     10  C   UNL     1       2.895  13.999  18.112  0.00  0.00    +0.000 C 
ATOM     11  C   UNL     1       2.418  14.679  19.364  0.00  0.00    +0.000 C 
ATOM     12  C   UNL     1       1.626  13.998  20.209  0.00  0.00    +0.000 C 
ATOM     13  C   UNL     1       1.352  14.497  21.575  0.00  0.00    +0.000 C 
ATOM     14  O   UNL     1       0.487  13.963  22.264  0.00  0.00    +0.000 OA
ATOM     15  C   UNL     1       2.248  15.591  22.080  0.00  0.00    +0.000 C 
ATOM     16  C   UNL     1       2.409  16.628  20.979  0.00  0.00    +0.000 C 
ATOM     17  C   UNL     1       3.020  16.084  19.644  0.00  0.00    +0.000 C 
ATOM     18  C   UNL     1       2.607  17.063  18.537  0.00  0.00    +0.000 C 
ATOM     19  C   UNL     1       4.588  15.926  19.676  0.00  0.00    +0.000 C 
ATOM     20  F   UNL     1       4.841  15.114  20.767  0.00  0.00    +0.000 F 
ATOM     21  C   UNL     1       5.490  17.190  19.864  0.00  0.00    +0.000 C 
ATOM     22  C   UNL     1       6.923  16.743  20.285  0.00  0.00    +0.000 C 
ATOM     23  C   UNL     1       7.649  15.939  19.173  0.00  0.00    +0.000 C 
ATOM     24  C   UNL     1       8.212  16.995  18.201  0.00  0.00    +0.000 C 
ATOM     25  C   UNL     1       8.804  14.902  19.540  0.00  0.00    +0.000 C 
ATOM     26  O   UNL     1      10.199  15.161  19.286  0.00  0.00    +0.000 OA
ENDROOT
BRANCH  21  27
ATOM     27  O   UNL     1       5.027  18.117  20.830  0.00  0.00    +0.000 OA
ATOM     28  H   UNL     1       4.823  18.953  20.374  0.00  0.00    +0.000 HD
ENDBRANCH  21  27
BRANCH  25  29
ATOM     29  C   UNL     1       8.773  14.650  21.058  0.00  0.00    +0.000 C 
ATOM     30  O   UNL     1       8.079  13.771  21.551  0.00  0.00    +0.000 OA
BRANCH  29  31
ATOM     31  C   UNL     1       9.684  15.571  21.875  0.00  0.00    +0.000 C 
ATOM     32 CL   UNL     1       9.332  15.436  23.604  0.00  0.00    +0.000 Cl
ENDBRANCH  29  31
ENDBRANCH  25  29
TORSDOF 3
ENDMDL
MODEL 8
REMARK VINA RESULT:      -5.7      3.926      7.634
REMARK  Name = 
REMARK  7 active torsions:
REMARK  status: ('A' for Active; 'I' for Inactive)
REMARK    1  A    between atoms: C_1  and  C_2
REMARK    2  A    between atoms: C_2  and  C_3
REMARK    3  A    between atoms: C_17  and  C_18
REMARK    4  A    between atoms: C_21  and  O_22
REMARK    5  A    between atoms: C_24  and  C_25
REMARK    6  A    between atoms: C_26  and  C_27
REMARK    7  A    between atoms: C_27  and  C_29
REMARK                            x       y       z     vdW  Elec       q    Type
REMARK                         _______ _______ _______ _____ _____    ______ ____
ROOT
ATOM      1  C   UNL     1      -3.139  12.613  22.995  0.00  0.00    +0.000 C 
ATOM      2  C   UNL     1      -3.389  12.795  21.476  0.00  0.00    +0.000 C 
ATOM      3  C   UNL     1      -4.791  12.295  21.165  0.00  0.00    +0.000 C 
ATOM      4  O   UNL     1      -3.268  14.173  21.176  0.00  0.00    +0.000 OA
ATOM      5  C   UNL     1      -1.858  14.334  21.110  0.00  0.00    +0.000 C 
ATOM      6  C   UNL     1      -1.451  15.337  20.040  0.00  0.00    +0.000 C 
ATOM      7  C   UNL     1      -0.068  14.787  19.809  0.00  0.00    +0.000 C 
ATOM      8  C   UNL     1       0.997  15.651  19.129  0.00  0.00    +0.000 C 
ATOM      9  C   UNL     1       1.166  16.953  19.956  0.00  0.00    +0.000 C 
ATOM     10  C   UNL     1       2.320  17.815  19.487  0.00  0.00    +0.000 C 
ATOM     11  C   UNL     1       3.575  16.990  19.523  0.00  0.00    +0.000 C 
ATOM     12  C   UNL     1       4.550  17.332  20.383  0.00  0.00    +0.000 C 
ATOM     13  C   UNL     1       5.677  16.418  20.668  0.00  0.00    +0.000 C 
ATOM     14  O   UNL     1       6.646  16.816  21.309  0.00  0.00    +0.000 OA
ATOM     15  C   UNL     1       5.510  14.991  20.231  0.00  0.00    +0.000 C 
ATOM     16  C   UNL     1       4.949  14.984  18.817  0.00  0.00    +0.000 C 
ATOM     17  C   UNL     1       3.568  15.704  18.651  0.00  0.00    +0.000 C 
ATOM     18  C   UNL     1       3.438  16.075  17.168  0.00  0.00    +0.000 C 
ATOM     19  C   UNL     1       2.335  14.835  19.107  0.00  0.00    +0.000 C 
ATOM     20  F   UNL     1       2.615  14.478  20.414  0.00  0.00    +0.000 F 
ATOM     21  C   UNL     1       2.011  13.500  18.358  0.00  0.00    +0.000 C 
ATOM     22  C   UNL     1       1.052  12.637  19.235  0.00  0.00    +0.000 C 
ATOM     23  C   UNL     1      -0.340  13.296  19.425  0.00  0.00    +0.000 C 
ATOM     24  C   UNL     1      -1.133  12.963  18.146  0.00  0.00    +0.000 C 
ATOM     25  C   UNL     1      -1.237  12.951  20.698  0.00  0.00    +0.000 C 
ATOM     26  O   UNL     1      -2.418  12.128  20.623  0.00  0.00    +0.000 OA
ENDROOT
BRANCH  21  27
ATOM     27  O   UNL     1       3.138  12.702  18.040  0.00  0.00    +0.000 OA
ATOM     28  H   UNL     1       3.394  12.209  18.839  0.00  0.00    +0.000 HD
ENDBRANCH  21  27
BRANCH  25  29
ATOM     29  C   UNL     1      -0.366  12.208  21.726  0.00  0.00    +0.000 C 
ATOM     30  O   UNL     1       0.254  12.806  22.596  0.00  0.00    +0.000 OA
BRANCH  29  31
ATOM     31  C   UNL     1      -0.360  10.684  21.573  0.00  0.00    +0.000 C 
ATOM     32 CL   UNL     1      -0.467   9.890  23.151  0.00  0.00    +0.000 Cl
ENDBRANCH  29  31
ENDBRANCH  25  29
TORSDOF 3
ENDMDL
MODEL 9
REMARK VINA RESULT:      -5.7      4.543      6.400
REMARK  Name = 
REMARK  7 active torsions:
REMARK  status: ('A' for Active; 'I' for Inactive)
REMARK    1  A    between atoms: C_1  and  C_2
REMARK    2  A    between atoms: C_2  and  C_3
REMARK    3  A    between atoms: C_17  and  C_18
REMARK    4  A    between atoms: C_21  and  O_22
REMARK    5  A    between atoms: C_24  and  C_25
REMARK    6  A    between atoms: C_26  and  C_27
REMARK    7  A    between atoms: C_27  and  C_29
REMARK                            x       y       z     vdW  Elec       q    Type
REMARK                         _______ _______ _______ _____ _____    ______ ____
ROOT
ATOM      1  C   UNL     1       7.013  15.551  20.467  0.00  0.00    +0.000 C 
ATOM      2  C   UNL     1       5.993  16.264  19.543  0.00  0.00    +0.000 C 
ATOM      3  C   UNL     1       6.670  17.487  18.946  0.00  0.00    +0.000 C 
ATOM      4  O   UNL     1       5.613  15.353  18.528  0.00  0.00    +0.000 OA
ATOM      5  C   UNL     1       4.657  14.547  19.203  0.00  0.00    +0.000 C 
ATOM      6  C   UNL     1       3.522  14.122  18.281  0.00  0.00    +0.000 C 
ATOM      7  C   UNL     1       2.494  13.918  19.363  0.00  0.00    +0.000 C 
ATOM      8  C   UNL     1       1.249  13.073  19.086  0.00  0.00    +0.000 C 
ATOM      9  C   UNL     1       1.711  11.661  18.637  0.00  0.00    +0.000 C 
ATOM     10  C   UNL     1       0.571  10.672  18.503  0.00  0.00    +0.000 C 
ATOM     11  C   UNL     1      -0.156  10.604  19.817  0.00  0.00    +0.000 C 
ATOM     12  C   UNL     1      -0.131   9.455  20.512  0.00  0.00    +0.000 C 
ATOM     13  C   UNL     1      -0.580   9.400  21.920  0.00  0.00    +0.000 C 
ATOM     14  O   UNL     1      -0.723   8.316  22.479  0.00  0.00    +0.000 OA
ATOM     15  C   UNL     1      -0.737  10.716  22.625  0.00  0.00    +0.000 C 
ATOM     16  C   UNL     1      -1.469  11.674  21.698  0.00  0.00    +0.000 C 
ATOM     17  C   UNL     1      -0.757  11.943  20.330  0.00  0.00    +0.000 C 
ATOM     18  C   UNL     1      -1.836  12.441  19.359  0.00  0.00    +0.000 C 
ATOM     19  C   UNL     1       0.423  12.984  20.417  0.00  0.00    +0.000 C 
ATOM     20  F   UNL     1       1.270  12.481  21.387  0.00  0.00    +0.000 F 
ATOM     21  C   UNL     1       0.122  14.461  20.833  0.00  0.00    +0.000 C 
ATOM     22  C   UNL     1       1.451  15.159  21.255  0.00  0.00    +0.000 C 
ATOM     23  C   UNL     1       2.448  15.309  20.075  0.00  0.00    +0.000 C 
ATOM     24  C   UNL     1       1.985  16.557  19.298  0.00  0.00    +0.000 C 
ATOM     25  C   UNL     1       4.017  15.417  20.343  0.00  0.00    +0.000 C 
ATOM     26  O   UNL     1       4.753  16.647  20.200  0.00  0.00    +0.000 OA
ENDROOT
BRANCH  21  27
ATOM     27  O   UNL     1      -0.798  14.607  21.901  0.00  0.00    +0.000 OA
ATOM     28  H   UNL     1      -0.893  15.557  22.090  0.00  0.00    +0.000 HD
ENDBRANCH  21  27
BRANCH  25  29
ATOM     29  C   UNL     1       4.294  15.020  21.804  0.00  0.00    +0.000 C 
ATOM     30  O   UNL     1       4.489  13.856  22.129  0.00  0.00    +0.000 OA
BRANCH  29  31
ATOM     31  C   UNL     1       4.319  16.193  22.789  0.00  0.00    +0.000 C 
ATOM     32 CL   UNL     1       5.808  16.184  23.744  0.00  0.00    +0.000 Cl
ENDBRANCH  29  31
ENDBRANCH  25  29
TORSDOF 3
ENDMDL
