MODEL 1
REMARK VINA RESULT:      -7.9      0.000      0.000
REMARK  Name = 
REMARK  7 active torsions:
REMARK  status: ('A' for Active; 'I' for Inactive)
REMARK    1  A    between atoms: C_1  and  O_2
REMARK    2  A    between atoms: O_2  and  C_3
REMARK    3  A    between atoms: C_7  and  C_8
REMARK    4  A    between atoms: C_8  and  C_9
REMARK    5  A    between atoms: C_9  and  O_10
REMARK    6  A    between atoms: C_9  and  C_11
REMARK    7  A    between atoms: C_20  and  C_21
REMARK                            x       y       z     vdW  Elec       q    Type
REMARK                         _______ _______ _______ _____ _____    ______ ____
ROOT
ATOM      1  C   UNL     1       5.721   5.102  17.653  0.00  0.00    +0.000 C 
ENDROOT
BRANCH   1   2
ATOM      2  C   UNL     1       6.213   4.782  16.270  0.00  0.00    +0.000 A 
ATOM      3  N   UNL     1       7.147   5.447  15.614  0.00  0.00    +0.000 NA
ATOM      4  C   UNL     1       7.121   4.954  14.332  0.00  0.00    +0.000 A 
ATOM      5  C   UNL     1       7.867   5.340  13.207  0.00  0.00    +0.000 A 
ATOM      6  C   UNL     1       7.611   4.712  11.982  0.00  0.00    +0.000 A 
ATOM      7  C   UNL     1       6.638   3.714  11.881  0.00  0.00    +0.000 A 
ATOM      8  C   UNL     1       5.894   3.305  12.995  0.00  0.00    +0.000 A 
ATOM      9  C   UNL     1       6.163   3.953  14.204  0.00  0.00    +0.000 A 
ATOM     10  N   UNL     1       5.620   3.842  15.460  0.00  0.00    +0.000 N 
ATOM     11  H   UNL     1       4.855   3.236  15.719  0.00  0.00    +0.000 HD
ENDBRANCH   1   2
BRANCH   1  12
ATOM     12  O   UNL     1       5.830   3.866  18.368  0.00  0.00    +0.000 OA
ATOM     13  H   UNL     1       6.714   3.885  18.786  0.00  0.00    +0.000 HD
ENDBRANCH   1  12
BRANCH   1  14
ATOM     14  C   UNL     1       4.270   5.586  17.640  0.00  0.00    +0.000 C 
BRANCH  14  19
ATOM     15  C   UNL     1       1.746   3.436  19.555  0.00  0.00    +0.000 A 
ATOM     16  C   UNL     1       1.715   2.339  18.703  0.00  0.00    +0.000 A 
ATOM     17  C   UNL     1       2.478   2.390  17.557  0.00  0.00    +0.000 A 
ATOM     18  N   UNL     1       3.269   3.432  17.226  0.00  0.00    +0.000 NA
ATOM     19  C   UNL     1       3.287   4.511  18.053  0.00  0.00    +0.000 A 
ATOM     20  C   UNL     1       2.495   4.579  19.213  0.00  0.00    +0.000 A 
ATOM     21  C   UNL     1       2.408   5.793  20.095  0.00  0.00    +0.000 C 
BRANCH  15  23
ATOM     22  C   UNL     1       1.520   2.603  21.755  0.00  0.00    +0.000 C 
ATOM     23  O   UNL     1       1.041   3.480  20.736  0.00  0.00    +0.000 OA
ENDBRANCH  15  23
ENDBRANCH  14  19
ENDBRANCH   1  14
TORSDOF 5
ENDMDL
MODEL 2
REMARK VINA RESULT:      -7.2      1.398      2.045
REMARK  Name = 
REMARK  7 active torsions:
REMARK  status: ('A' for Active; 'I' for Inactive)
REMARK    1  A    between atoms: C_1  and  O_2
REMARK    2  A    between atoms: O_2  and  C_3
REMARK    3  A    between atoms: C_7  and  C_8
REMARK    4  A    between atoms: C_8  and  C_9
REMARK    5  A    between atoms: C_9  and  O_10
REMARK    6  A    between atoms: C_9  and  C_11
REMARK    7  A    between atoms: C_20  and  C_21
REMARK                            x       y       z     vdW  Elec       q    Type
REMARK                         _______ _______ _______ _____ _____    ______ ____
ROOT
ATOM      1  C   UNL     1       6.970   5.382  17.808  0.00  0.00    +0.000 C 
ENDROOT
BRANCH   1   2
ATOM      2  C   UNL     1       6.739   5.124  16.346  0.00  0.00    +0.000 A 
ATOM      3  N   UNL     1       5.828   4.308  15.845  0.00  0.00    +0.000 NA
ATOM      4  C   UNL     1       6.113   4.214  14.504  0.00  0.00    +0.000 A 
ATOM      5  C   UNL     1       5.495   3.442  13.508  0.00  0.00    +0.000 A 
ATOM      6  C   UNL     1       6.016   3.478  12.209  0.00  0.00    +0.000 A 
ATOM      7  C   UNL     1       7.123   4.274  11.906  0.00  0.00    +0.000 A 
ATOM      8  C   UNL     1       7.744   5.063  12.883  0.00  0.00    +0.000 A 
ATOM      9  C   UNL     1       7.210   5.002  14.173  0.00  0.00    +0.000 A 
ATOM     10  N   UNL     1       7.572   5.594  15.358  0.00  0.00    +0.000 N 
ATOM     11  H   UNL     1       8.367   6.201  15.495  0.00  0.00    +0.000 HD
ENDBRANCH   1   2
BRANCH   1  12
ATOM     12  O   UNL     1       7.416   4.126  18.329  0.00  0.00    +0.000 OA
ATOM     13  H   UNL     1       8.312   4.296  18.684  0.00  0.00    +0.000 HD
ENDBRANCH   1  12
BRANCH   1  14
ATOM     14  C   UNL     1       5.688   5.830  18.513  0.00  0.00    +0.000 C 
BRANCH  14  19
ATOM     15  C   UNL     1       2.613   3.617  19.067  0.00  0.00    +0.000 A 
ATOM     16  C   UNL     1       3.237   2.538  19.683  0.00  0.00    +0.000 A 
ATOM     17  C   UNL     1       4.605   2.588  19.838  0.00  0.00    +0.000 A 
ATOM     18  N   UNL     1       5.370   3.629  19.448  0.00  0.00    +0.000 NA
ATOM     19  C   UNL     1       4.759   4.677  18.832  0.00  0.00    +0.000 A 
ATOM     20  C   UNL     1       3.378   4.691  18.573  0.00  0.00    +0.000 A 
ATOM     21  C   UNL     1       2.683   5.781  17.803  0.00  0.00    +0.000 C 
BRANCH  15  23
ATOM     22  C   UNL     1       0.597   2.416  18.788  0.00  0.00    +0.000 C 
ATOM     23  O   UNL     1       1.251   3.680  18.884  0.00  0.00    +0.000 OA
ENDBRANCH  15  23
ENDBRANCH  14  19
ENDBRANCH   1  14
TORSDOF 5
ENDMDL
MODEL 3
REMARK VINA RESULT:      -7.1      1.444      2.057
REMARK  Name = 
REMARK  7 active torsions:
REMARK  status: ('A' for Active; 'I' for Inactive)
REMARK    1  A    between atoms: C_1  and  O_2
REMARK    2  A    between atoms: O_2  and  C_3
REMARK    3  A    between atoms: C_7  and  C_8
REMARK    4  A    between atoms: C_8  and  C_9
REMARK    5  A    between atoms: C_9  and  O_10
REMARK    6  A    between atoms: C_9  and  C_11
REMARK    7  A    between atoms: C_20  and  C_21
REMARK                            x       y       z     vdW  Elec       q    Type
REMARK                         _______ _______ _______ _____ _____    ______ ____
ROOT
ATOM      1  C   UNL     1       6.216   5.882  17.725  0.00  0.00    +0.000 C 
ENDROOT
BRANCH   1   2
ATOM      2  C   UNL     1       6.456   5.284  16.369  0.00  0.00    +0.000 A 
ATOM      3  N   UNL     1       7.411   5.642  15.529  0.00  0.00    +0.000 NA
ATOM      4  C   UNL     1       7.128   4.999  14.349  0.00  0.00    +0.000 A 
ATOM      5  C   UNL     1       7.786   5.065  13.111  0.00  0.00    +0.000 A 
ATOM      6  C   UNL     1       7.259   4.349  12.029  0.00  0.00    +0.000 A 
ATOM      7  C   UNL     1       6.105   3.577  12.180  0.00  0.00    +0.000 A 
ATOM      8  C   UNL     1       5.442   3.487  13.410  0.00  0.00    +0.000 A 
ATOM      9  C   UNL     1       5.984   4.217  14.472  0.00  0.00    +0.000 A 
ATOM     10  N   UNL     1       5.592   4.393  15.776  0.00  0.00    +0.000 N 
ATOM     11  H   UNL     1       4.762   4.003  16.199  0.00  0.00    +0.000 HD
ENDBRANCH   1   2
BRANCH   1  12
ATOM     12  O   UNL     1       7.431   6.572  18.035  0.00  0.00    +0.000 OA
ATOM     13  H   UNL     1       7.977   6.513  17.225  0.00  0.00    +0.000 HD
ENDBRANCH   1  12
BRANCH   1  14
ATOM     14  C   UNL     1       5.929   4.806  18.775  0.00  0.00    +0.000 C 
BRANCH  14  19
ATOM     15  C   UNL     1       2.385   3.767  19.787  0.00  0.00    +0.000 A 
ATOM     16  C   UNL     1       1.807   5.029  19.856  0.00  0.00    +0.000 A 
ATOM     17  C   UNL     1       2.611   6.121  19.611  0.00  0.00    +0.000 A 
ATOM     18  N   UNL     1       3.918   6.035  19.286  0.00  0.00    +0.000 NA
ATOM     19  C   UNL     1       4.486   4.801  19.233  0.00  0.00    +0.000 A 
ATOM     20  C   UNL     1       3.763   3.631  19.528  0.00  0.00    +0.000 A 
ATOM     21  C   UNL     1       4.379   2.260  19.583  0.00  0.00    +0.000 C 
BRANCH  15  23
ATOM     22  C   UNL     1       0.745   2.284  18.953  0.00  0.00    +0.000 C 
ATOM     23  O   UNL     1       1.669   2.610  19.990  0.00  0.00    +0.000 OA
ENDBRANCH  15  23
ENDBRANCH  14  19
ENDBRANCH   1  14
TORSDOF 5
ENDMDL
MODEL 4
REMARK VINA RESULT:      -7.1      1.426      2.396
REMARK  Name = 
REMARK  7 active torsions:
REMARK  status: ('A' for Active; 'I' for Inactive)
REMARK    1  A    between atoms: C_1  and  O_2
REMARK    2  A    between atoms: O_2  and  C_3
REMARK    3  A    between atoms: C_7  and  C_8
REMARK    4  A    between atoms: C_8  and  C_9
REMARK    5  A    between atoms: C_9  and  O_10
REMARK    6  A    between atoms: C_9  and  C_11
REMARK    7  A    between atoms: C_20  and  C_21
REMARK                            x       y       z     vdW  Elec       q    Type
REMARK                         _______ _______ _______ _____ _____    ______ ____
ROOT
ATOM      1  C   UNL     1       6.317   5.753  17.771  0.00  0.00    +0.000 C 
ENDROOT
BRANCH   1   2
ATOM      2  C   UNL     1       6.286   5.396  16.312  0.00  0.00    +0.000 A 
ATOM      3  N   UNL     1       5.405   4.599  15.735  0.00  0.00    +0.000 NA
ATOM      4  C   UNL     1       5.876   4.385  14.463  0.00  0.00    +0.000 A 
ATOM      5  C   UNL     1       5.360   3.575  13.439  0.00  0.00    +0.000 A 
ATOM      6  C   UNL     1       6.067   3.479  12.234  0.00  0.00    +0.000 A 
ATOM      7  C   UNL     1       7.260   4.183  12.050  0.00  0.00    +0.000 A 
ATOM      8  C   UNL     1       7.784   5.007  13.054  0.00  0.00    +0.000 A 
ATOM      9  C   UNL     1       7.063   5.078  14.249  0.00  0.00    +0.000 A 
ATOM     10  N   UNL     1       7.287   5.738  15.432  0.00  0.00    +0.000 N 
ATOM     11  H   UNL     1       8.094   6.306  15.647  0.00  0.00    +0.000 HD
ENDBRANCH   1   2
BRANCH   1  12
ATOM     12  O   UNL     1       7.671   6.148  18.016  0.00  0.00    +0.000 OA
ATOM     13  H   UNL     1       7.635   7.112  18.178  0.00  0.00    +0.000 HD
ENDBRANCH   1  12
BRANCH   1  14
ATOM     14  C   UNL     1       5.940   4.562  18.654  0.00  0.00    +0.000 C 
BRANCH  14  19
ATOM     15  C   UNL     1       2.379   3.725  19.783  0.00  0.00    +0.000 A 
ATOM     16  C   UNL     1       1.883   5.019  19.895  0.00  0.00    +0.000 A 
ATOM     17  C   UNL     1       2.744   6.063  19.637  0.00  0.00    +0.000 A 
ATOM     18  N   UNL     1       4.030   5.903  19.261  0.00  0.00    +0.000 NA
ATOM     19  C   UNL     1       4.517   4.637  19.166  0.00  0.00    +0.000 A 
ATOM     20  C   UNL     1       3.735   3.509  19.470  0.00  0.00    +0.000 A 
ATOM     21  C   UNL     1       4.265   2.102  19.478  0.00  0.00    +0.000 C 
BRANCH  15  23
ATOM     22  C   UNL     1       0.674   2.316  18.950  0.00  0.00    +0.000 C 
ATOM     23  O   UNL     1       1.599   2.611  19.995  0.00  0.00    +0.000 OA
ENDBRANCH  15  23
ENDBRANCH  14  19
ENDBRANCH   1  14
TORSDOF 5
ENDMDL
MODEL 5
REMARK VINA RESULT:      -6.9      0.294      1.301
REMARK  Name = 
REMARK  7 active torsions:
REMARK  status: ('A' for Active; 'I' for Inactive)
REMARK    1  A    between atoms: C_1  and  O_2
REMARK    2  A    between atoms: O_2  and  C_3
REMARK    3  A    between atoms: C_7  and  C_8
REMARK    4  A    between atoms: C_8  and  C_9
REMARK    5  A    between atoms: C_9  and  O_10
REMARK    6  A    between atoms: C_9  and  C_11
REMARK    7  A    between atoms: C_20  and  C_21
REMARK                            x       y       z     vdW  Elec       q    Type
REMARK                         _______ _______ _______ _____ _____    ______ ____
ROOT
ATOM      1  C   UNL     1       5.457   5.165  17.490  0.00  0.00    +0.000 C 
ENDROOT
BRANCH   1   2
ATOM      2  C   UNL     1       5.762   4.984  16.030  0.00  0.00    +0.000 A 
ATOM      3  N   UNL     1       5.180   4.113  15.226  0.00  0.00    +0.000 NA
ATOM      4  C   UNL     1       5.905   4.142  14.060  0.00  0.00    +0.000 A 
ATOM      5  C   UNL     1       5.757   3.379  12.891  0.00  0.00    +0.000 A 
ATOM      6  C   UNL     1       6.673   3.560  11.848  0.00  0.00    +0.000 A 
ATOM      7  C   UNL     1       7.711   4.489  11.963  0.00  0.00    +0.000 A 
ATOM      8  C   UNL     1       7.867   5.270  13.115  0.00  0.00    +0.000 A 
ATOM      9  C   UNL     1       6.944   5.064  14.144  0.00  0.00    +0.000 A 
ATOM     10  N   UNL     1       6.812   5.608  15.398  0.00  0.00    +0.000 N 
ATOM     11  H   UNL     1       7.435   6.285  15.815  0.00  0.00    +0.000 HD
ENDBRANCH   1   2
BRANCH   1  12
ATOM     12  O   UNL     1       5.650   3.867  18.061  0.00  0.00    +0.000 OA
ATOM     13  H   UNL     1       4.969   3.786  18.758  0.00  0.00    +0.000 HD
ENDBRANCH   1  12
BRANCH   1  14
ATOM     14  C   UNL     1       4.019   5.640  17.713  0.00  0.00    +0.000 C 
BRANCH  14  19
ATOM     15  C   UNL     1       1.668   3.382  19.722  0.00  0.00    +0.000 A 
ATOM     16  C   UNL     1       1.632   2.293  18.858  0.00  0.00    +0.000 A 
ATOM     17  C   UNL     1       2.336   2.384  17.677  0.00  0.00    +0.000 A 
ATOM     18  N   UNL     1       3.074   3.456  17.321  0.00  0.00    +0.000 NA
ATOM     19  C   UNL     1       3.095   4.526  18.160  0.00  0.00    +0.000 A 
ATOM     20  C   UNL     1       2.360   4.553  19.358  0.00  0.00    +0.000 A 
ATOM     21  C   UNL     1       2.275   5.754  20.259  0.00  0.00    +0.000 C 
BRANCH  15  23
ATOM     22  C   UNL     1       1.568   2.504  21.913  0.00  0.00    +0.000 C 
ATOM     23  O   UNL     1       1.021   3.388  20.936  0.00  0.00    +0.000 OA
ENDBRANCH  15  23
ENDBRANCH  14  19
ENDBRANCH   1  14
TORSDOF 5
ENDMDL
MODEL 6
REMARK VINA RESULT:      -6.9      1.254      1.815
REMARK  Name = 
REMARK  7 active torsions:
REMARK  status: ('A' for Active; 'I' for Inactive)
REMARK    1  A    between atoms: C_1  and  O_2
REMARK    2  A    between atoms: O_2  and  C_3
REMARK    3  A    between atoms: C_7  and  C_8
REMARK    4  A    between atoms: C_8  and  C_9
REMARK    5  A    between atoms: C_9  and  O_10
REMARK    6  A    between atoms: C_9  and  C_11
REMARK    7  A    between atoms: C_20  and  C_21
REMARK                            x       y       z     vdW  Elec       q    Type
REMARK                         _______ _______ _______ _____ _____    ______ ____
ROOT
ATOM      1  C   UNL     1       5.683   4.742  17.444  0.00  0.00    +0.000 C 
ENDROOT
BRANCH   1   2
ATOM      2  C   UNL     1       6.252   4.591  16.062  0.00  0.00    +0.000 A 
ATOM      3  N   UNL     1       7.141   5.394  15.505  0.00  0.00    +0.000 NA
ATOM      4  C   UNL     1       7.208   5.016  14.187  0.00  0.00    +0.000 A 
ATOM      5  C   UNL     1       7.953   5.565  13.132  0.00  0.00    +0.000 A 
ATOM      6  C   UNL     1       7.802   5.028  11.848  0.00  0.00    +0.000 A 
ATOM      7  C   UNL     1       6.932   3.958  11.621  0.00  0.00    +0.000 A 
ATOM      8  C   UNL     1       6.190   3.386  12.663  0.00  0.00    +0.000 A 
ATOM      9  C   UNL     1       6.354   3.947  13.933  0.00  0.00    +0.000 A 
ATOM     10  N   UNL     1       5.779   3.677  15.150  0.00  0.00    +0.000 N 
ATOM     11  H   UNL     1       5.066   2.983  15.324  0.00  0.00    +0.000 HD
ENDBRANCH   1   2
BRANCH   1  12
ATOM     12  O   UNL     1       6.621   4.073  18.294  0.00  0.00    +0.000 OA
ATOM     13  H   UNL     1       7.419   4.640  18.297  0.00  0.00    +0.000 HD
ENDBRANCH   1  12
BRANCH   1  14
ATOM     14  C   UNL     1       4.301   4.096  17.561  0.00  0.00    +0.000 C 
BRANCH  14  19
ATOM     15  C   UNL     1       2.534   4.218  20.956  0.00  0.00    +0.000 A 
ATOM     16  C   UNL     1       1.963   5.481  20.851  0.00  0.00    +0.000 A 
ATOM     17  C   UNL     1       2.221   6.213  19.713  0.00  0.00    +0.000 A 
ATOM     18  N   UNL     1       2.977   5.768  18.687  0.00  0.00    +0.000 NA
ATOM     19  C   UNL     1       3.548   4.538  18.798  0.00  0.00    +0.000 A 
ATOM     20  C   UNL     1       3.394   3.743  19.946  0.00  0.00    +0.000 A 
ATOM     21  C   UNL     1       4.091   2.426  20.150  0.00  0.00    +0.000 C 
BRANCH  15  23
ATOM     22  C   UNL     1       1.214   2.506  21.909  0.00  0.00    +0.000 C 
ATOM     23  O   UNL     1       2.322   3.395  22.038  0.00  0.00    +0.000 OA
ENDBRANCH  15  23
ENDBRANCH  14  19
ENDBRANCH   1  14
TORSDOF 5
ENDMDL
MODEL 7
REMARK VINA RESULT:      -6.9      2.314      6.702
REMARK  Name = 
REMARK  7 active torsions:
REMARK  status: ('A' for Active; 'I' for Inactive)
REMARK    1  A    between atoms: C_1  and  O_2
REMARK    2  A    between atoms: O_2  and  C_3
REMARK    3  A    between atoms: C_7  and  C_8
REMARK    4  A    between atoms: C_8  and  C_9
REMARK    5  A    between atoms: C_9  and  O_10
REMARK    6  A    between atoms: C_9  and  C_11
REMARK    7  A    between atoms: C_20  and  C_21
REMARK                            x       y       z     vdW  Elec       q    Type
REMARK                         _______ _______ _______ _____ _____    ______ ____
ROOT
ATOM      1  C   UNL     1       6.329   6.087  16.988  0.00  0.00    +0.000 C 
ENDROOT
BRANCH   1   2
ATOM      2  C   UNL     1       5.145   5.499  17.701  0.00  0.00    +0.000 A 
ATOM      3  N   UNL     1       5.200   4.690  18.744  0.00  0.00    +0.000 NA
ATOM      4  C   UNL     1       3.918   4.234  18.928  0.00  0.00    +0.000 A 
ATOM      5  C   UNL     1       3.418   3.311  19.859  0.00  0.00    +0.000 A 
ATOM      6  C   UNL     1       2.063   2.964  19.805  0.00  0.00    +0.000 A 
ATOM      7  C   UNL     1       1.220   3.533  18.847  0.00  0.00    +0.000 A 
ATOM      8  C   UNL     1       1.696   4.468  17.917  0.00  0.00    +0.000 A 
ATOM      9  C   UNL     1       3.054   4.789  17.989  0.00  0.00    +0.000 A 
ATOM     10  N   UNL     1       3.855   5.614  17.239  0.00  0.00    +0.000 N 
ATOM     11  H   UNL     1       3.562   6.145  16.431  0.00  0.00    +0.000 HD
ENDBRANCH   1   2
BRANCH   1  12
ATOM     12  O   UNL     1       5.762   6.851  15.918  0.00  0.00    +0.000 OA
ATOM     13  H   UNL     1       6.245   7.701  15.922  0.00  0.00    +0.000 HD
ENDBRANCH   1  12
BRANCH   1  14
ATOM     14  C   UNL     1       7.255   5.000  16.437  0.00  0.00    +0.000 C 
BRANCH  14  19
ATOM     15  C   UNL     1       6.345   3.759  12.931  0.00  0.00    +0.000 A 
ATOM     16  C   UNL     1       7.229   4.541  12.195  0.00  0.00    +0.000 A 
ATOM     17  C   UNL     1       8.022   5.435  12.879  0.00  0.00    +0.000 A 
ATOM     18  N   UNL     1       8.007   5.582  14.221  0.00  0.00    +0.000 NA
ATOM     19  C   UNL     1       7.132   4.827  14.938  0.00  0.00    +0.000 A 
ATOM     20  C   UNL     1       6.238   3.932  14.325  0.00  0.00    +0.000 A 
ATOM     21  C   UNL     1       5.186   3.158  15.072  0.00  0.00    +0.000 C 
BRANCH  15  23
ATOM     22  C   UNL     1       4.467   3.352  11.557  0.00  0.00    +0.000 C 
ATOM     23  O   UNL     1       5.525   2.819  12.351  0.00  0.00    +0.000 OA
ENDBRANCH  15  23
ENDBRANCH  14  19
ENDBRANCH   1  14
TORSDOF 5
ENDMDL
MODEL 8
REMARK VINA RESULT:      -6.9      3.062      6.874
REMARK  Name = 
REMARK  7 active torsions:
REMARK  status: ('A' for Active; 'I' for Inactive)
REMARK    1  A    between atoms: C_1  and  O_2
REMARK    2  A    between atoms: O_2  and  C_3
REMARK    3  A    between atoms: C_7  and  C_8
REMARK    4  A    between atoms: C_8  and  C_9
REMARK    5  A    between atoms: C_9  and  O_10
REMARK    6  A    between atoms: C_9  and  C_11
REMARK    7  A    between atoms: C_20  and  C_21
REMARK                            x       y       z     vdW  Elec       q    Type
REMARK                         _______ _______ _______ _____ _____    ______ ____
ROOT
ATOM      1  C   UNL     1       3.428   4.035  18.308  0.00  0.00    +0.000 C 
ENDROOT
BRANCH   1   2
ATOM      2  C   UNL     1       3.010   5.432  18.665  0.00  0.00    +0.000 A 
ATOM      3  N   UNL     1       2.685   5.852  19.875  0.00  0.00    +0.000 NA
ATOM      4  C   UNL     1       2.168   7.113  19.703  0.00  0.00    +0.000 A 
ATOM      5  C   UNL     1       1.621   7.995  20.648  0.00  0.00    +0.000 A 
ATOM      6  C   UNL     1       1.100   9.218  20.207  0.00  0.00    +0.000 A 
ATOM      7  C   UNL     1       1.132   9.559  18.852  0.00  0.00    +0.000 A 
ATOM      8  C   UNL     1       1.687   8.699  17.895  0.00  0.00    +0.000 A 
ATOM      9  C   UNL     1       2.192   7.481  18.362  0.00  0.00    +0.000 A 
ATOM     10  N   UNL     1       2.760   6.406  17.726  0.00  0.00    +0.000 N 
ATOM     11  H   UNL     1       2.890   6.312  16.728  0.00  0.00    +0.000 HD
ENDBRANCH   1   2
BRANCH   1  12
ATOM     12  O   UNL     1       3.714   3.413  19.565  0.00  0.00    +0.000 OA
ATOM     13  H   UNL     1       3.520   4.092  20.241  0.00  0.00    +0.000 HD
ENDBRANCH   1  12
BRANCH   1  14
ATOM     14  C   UNL     1       4.669   4.026  17.413  0.00  0.00    +0.000 C 
BRANCH  14  19
ATOM     15  C   UNL     1       7.322   6.770  17.713  0.00  0.00    +0.000 A 
ATOM     16  C   UNL     1       7.899   6.376  18.915  0.00  0.00    +0.000 A 
ATOM     17  C   UNL     1       7.365   5.280  19.557  0.00  0.00    +0.000 A 
ATOM     18  N   UNL     1       6.331   4.556  19.077  0.00  0.00    +0.000 NA
ATOM     19  C   UNL     1       5.759   4.953  17.909  0.00  0.00    +0.000 A 
ATOM     20  C   UNL     1       6.193   6.094  17.212  0.00  0.00    +0.000 A 
ATOM     21  C   UNL     1       5.520   6.624  15.976  0.00  0.00    +0.000 C 
BRANCH  15  23
ATOM     22  C   UNL     1       8.064   9.014  17.735  0.00  0.00    +0.000 C 
ATOM     23  O   UNL     1       7.791   7.835  16.979  0.00  0.00    +0.000 OA
ENDBRANCH  15  23
ENDBRANCH  14  19
ENDBRANCH   1  14
TORSDOF 5
ENDMDL
MODEL 9
REMARK VINA RESULT:      -6.9      1.720      2.720
REMARK  Name = 
REMARK  7 active torsions:
REMARK  status: ('A' for Active; 'I' for Inactive)
REMARK    1  A    between atoms: C_1  and  O_2
REMARK    2  A    between atoms: O_2  and  C_3
REMARK    3  A    between atoms: C_7  and  C_8
REMARK    4  A    between atoms: C_8  and  C_9
REMARK    5  A    between atoms: C_9  and  O_10
REMARK    6  A    between atoms: C_9  and  C_11
REMARK    7  A    between atoms: C_20  and  C_21
REMARK                            x       y       z     vdW  Elec       q    Type
REMARK                         _______ _______ _______ _____ _____    ______ ____
ROOT
ATOM      1  C   UNL     1       5.727   4.966  17.704  0.00  0.00    +0.000 C 
ENDROOT
BRANCH   1   2
ATOM      2  C   UNL     1       6.213   4.705  16.308  0.00  0.00    +0.000 A 
ATOM      3  N   UNL     1       7.147   5.396  15.677  0.00  0.00    +0.000 NA
ATOM      4  C   UNL     1       7.116   4.958  14.376  0.00  0.00    +0.000 A 
ATOM      5  C   UNL     1       7.859   5.390  13.266  0.00  0.00    +0.000 A 
ATOM      6  C   UNL     1       7.598   4.816  12.016  0.00  0.00    +0.000 A 
ATOM      7  C   UNL     1       6.623   3.826  11.875  0.00  0.00    +0.000 A 
ATOM      8  C   UNL     1       5.881   3.371  12.973  0.00  0.00    +0.000 A 
ATOM      9  C   UNL     1       6.155   3.966  14.208  0.00  0.00    +0.000 A 
ATOM     10  N   UNL     1       5.616   3.802  15.459  0.00  0.00    +0.000 N 
ATOM     11  H   UNL     1       4.850   3.187  15.695  0.00  0.00    +0.000 HD
ENDBRANCH   1   2
BRANCH   1  12
ATOM     12  O   UNL     1       6.415   4.005  18.511  0.00  0.00    +0.000 OA
ATOM     13  H   UNL     1       5.731   3.368  18.797  0.00  0.00    +0.000 HD
ENDBRANCH   1  12
BRANCH   1  14
ATOM     14  C   UNL     1       4.213   4.777  17.821  0.00  0.00    +0.000 C 
BRANCH  14  19
ATOM     15  C   UNL     1       2.036   7.254  19.766  0.00  0.00    +0.000 A 
ATOM     16  C   UNL     1       2.118   8.335  18.896  0.00  0.00    +0.000 A 
ATOM     17  C   UNL     1       2.900   8.199  17.769  0.00  0.00    +0.000 A 
ATOM     18  N   UNL     1       3.571   7.071  17.451  0.00  0.00    +0.000 NA
ATOM     19  C   UNL     1       3.501   6.020  18.311  0.00  0.00    +0.000 A 
ATOM     20  C   UNL     1       2.780   6.085  19.516  0.00  0.00    +0.000 A 
ATOM     21  C   UNL     1       2.763   4.984  20.541  0.00  0.00    +0.000 C 
BRANCH  15  23
ATOM     22  C   UNL     1       1.139   8.557  21.521  0.00  0.00    +0.000 C 
ATOM     23  O   UNL     1       1.266   7.276  20.906  0.00  0.00    +0.000 OA
ENDBRANCH  15  23
ENDBRANCH  14  19
ENDBRANCH   1  14
TORSDOF 5
ENDMDL
