MODEL 1
REMARK VINA RESULT:      -6.7      0.000      0.000
REMARK  Name = 
REMARK  9 active torsions:
REMARK  status: ('A' for Active; 'I' for Inactive)
REMARK    1  A    between atoms: C_1  and  C_2
REMARK    2  A    between atoms: C_2  and  C_3
REMARK    3  A    between atoms: N_7  and  C_8
REMARK    4  A    between atoms: C_8  and  C_9
REMARK    5  A    between atoms: C_9  and  C_10
REMARK    6  A    between atoms: N_19  and  S_20
REMARK    7  A    between atoms: S_20  and  N_23
REMARK    8  A    between atoms: N_23  and  C_24
REMARK    9  A    between atoms: N_23  and  C_25
REMARK                            x       y       z     vdW  Elec       q    Type
REMARK                         _______ _______ _______ _____ _____    ______ ____
ROOT
ATOM      1  C   UNL     1       1.488   7.963  20.179  0.00  0.00    +0.000 C 
ATOM      2  O   UNL     1       1.092   7.267  21.114  0.00  0.00    +0.000 OA
ATOM      3  N   UNL     1       1.106   9.297  20.033  0.00  0.00    +0.000 N 
ATOM      4  C   UNL     1       0.224   9.843  21.075  0.00  0.00    +0.000 C 
ATOM      5  C   UNL     1      -0.614  11.035  20.597  0.00  0.00    +0.000 C 
ATOM      6  C   UNL     1      -1.309  10.720  19.262  0.00  0.00    +0.000 C 
ATOM      7  C   UNL     1      -0.405   9.989  18.273  0.00  0.00    +0.000 C 
ATOM      8  C   UNL     1       1.058   9.996  18.729  0.00  0.00    +0.000 C 
ATOM      9  C   UNL     1       1.660  11.425  18.711  0.00  0.00    +0.000 C 
ATOM     10  N   UNL     1       1.584  12.139  20.014  0.00  0.00    +0.000 NA
ATOM     11  C   UNL     1       0.202  12.331  20.528  0.00  0.00    +0.000 C 
ENDROOT
BRANCH  10  12
ATOM     12  S   UNL     1       2.488  13.585  20.058  0.00  0.00    +0.000 S 
ATOM     13  O   UNL     1       3.187  13.627  21.321  0.00  0.00    +0.000 OA
ATOM     14  O   UNL     1       3.197  13.719  18.807  0.00  0.00    +0.000 OA
BRANCH  12  15
ATOM     15  N   UNL     1       1.258  14.752  20.084  0.00  0.00    +0.000 NA
ATOM     16  C   UNL     1       1.433  15.732  21.183  0.00  0.00    +0.000 C 
ATOM     17  C   UNL     1       1.017  15.424  18.790  0.00  0.00    +0.000 C 
ENDBRANCH  12  15
ENDBRANCH  10  12
BRANCH   1  18
ATOM     18  C   UNL     1       2.479   7.407  19.175  0.00  0.00    +0.000 C 
BRANCH  18  19
ATOM     19  C   UNL     1       3.066   6.088  19.662  0.00  0.00    +0.000 C 
BRANCH  19  24
ATOM     20  C   UNL     1       1.726   4.037  19.004  0.00  0.00    +0.000 A 
ATOM     21  N   UNL     1       1.676   3.199  17.985  0.00  0.00    +0.000 NA
ATOM     22  C   UNL     1       2.635   3.613  17.103  0.00  0.00    +0.000 A 
ATOM     23  C   UNL     1       3.294   4.714  17.588  0.00  0.00    +0.000 A 
ATOM     24  N   UNL     1       2.699   4.986  18.792  0.00  0.00    +0.000 N 
BRANCH  20  26
ATOM     25  C   UNL     1       1.470   3.056  21.283  0.00  0.00    +0.000 C 
ATOM     26  C   UNL     1       0.860   3.951  20.216  0.00  0.00    +0.000 C 
ENDBRANCH  20  26
ENDBRANCH  19  24
ENDBRANCH  18  19
ENDBRANCH   1  18
TORSDOF 6
ENDMDL
MODEL 2
REMARK VINA RESULT:      -6.5      0.921      1.112
REMARK  Name = 
REMARK  9 active torsions:
REMARK  status: ('A' for Active; 'I' for Inactive)
REMARK    1  A    between atoms: C_1  and  C_2
REMARK    2  A    between atoms: C_2  and  C_3
REMARK    3  A    between atoms: N_7  and  C_8
REMARK    4  A    between atoms: C_8  and  C_9
REMARK    5  A    between atoms: C_9  and  C_10
REMARK    6  A    between atoms: N_19  and  S_20
REMARK    7  A    between atoms: S_20  and  N_23
REMARK    8  A    between atoms: N_23  and  C_24
REMARK    9  A    between atoms: N_23  and  C_25
REMARK                            x       y       z     vdW  Elec       q    Type
REMARK                         _______ _______ _______ _____ _____    ______ ____
ROOT
ATOM      1  C   UNL     1       1.756   7.970  19.795  0.00  0.00    +0.000 C 
ATOM      2  O   UNL     1       1.463   7.161  20.675  0.00  0.00    +0.000 OA
ATOM      3  N   UNL     1       1.290   9.285  19.811  0.00  0.00    +0.000 N 
ATOM      4  C   UNL     1       0.450   9.668  20.956  0.00  0.00    +0.000 C 
ATOM      5  C   UNL     1      -0.485  10.847  20.655  0.00  0.00    +0.000 C 
ATOM      6  C   UNL     1      -1.248  10.622  19.340  0.00  0.00    +0.000 C 
ATOM      7  C   UNL     1      -0.372  10.052  18.227  0.00  0.00    +0.000 C 
ATOM      8  C   UNL     1       1.115  10.107  18.591  0.00  0.00    +0.000 C 
ATOM      9  C   UNL     1       1.632  11.566  18.685  0.00  0.00    +0.000 C 
ATOM     10  N   UNL     1       1.603  12.141  20.057  0.00  0.00    +0.000 NA
ATOM     11  C   UNL     1       0.250  12.192  20.672  0.00  0.00    +0.000 C 
ENDROOT
BRANCH  10  12
ATOM     12  S   UNL     1       2.424  13.628  20.195  0.00  0.00    +0.000 S 
ATOM     13  O   UNL     1       3.063  13.659  21.491  0.00  0.00    +0.000 OA
ATOM     14  O   UNL     1       3.181  13.848  18.985  0.00  0.00    +0.000 OA
BRANCH  12  15
ATOM     15  N   UNL     1       1.133  14.728  20.205  0.00  0.00    +0.000 NA
ATOM     16  C   UNL     1       1.223  15.694  21.327  0.00  0.00    +0.000 C 
ATOM     17  C   UNL     1       0.895  15.412  18.917  0.00  0.00    +0.000 C 
ENDBRANCH  12  15
ENDBRANCH  10  12
BRANCH   1  18
ATOM     18  C   UNL     1       2.707   7.581  18.680  0.00  0.00    +0.000 C 
BRANCH  18  19
ATOM     19  C   UNL     1       2.374   6.197  18.138  0.00  0.00    +0.000 C 
BRANCH  19  24
ATOM     20  C   UNL     1       3.056   3.935  19.062  0.00  0.00    +0.000 A 
ATOM     21  N   UNL     1       4.179   3.315  19.376  0.00  0.00    +0.000 NA
ATOM     22  C   UNL     1       5.188   4.198  19.109  0.00  0.00    +0.000 A 
ATOM     23  C   UNL     1       4.682   5.381  18.635  0.00  0.00    +0.000 A 
ATOM     24  N   UNL     1       3.325   5.200  18.595  0.00  0.00    +0.000 N 
BRANCH  20  26
ATOM     25  C   UNL     1       1.102   3.632  20.583  0.00  0.00    +0.000 C 
ATOM     26  C   UNL     1       1.692   3.347  19.212  0.00  0.00    +0.000 C 
ENDBRANCH  20  26
ENDBRANCH  19  24
ENDBRANCH  18  19
ENDBRANCH   1  18
TORSDOF 6
ENDMDL
MODEL 3
REMARK VINA RESULT:      -6.4      0.950      1.187
REMARK  Name = 
REMARK  9 active torsions:
REMARK  status: ('A' for Active; 'I' for Inactive)
REMARK    1  A    between atoms: C_1  and  C_2
REMARK    2  A    between atoms: C_2  and  C_3
REMARK    3  A    between atoms: N_7  and  C_8
REMARK    4  A    between atoms: C_8  and  C_9
REMARK    5  A    between atoms: C_9  and  C_10
REMARK    6  A    between atoms: N_19  and  S_20
REMARK    7  A    between atoms: S_20  and  N_23
REMARK    8  A    between atoms: N_23  and  C_24
REMARK    9  A    between atoms: N_23  and  C_25
REMARK                            x       y       z     vdW  Elec       q    Type
REMARK                         _______ _______ _______ _____ _____    ______ ____
ROOT
ATOM      1  C   UNL     1       1.444   8.107  20.130  0.00  0.00    +0.000 C 
ATOM      2  O   UNL     1       1.058   7.460  21.104  0.00  0.00    +0.000 OA
ATOM      3  N   UNL     1       1.004   9.407  19.882  0.00  0.00    +0.000 N 
ATOM      4  C   UNL     1       0.074   9.982  20.864  0.00  0.00    +0.000 C 
ATOM      5  C   UNL     1      -0.807  11.097  20.285  0.00  0.00    +0.000 C 
ATOM      6  C   UNL     1      -1.454  10.656  18.963  0.00  0.00    +0.000 C 
ATOM      7  C   UNL     1      -0.494   9.902  18.046  0.00  0.00    +0.000 C 
ATOM      8  C   UNL     1       0.955  10.011  18.530  0.00  0.00    +0.000 C 
ATOM      9  C   UNL     1       1.491  11.462  18.424  0.00  0.00    +0.000 C 
ATOM     10  N   UNL     1       1.351  12.262  19.670  0.00  0.00    +0.000 NA
ATOM     11  C   UNL     1      -0.050  12.422  20.142  0.00  0.00    +0.000 C 
ENDROOT
BRANCH  10  12
ATOM     12  S   UNL     1       2.186  13.748  19.630  0.00  0.00    +0.000 S 
ATOM     13  O   UNL     1       3.414  13.543  18.898  0.00  0.00    +0.000 OA
ATOM     14  O   UNL     1       1.255  14.785  19.252  0.00  0.00    +0.000 OA
BRANCH  12  15
ATOM     15  N   UNL     1       2.566  13.966  21.269  0.00  0.00    +0.000 NA
ATOM     16  C   UNL     1       4.022  14.143  21.492  0.00  0.00    +0.000 C 
ATOM     17  C   UNL     1       1.781  15.017  21.950  0.00  0.00    +0.000 C 
ENDBRANCH  12  15
ENDBRANCH  10  12
BRANCH   1  18
ATOM     18  C   UNL     1       2.483   7.530  19.188  0.00  0.00    +0.000 C 
BRANCH  18  19
ATOM     19  C   UNL     1       3.044   6.221  19.731  0.00  0.00    +0.000 C 
BRANCH  19  24
ATOM     20  C   UNL     1       1.740   4.111  19.202  0.00  0.00    +0.000 A 
ATOM     21  N   UNL     1       1.650   3.253  18.202  0.00  0.00    +0.000 NA
ATOM     22  C   UNL     1       2.527   3.687  17.247  0.00  0.00    +0.000 A 
ATOM     23  C   UNL     1       3.176   4.820  17.667  0.00  0.00    +0.000 A 
ATOM     24  N   UNL     1       2.659   5.091  18.906  0.00  0.00    +0.000 N 
BRANCH  20  26
ATOM     25  C   UNL     1       1.372   2.798  21.291  0.00  0.00    +0.000 C 
ATOM     26  C   UNL     1       0.967   4.014  20.475  0.00  0.00    +0.000 C 
ENDBRANCH  20  26
ENDBRANCH  19  24
ENDBRANCH  18  19
ENDBRANCH   1  18
TORSDOF 6
ENDMDL
MODEL 4
REMARK VINA RESULT:      -6.4      1.774      2.743
REMARK  Name = 
REMARK  9 active torsions:
REMARK  status: ('A' for Active; 'I' for Inactive)
REMARK    1  A    between atoms: C_1  and  C_2
REMARK    2  A    between atoms: C_2  and  C_3
REMARK    3  A    between atoms: N_7  and  C_8
REMARK    4  A    between atoms: C_8  and  C_9
REMARK    5  A    between atoms: C_9  and  C_10
REMARK    6  A    between atoms: N_19  and  S_20
REMARK    7  A    between atoms: S_20  and  N_23
REMARK    8  A    between atoms: N_23  and  C_24
REMARK    9  A    between atoms: N_23  and  C_25
REMARK                            x       y       z     vdW  Elec       q    Type
REMARK                         _______ _______ _______ _____ _____    ______ ____
ROOT
ATOM      1  C   UNL     1       1.991   7.878  19.377  0.00  0.00    +0.000 C 
ATOM      2  O   UNL     1       1.796   6.983  20.199  0.00  0.00    +0.000 OA
ATOM      3  N   UNL     1       1.446   9.154  19.525  0.00  0.00    +0.000 N 
ATOM      4  C   UNL     1       0.646   9.387  20.736  0.00  0.00    +0.000 C 
ATOM      5  C   UNL     1      -0.375  10.522  20.580  0.00  0.00    +0.000 C 
ATOM      6  C   UNL     1      -1.191  10.354  19.288  0.00  0.00    +0.000 C 
ATOM      7  C   UNL     1      -0.342   9.934  18.091  0.00  0.00    +0.000 C 
ATOM      8  C   UNL     1       1.156  10.057  18.387  0.00  0.00    +0.000 C 
ATOM      9  C   UNL     1       1.587  11.535  18.578  0.00  0.00    +0.000 C 
ATOM     10  N   UNL     1       1.595  11.995  19.993  0.00  0.00    +0.000 NA
ATOM     11  C   UNL     1       0.275  11.907  20.674  0.00  0.00    +0.000 C 
ENDROOT
BRANCH  10  12
ATOM     12  S   UNL     1       2.328  13.518  20.216  0.00  0.00    +0.000 S 
ATOM     13  O   UNL     1       2.964  13.514  21.513  0.00  0.00    +0.000 OA
ATOM     14  O   UNL     1       3.070  13.847  19.021  0.00  0.00    +0.000 OA
BRANCH  12  15
ATOM     15  N   UNL     1       0.975  14.538  20.283  0.00  0.00    +0.000 NA
ATOM     16  C   UNL     1       1.020  15.459  21.445  0.00  0.00    +0.000 C 
ATOM     17  C   UNL     1       0.684  15.261  19.027  0.00  0.00    +0.000 C 
ENDBRANCH  12  15
ENDBRANCH  10  12
BRANCH   1  18
ATOM     18  C   UNL     1       2.904   7.643  18.190  0.00  0.00    +0.000 C 
BRANCH  18  19
ATOM     19  C   UNL     1       3.107   6.153  17.944  0.00  0.00    +0.000 C 
BRANCH  19  24
ATOM     20  C   UNL     1       5.473   5.692  17.151  0.00  0.00    +0.000 A 
ATOM     21  N   UNL     1       6.617   5.313  17.688  0.00  0.00    +0.000 NA
ATOM     22  C   UNL     1       6.374   5.138  19.022  0.00  0.00    +0.000 A 
ATOM     23  C   UNL     1       5.059   5.401  19.311  0.00  0.00    +0.000 A 
ATOM     24  N   UNL     1       4.496   5.767  18.117  0.00  0.00    +0.000 N 
BRANCH  20  26
ATOM     25  C   UNL     1       5.690   4.808  14.829  0.00  0.00    +0.000 C 
ATOM     26  C   UNL     1       5.270   5.980  15.701  0.00  0.00    +0.000 C 
ENDBRANCH  20  26
ENDBRANCH  19  24
ENDBRANCH  18  19
ENDBRANCH   1  18
TORSDOF 6
ENDMDL
MODEL 5
REMARK VINA RESULT:      -6.3      1.573      1.912
REMARK  Name = 
REMARK  9 active torsions:
REMARK  status: ('A' for Active; 'I' for Inactive)
REMARK    1  A    between atoms: C_1  and  C_2
REMARK    2  A    between atoms: C_2  and  C_3
REMARK    3  A    between atoms: N_7  and  C_8
REMARK    4  A    between atoms: C_8  and  C_9
REMARK    5  A    between atoms: C_9  and  C_10
REMARK    6  A    between atoms: N_19  and  S_20
REMARK    7  A    between atoms: S_20  and  N_23
REMARK    8  A    between atoms: N_23  and  C_24
REMARK    9  A    between atoms: N_23  and  C_25
REMARK                            x       y       z     vdW  Elec       q    Type
REMARK                         _______ _______ _______ _____ _____    ______ ____
ROOT
ATOM      1  C   UNL     1       2.058   7.836  19.310  0.00  0.00    +0.000 C 
ATOM      2  O   UNL     1       1.860   6.933  20.124  0.00  0.00    +0.000 OA
ATOM      3  N   UNL     1       1.496   9.104  19.459  0.00  0.00    +0.000 N 
ATOM      4  C   UNL     1       0.675   9.319  20.660  0.00  0.00    +0.000 C 
ATOM      5  C   UNL     1      -0.356  10.444  20.497  0.00  0.00    +0.000 C 
ATOM      6  C   UNL     1      -1.151  10.276  19.192  0.00  0.00    +0.000 C 
ATOM      7  C   UNL     1      -0.279   9.874  18.005  0.00  0.00    +0.000 C 
ATOM      8  C   UNL     1       1.213  10.012  18.324  0.00  0.00    +0.000 C 
ATOM      9  C   UNL     1       1.623  11.493  18.532  0.00  0.00    +0.000 C 
ATOM     10  N   UNL     1       1.605  11.943  19.950  0.00  0.00    +0.000 NA
ATOM     11  C   UNL     1       0.277  11.835  20.610  0.00  0.00    +0.000 C 
ENDROOT
BRANCH  10  12
ATOM     12  S   UNL     1       2.318  13.472  20.195  0.00  0.00    +0.000 S 
ATOM     13  O   UNL     1       2.967  13.453  21.485  0.00  0.00    +0.000 OA
ATOM     14  O   UNL     1       3.042  13.836  18.999  0.00  0.00    +0.000 OA
BRANCH  12  15
ATOM     15  N   UNL     1       0.950  14.470  20.296  0.00  0.00    +0.000 NA
ATOM     16  C   UNL     1       0.974  15.342  21.496  0.00  0.00    +0.000 C 
ATOM     17  C   UNL     1       0.657  15.242  19.070  0.00  0.00    +0.000 C 
ENDBRANCH  12  15
ENDBRANCH  10  12
BRANCH   1  18
ATOM     18  C   UNL     1       2.991   7.620  18.135  0.00  0.00    +0.000 C 
BRANCH  18  19
ATOM     19  C   UNL     1       3.162   6.135  17.840  0.00  0.00    +0.000 C 
BRANCH  19  24
ATOM     20  C   UNL     1       4.775   4.607  19.065  0.00  0.00    +0.000 A 
ATOM     21  N   UNL     1       6.083   4.470  19.176  0.00  0.00    +0.000 NA
ATOM     22  C   UNL     1       6.637   5.451  18.402  0.00  0.00    +0.000 A 
ATOM     23  C   UNL     1       5.659   6.212  17.815  0.00  0.00    +0.000 A 
ATOM     24  N   UNL     1       4.476   5.659  18.231  0.00  0.00    +0.000 N 
BRANCH  20  26
ATOM     25  C   UNL     1       4.214   2.300  19.827  0.00  0.00    +0.000 C 
ATOM     26  C   UNL     1       3.770   3.752  19.761  0.00  0.00    +0.000 C 
ENDBRANCH  20  26
ENDBRANCH  19  24
ENDBRANCH  18  19
ENDBRANCH   1  18
TORSDOF 6
ENDMDL
MODEL 6
REMARK VINA RESULT:      -6.3      6.574      9.194
REMARK  Name = 
REMARK  9 active torsions:
REMARK  status: ('A' for Active; 'I' for Inactive)
REMARK    1  A    between atoms: C_1  and  C_2
REMARK    2  A    between atoms: C_2  and  C_3
REMARK    3  A    between atoms: N_7  and  C_8
REMARK    4  A    between atoms: C_8  and  C_9
REMARK    5  A    between atoms: C_9  and  C_10
REMARK    6  A    between atoms: N_19  and  S_20
REMARK    7  A    between atoms: S_20  and  N_23
REMARK    8  A    between atoms: N_23  and  C_24
REMARK    9  A    between atoms: N_23  and  C_25
REMARK                            x       y       z     vdW  Elec       q    Type
REMARK                         _______ _______ _______ _____ _____    ______ ____
ROOT
ATOM      1  C   UNL     1       5.892   5.211  14.876  0.00  0.00    +0.000 C 
ATOM      2  O   UNL     1       5.794   6.278  14.268  0.00  0.00    +0.000 OA
ATOM      3  N   UNL     1       5.383   5.042  16.164  0.00  0.00    +0.000 N 
ATOM      4  C   UNL     1       4.692   6.199  16.751  0.00  0.00    +0.000 C 
ATOM      5  C   UNL     1       4.686   6.187  18.286  0.00  0.00    +0.000 C 
ATOM      6  C   UNL     1       6.096   5.926  18.840  0.00  0.00    +0.000 C 
ATOM      7  C   UNL     1       6.847   4.836  18.080  0.00  0.00    +0.000 C 
ATOM      8  C   UNL     1       5.922   4.063  17.135  0.00  0.00    +0.000 C 
ATOM      9  C   UNL     1       4.864   3.236  17.911  0.00  0.00    +0.000 C 
ATOM     10  N   UNL     1       3.562   3.930  18.103  0.00  0.00    +0.000 NA
ATOM     11  C   UNL     1       3.653   5.208  18.857  0.00  0.00    +0.000 C 
ENDROOT
BRANCH  10  12
ATOM     12  S   UNL     1       2.328   2.919  18.706  0.00  0.00    +0.000 S 
ATOM     13  O   UNL     1       1.132   3.181  17.939  0.00  0.00    +0.000 OA
ATOM     14  O   UNL     1       2.855   1.581  18.834  0.00  0.00    +0.000 OA
BRANCH  12  15
ATOM     15  N   UNL     1       2.113   3.544  20.268  0.00  0.00    +0.000 NA
ATOM     16  C   UNL     1       0.729   4.022  20.499  0.00  0.00    +0.000 C 
ATOM     17  C   UNL     1       2.569   2.653  21.356  0.00  0.00    +0.000 C 
ENDBRANCH  12  15
ENDBRANCH  10  12
BRANCH   1  18
ATOM     18  C   UNL     1       6.517   4.002  14.208  0.00  0.00    +0.000 C 
BRANCH  18  19
ATOM     19  C   UNL     1       6.677   4.228  12.710  0.00  0.00    +0.000 C 
BRANCH  19  24
ATOM     20  C   UNL     1       5.207   2.604  11.431  0.00  0.00    +0.000 A 
ATOM     21  N   UNL     1       5.356   1.455  10.799  0.00  0.00    +0.000 NA
ATOM     22  C   UNL     1       6.676   1.121  10.920  0.00  0.00    +0.000 A 
ATOM     23  C   UNL     1       7.349   2.070  11.647  0.00  0.00    +0.000 A 
ATOM     24  N   UNL     1       6.409   3.018  11.955  0.00  0.00    +0.000 N 
BRANCH  20  26
ATOM     25  C   UNL     1       3.243   3.553  10.220  0.00  0.00    +0.000 C 
ATOM     26  C   UNL     1       3.913   3.336  11.567  0.00  0.00    +0.000 C 
ENDBRANCH  20  26
ENDBRANCH  19  24
ENDBRANCH  18  19
ENDBRANCH   1  18
TORSDOF 6
ENDMDL
MODEL 7
REMARK VINA RESULT:      -6.3      1.203      1.542
REMARK  Name = 
REMARK  9 active torsions:
REMARK  status: ('A' for Active; 'I' for Inactive)
REMARK    1  A    between atoms: C_1  and  C_2
REMARK    2  A    between atoms: C_2  and  C_3
REMARK    3  A    between atoms: N_7  and  C_8
REMARK    4  A    between atoms: C_8  and  C_9
REMARK    5  A    between atoms: C_9  and  C_10
REMARK    6  A    between atoms: N_19  and  S_20
REMARK    7  A    between atoms: S_20  and  N_23
REMARK    8  A    between atoms: N_23  and  C_24
REMARK    9  A    between atoms: N_23  and  C_25
REMARK                            x       y       z     vdW  Elec       q    Type
REMARK                         _______ _______ _______ _____ _____    ______ ____
ROOT
ATOM      1  C   UNL     1       1.741   8.027  19.807  0.00  0.00    +0.000 C 
ATOM      2  O   UNL     1       1.424   7.135  20.595  0.00  0.00    +0.000 OA
ATOM      3  N   UNL     1       1.203   9.312  19.885  0.00  0.00    +0.000 N 
ATOM      4  C   UNL     1       0.255   9.559  20.981  0.00  0.00    +0.000 C 
ATOM      5  C   UNL     1      -0.717  10.711  20.695  0.00  0.00    +0.000 C 
ATOM      6  C   UNL     1      -1.359  10.558  19.306  0.00  0.00    +0.000 C 
ATOM      7  C   UNL     1      -0.366  10.123  18.231  0.00  0.00    +0.000 C 
ATOM      8  C   UNL     1       1.081  10.221  18.722  0.00  0.00    +0.000 C 
ATOM      9  C   UNL     1       1.508  11.690  18.972  0.00  0.00    +0.000 C 
ATOM     10  N   UNL     1       1.338  12.150  20.376  0.00  0.00    +0.000 NA
ATOM     11  C   UNL     1      -0.061  12.085  20.877  0.00  0.00    +0.000 C 
ENDROOT
BRANCH  10  12
ATOM     12  S   UNL     1       2.061  13.659  20.698  0.00  0.00    +0.000 S 
ATOM     13  O   UNL     1       1.058  14.510  21.296  0.00  0.00    +0.000 OA
ATOM     14  O   UNL     1       3.330  13.429  21.350  0.00  0.00    +0.000 OA
BRANCH  12  15
ATOM     15  N   UNL     1       2.380  14.223  19.131  0.00  0.00    +0.000 NA
ATOM     16  C   UNL     1       1.510  15.363  18.753  0.00  0.00    +0.000 C 
ATOM     17  C   UNL     1       3.803  14.512  18.855  0.00  0.00    +0.000 C 
ENDBRANCH  12  15
ENDBRANCH  10  12
BRANCH   1  18
ATOM     18  C   UNL     1       2.799   7.777  18.750  0.00  0.00    +0.000 C 
BRANCH  18  19
ATOM     19  C   UNL     1       2.520   6.482  17.996  0.00  0.00    +0.000 C 
BRANCH  19  24
ATOM     20  C   UNL     1       2.937   4.135  18.866  0.00  0.00    +0.000 A 
ATOM     21  N   UNL     1       3.975   3.412  19.242  0.00  0.00    +0.000 NA
ATOM     22  C   UNL     1       5.071   4.217  19.102  0.00  0.00    +0.000 A 
ATOM     23  C   UNL     1       4.704   5.457  18.645  0.00  0.00    +0.000 A 
ATOM     24  N   UNL     1       3.345   5.392  18.483  0.00  0.00    +0.000 N 
BRANCH  20  26
ATOM     25  C   UNL     1       0.937   3.649  20.275  0.00  0.00    +0.000 C 
ATOM     26  C   UNL     1       1.522   3.658  18.872  0.00  0.00    +0.000 C 
ENDBRANCH  20  26
ENDBRANCH  19  24
ENDBRANCH  18  19
ENDBRANCH   1  18
TORSDOF 6
ENDMDL
MODEL 8
REMARK VINA RESULT:      -6.2      4.121      8.195
REMARK  Name = 
REMARK  9 active torsions:
REMARK  status: ('A' for Active; 'I' for Inactive)
REMARK    1  A    between atoms: C_1  and  C_2
REMARK    2  A    between atoms: C_2  and  C_3
REMARK    3  A    between atoms: N_7  and  C_8
REMARK    4  A    between atoms: C_8  and  C_9
REMARK    5  A    between atoms: C_9  and  C_10
REMARK    6  A    between atoms: N_19  and  S_20
REMARK    7  A    between atoms: S_20  and  N_23
REMARK    8  A    between atoms: N_23  and  C_24
REMARK    9  A    between atoms: N_23  and  C_25
REMARK                            x       y       z     vdW  Elec       q    Type
REMARK                         _______ _______ _______ _____ _____    ______ ____
ROOT
ATOM      1  C   UNL     1       1.957   5.111  19.246  0.00  0.00    +0.000 C 
ATOM      2  O   UNL     1       0.799   4.946  18.862  0.00  0.00    +0.000 OA
ATOM      3  N   UNL     1       3.028   4.399  18.704  0.00  0.00    +0.000 N 
ATOM      4  C   UNL     1       2.706   3.458  17.622  0.00  0.00    +0.000 C 
ATOM      5  C   UNL     1       3.732   2.325  17.479  0.00  0.00    +0.000 C 
ATOM      6  C   UNL     1       4.023   1.672  18.840  0.00  0.00    +0.000 C 
ATOM      7  C   UNL     1       4.171   2.684  19.973  0.00  0.00    +0.000 C 
ATOM      8  C   UNL     1       4.280   4.117  19.442  0.00  0.00    +0.000 C 
ATOM      9  C   UNL     1       5.593   4.339  18.646  0.00  0.00    +0.000 C 
ATOM     10  N   UNL     1       5.460   4.146  17.177  0.00  0.00    +0.000 NA
ATOM     11  C   UNL     1       5.013   2.785  16.775  0.00  0.00    +0.000 C 
ENDROOT
BRANCH  10  12
ATOM     12  S   UNL     1       6.823   4.658  16.291  0.00  0.00    +0.000 S 
ATOM     13  O   UNL     1       7.995   4.394  17.094  0.00  0.00    +0.000 OA
ATOM     14  O   UNL     1       6.711   4.149  14.944  0.00  0.00    +0.000 OA
BRANCH  12  15
ATOM     15  N   UNL     1       6.578   6.335  16.232  0.00  0.00    +0.000 NA
ATOM     16  C   UNL     1       5.140   6.694  16.164  0.00  0.00    +0.000 C 
ATOM     17  C   UNL     1       7.279   7.098  17.286  0.00  0.00    +0.000 C 
ENDBRANCH  12  15
ENDBRANCH  10  12
BRANCH   1  18
ATOM     18  C   UNL     1       2.276   6.162  20.291  0.00  0.00    +0.000 C 
BRANCH  18  19
ATOM     19  C   UNL     1       2.282   7.557  19.677  0.00  0.00    +0.000 C 
BRANCH  19  24
ATOM     20  C   UNL     1       0.605   9.452  19.861  0.00  0.00    +0.000 A 
ATOM     21  N   UNL     1      -0.071  10.057  20.820  0.00  0.00    +0.000 NA
ATOM     22  C   UNL     1       0.293   9.447  21.987  0.00  0.00    +0.000 A 
ATOM     23  C   UNL     1       1.214   8.459  21.748  0.00  0.00    +0.000 A 
ATOM     24  N   UNL     1       1.396   8.459  20.391  0.00  0.00    +0.000 N 
BRANCH  20  26
ATOM     25  C   UNL     1      -0.865  10.270  18.019  0.00  0.00    +0.000 C 
ATOM     26  C   UNL     1       0.529   9.809  18.414  0.00  0.00    +0.000 C 
ENDBRANCH  20  26
ENDBRANCH  19  24
ENDBRANCH  18  19
ENDBRANCH   1  18
TORSDOF 6
ENDMDL
MODEL 9
REMARK VINA RESULT:      -6.2      1.294      1.648
REMARK  Name = 
REMARK  9 active torsions:
REMARK  status: ('A' for Active; 'I' for Inactive)
REMARK    1  A    between atoms: C_1  and  C_2
REMARK    2  A    between atoms: C_2  and  C_3
REMARK    3  A    between atoms: N_7  and  C_8
REMARK    4  A    between atoms: C_8  and  C_9
REMARK    5  A    between atoms: C_9  and  C_10
REMARK    6  A    between atoms: N_19  and  S_20
REMARK    7  A    between atoms: S_20  and  N_23
REMARK    8  A    between atoms: N_23  and  C_24
REMARK    9  A    between atoms: N_23  and  C_25
REMARK                            x       y       z     vdW  Elec       q    Type
REMARK                         _______ _______ _______ _____ _____    ______ ____
ROOT
ATOM      1  C   UNL     1       0.565   8.754  20.975  0.00  0.00    +0.000 C 
ATOM      2  O   UNL     1      -0.211   8.452  21.882  0.00  0.00    +0.000 OA
ATOM      3  N   UNL     1       0.415   9.923  20.229  0.00  0.00    +0.000 N 
ATOM      4  C   UNL     1      -0.705  10.799  20.603  0.00  0.00    +0.000 C 
ATOM      5  C   UNL     1      -1.180  11.701  19.456  0.00  0.00    +0.000 C 
ATOM      6  C   UNL     1      -1.397  10.887  18.170  0.00  0.00    +0.000 C 
ATOM      7  C   UNL     1      -0.296   9.860  17.916  0.00  0.00    +0.000 C 
ATOM      8  C   UNL     1       0.906  10.077  18.840  0.00  0.00    +0.000 C 
ATOM      9  C   UNL     1       1.638  11.409  18.531  0.00  0.00    +0.000 C 
ATOM     10  N   UNL     1       1.197  12.560  19.364  0.00  0.00    +0.000 NA
ATOM     11  C   UNL     1      -0.246  12.896  19.230  0.00  0.00    +0.000 C 
ENDROOT
BRANCH  10  12
ATOM     12  S   UNL     1       2.189  13.938  19.213  0.00  0.00    +0.000 S 
ATOM     13  O   UNL     1       3.283  13.598  18.332  0.00  0.00    +0.000 OA
ATOM     14  O   UNL     1       1.347  15.082  18.951  0.00  0.00    +0.000 OA
BRANCH  12  15
ATOM     15  N   UNL     1       2.796  14.092  20.789  0.00  0.00    +0.000 NA
ATOM     16  C   UNL     1       4.186  14.609  20.811  0.00  0.00    +0.000 C 
ATOM     17  C   UNL     1       1.923  14.843  21.716  0.00  0.00    +0.000 C 
ENDBRANCH  12  15
ENDBRANCH  10  12
BRANCH   1  18
ATOM     18  C   UNL     1       1.772   7.886  20.676  0.00  0.00    +0.000 C 
BRANCH  18  19
ATOM     19  C   UNL     1       1.427   6.408  20.813  0.00  0.00    +0.000 C 
BRANCH  19  24
ATOM     20  C   UNL     1       1.874   4.274  19.515  0.00  0.00    +0.000 A 
ATOM     21  N   UNL     1       2.596   3.908  18.473  0.00  0.00    +0.000 NA
ATOM     22  C   UNL     1       3.249   5.031  18.048  0.00  0.00    +0.000 A 
ATOM     23  C   UNL     1       2.934   6.103  18.844  0.00  0.00    +0.000 A 
ATOM     24  N   UNL     1       2.047   5.615  19.767  0.00  0.00    +0.000 N 
BRANCH  20  26
ATOM     25  C   UNL     1       1.726   2.830  21.544  0.00  0.00    +0.000 C 
ATOM     26  C   UNL     1       1.008   3.356  20.312  0.00  0.00    +0.000 C 
ENDBRANCH  20  26
ENDBRANCH  19  24
ENDBRANCH  18  19
ENDBRANCH   1  18
TORSDOF 6
ENDMDL
