MODEL 1
REMARK VINA RESULT:      -6.7      0.000      0.000
REMARK  Name = 
REMARK  6 active torsions:
REMARK  status: ('A' for Active; 'I' for Inactive)
REMARK    1  A    between atoms: C_2  and  C_3
REMARK    2  A    between atoms: C_4  and  N_5
REMARK    3  A    between atoms: C_9  and  N_10
REMARK    4  A    between atoms: C_16  and  C_17
REMARK    5  A    between atoms: C_17  and  N_18
REMARK    6  A    between atoms: N_22  and  C_23
REMARK                            x       y       z     vdW  Elec       q    Type
REMARK                         _______ _______ _______ _____ _____    ______ ____
ROOT
ATOM      1  C   UNL     1       1.606   7.901  19.616  0.00  0.00    +0.000 A 
ATOM      2  C   UNL     1       1.477   9.216  19.071  0.00  0.00    +0.000 A 
ATOM      3  C   UNL     1       2.287   9.511  17.968  0.00  0.00    +0.000 A 
ATOM      4  F   UNL     1       2.234  10.710  17.369  0.00  0.00    +0.000 F 
ATOM      5  C   UNL     1       3.179   8.585  17.426  0.00  0.00    +0.000 A 
ATOM      6  C   UNL     1       3.257   7.278  17.912  0.00  0.00    +0.000 A 
ATOM      7  C   UNL     1       4.190   6.319  17.262  0.00  0.00    +0.000 A 
ATOM      8  C   UNL     1       4.245   5.078  17.754  0.00  0.00    +0.000 A 
ATOM      9  C   UNL     1       3.427   4.603  18.876  0.00  0.00    +0.000 A 
ATOM     10  O   UNL     1       3.617   3.431  19.201  0.00  0.00    +0.000 OA
ATOM     11  N   UNL     1       2.535   5.500  19.469  0.00  0.00    +0.000 N 
ATOM     12  C   UNL     1       2.450   6.894  19.015  0.00  0.00    +0.000 A 
ENDROOT
BRANCH   2  13
ATOM     13  N   UNL     1       0.608  10.155  19.659  0.00  0.00    +0.000 N 
ATOM     14  C   UNL     1       1.123  11.388  20.267  0.00  0.00    +0.000 C 
ATOM     15  C   UNL     1       0.441  12.498  19.529  0.00  0.00    +0.000 C 
ATOM     16  C   UNL     1      -0.936  12.902  19.957  0.00  0.00    +0.000 C 
ATOM     17  C   UNL     1      -0.731  11.963  18.780  0.00  0.00    +0.000 C 
ATOM     18  C   UNL     1      -0.671  10.441  18.948  0.00  0.00    +0.000 C 
BRANCH  17  19
ATOM     19  N   UNL     1      -1.153  12.499  17.472  0.00  0.00    +0.000 NA
ATOM     20  H   UNL     1      -1.072  13.515  17.449  0.00  0.00    +0.000 HD
ATOM     21  H   UNL     1      -2.147  12.313  17.325  0.00  0.00    +0.000 HD
ENDBRANCH  17  19
ENDBRANCH   2  13
BRANCH  11  22
ATOM     22  C   UNL     1       1.665   5.012  20.532  0.00  0.00    +0.000 C 
ATOM     23  C   UNL     1       1.158   3.619  20.805  0.00  0.00    +0.000 C 
ATOM     24  C   UNL     1       2.289   4.157  21.619  0.00  0.00    +0.000 C 
ENDBRANCH  11  22
BRANCH   1  26
ATOM     25  N   UNL     1       0.307   7.544  21.842  0.00  0.00    +0.000 NA
ATOM     26  C   UNL     1       0.907   7.694  20.862  0.00  0.00    +0.000 C 
ENDBRANCH   1  26
BRANCH   7  27
ATOM     27  C   UNL     1       5.129   6.673  16.130  0.00  0.00    +0.000 C 
BRANCH  27  28
ATOM     28  N   UNL     1       6.465   7.040  16.578  0.00  0.00    +0.000 NA
ATOM     29  H   UNL     1       6.574   6.785  17.560  0.00  0.00    +0.000 HD
ATOM     30  H   UNL     1       6.549   8.058  16.555  0.00  0.00    +0.000 HD
ENDBRANCH  27  28
ENDBRANCH   7  27
TORSDOF 6
ENDMDL
MODEL 2
REMARK VINA RESULT:      -6.4      1.944      4.079
REMARK  Name = 
REMARK  6 active torsions:
REMARK  status: ('A' for Active; 'I' for Inactive)
REMARK    1  A    between atoms: C_2  and  C_3
REMARK    2  A    between atoms: C_4  and  N_5
REMARK    3  A    between atoms: C_9  and  N_10
REMARK    4  A    between atoms: C_16  and  C_17
REMARK    5  A    between atoms: C_17  and  N_18
REMARK    6  A    between atoms: N_22  and  C_23
REMARK                            x       y       z     vdW  Elec       q    Type
REMARK                         _______ _______ _______ _____ _____    ______ ____
ROOT
ATOM      1  C   UNL     1       2.120   8.089  19.182  0.00  0.00    +0.000 A 
ATOM      2  C   UNL     1       1.172   8.652  20.091  0.00  0.00    +0.000 A 
ATOM      3  C   UNL     1       0.679   7.793  21.081  0.00  0.00    +0.000 A 
ATOM      4  F   UNL     1      -0.203   8.222  21.996  0.00  0.00    +0.000 F 
ATOM      5  C   UNL     1       1.077   6.460  21.179  0.00  0.00    +0.000 A 
ATOM      6  C   UNL     1       2.054   5.926  20.336  0.00  0.00    +0.000 A 
ATOM      7  C   UNL     1       2.476   4.512  20.521  0.00  0.00    +0.000 A 
ATOM      8  C   UNL     1       3.409   4.031  19.695  0.00  0.00    +0.000 A 
ATOM      9  C   UNL     1       4.055   4.818  18.638  0.00  0.00    +0.000 A 
ATOM     10  O   UNL     1       4.886   4.208  17.966  0.00  0.00    +0.000 OA
ATOM     11  N   UNL     1       3.672   6.153  18.482  0.00  0.00    +0.000 N 
ATOM     12  C   UNL     1       2.621   6.741  19.321  0.00  0.00    +0.000 A 
ENDROOT
BRANCH   2  13
ATOM     13  N   UNL     1       0.743   9.986  19.948  0.00  0.00    +0.000 N 
ATOM     14  C   UNL     1      -0.580  10.302  19.396  0.00  0.00    +0.000 C 
ATOM     15  C   UNL     1      -1.266  11.096  20.464  0.00  0.00    +0.000 C 
ATOM     16  C   UNL     1      -0.988  12.566  20.552  0.00  0.00    +0.000 C 
ATOM     17  C   UNL     1      -0.264  11.581  21.456  0.00  0.00    +0.000 C 
ATOM     18  C   UNL     1       1.064  10.928  21.057  0.00  0.00    +0.000 C 
BRANCH  17  19
ATOM     19  N   UNL     1      -0.567  11.714  22.894  0.00  0.00    +0.000 NA
ATOM     20  H   UNL     1      -1.269  11.034  23.185  0.00  0.00    +0.000 HD
ATOM     21  H   UNL     1      -0.994  12.624  23.075  0.00  0.00    +0.000 HD
ENDBRANCH  17  19
ENDBRANCH   2  13
BRANCH  11  22
ATOM     22  C   UNL     1       4.365   6.960  17.486  0.00  0.00    +0.000 C 
ATOM     23  C   UNL     1       5.818   6.969  17.087  0.00  0.00    +0.000 C 
ATOM     24  C   UNL     1       4.826   6.273  16.214  0.00  0.00    +0.000 C 
ENDBRANCH  11  22
BRANCH   1  26
ATOM     25  N   UNL     1       2.693   9.645  17.176  0.00  0.00    +0.000 NA
ATOM     26  C   UNL     1       2.458   8.938  18.064  0.00  0.00    +0.000 C 
ENDBRANCH   1  26
BRANCH   7  27
ATOM     27  C   UNL     1       1.871   3.564  21.534  0.00  0.00    +0.000 C 
BRANCH  27  28
ATOM     28  N   UNL     1       2.755   2.466  21.900  0.00  0.00    +0.000 NA
ATOM     29  H   UNL     1       2.227   1.769  22.426  0.00  0.00    +0.000 HD
ATOM     30  H   UNL     1       3.458   2.818  22.554  0.00  0.00    +0.000 HD
ENDBRANCH  27  28
ENDBRANCH   7  27
TORSDOF 6
ENDMDL
MODEL 3
REMARK VINA RESULT:      -6.1      2.667      6.947
REMARK  Name = 
REMARK  6 active torsions:
REMARK  status: ('A' for Active; 'I' for Inactive)
REMARK    1  A    between atoms: C_2  and  C_3
REMARK    2  A    between atoms: C_4  and  N_5
REMARK    3  A    between atoms: C_9  and  N_10
REMARK    4  A    between atoms: C_16  and  C_17
REMARK    5  A    between atoms: C_17  and  N_18
REMARK    6  A    between atoms: N_22  and  C_23
REMARK                            x       y       z     vdW  Elec       q    Type
REMARK                         _______ _______ _______ _____ _____    ______ ____
ROOT
ATOM      1  C   UNL     1       4.094   4.720  17.335  0.00  0.00    +0.000 A 
ATOM      2  C   UNL     1       4.802   5.212  16.195  0.00  0.00    +0.000 A 
ATOM      3  C   UNL     1       4.693   6.585  15.944  0.00  0.00    +0.000 A 
ATOM      4  F   UNL     1       5.331   7.154  14.910  0.00  0.00    +0.000 F 
ATOM      5  C   UNL     1       3.933   7.434  16.748  0.00  0.00    +0.000 A 
ATOM      6  C   UNL     1       3.297   6.969  17.902  0.00  0.00    +0.000 A 
ATOM      7  C   UNL     1       2.542   7.931  18.750  0.00  0.00    +0.000 A 
ATOM      8  C   UNL     1       1.941   7.453  19.842  0.00  0.00    +0.000 A 
ATOM      9  C   UNL     1       2.000   6.050  20.265  0.00  0.00    +0.000 A 
ATOM     10  O   UNL     1       1.378   5.787  21.294  0.00  0.00    +0.000 OA
ATOM     11  N   UNL     1       2.729   5.153  19.478  0.00  0.00    +0.000 N 
ATOM     12  C   UNL     1       3.379   5.592  18.238  0.00  0.00    +0.000 A 
ENDROOT
BRANCH   2  13
ATOM     13  N   UNL     1       5.525   4.334  15.364  0.00  0.00    +0.000 N 
ATOM     14  C   UNL     1       4.982   3.892  14.074  0.00  0.00    +0.000 C 
ATOM     15  C   UNL     1       5.998   4.320  13.059  0.00  0.00    +0.000 C 
ATOM     16  C   UNL     1       7.187   3.440  12.822  0.00  0.00    +0.000 C 
ATOM     17  C   UNL     1       7.283   4.650  13.739  0.00  0.00    +0.000 C 
ATOM     18  C   UNL     1       6.992   4.564  15.241  0.00  0.00    +0.000 C 
BRANCH  17  19
ATOM     19  N   UNL     1       8.181   5.720  13.266  0.00  0.00    +0.000 NA
ATOM     20  H   UNL     1       8.792   6.045  14.015  0.00  0.00    +0.000 HD
ATOM     21  H   UNL     1       7.632   6.542  13.003  0.00  0.00    +0.000 HD
ENDBRANCH  17  19
ENDBRANCH   2  13
BRANCH  11  22
ATOM     22  C   UNL     1       2.855   3.775  19.935  0.00  0.00    +0.000 C 
ATOM     23  C   UNL     1       2.376   3.129  21.209  0.00  0.00    +0.000 C 
ATOM     24  C   UNL     1       1.604   2.916  19.947  0.00  0.00    +0.000 C 
ENDBRANCH  11  22
BRANCH   1  26
ATOM     25  N   UNL     1       4.041   2.123  17.499  0.00  0.00    +0.000 NA
ATOM     26  C   UNL     1       4.067   3.281  17.451  0.00  0.00    +0.000 C 
ENDBRANCH   1  26
BRANCH   7  27
ATOM     27  C   UNL     1       2.354   9.395  18.421  0.00  0.00    +0.000 C 
BRANCH  27  28
ATOM     28  N   UNL     1       1.242   9.647  17.514  0.00  0.00    +0.000 NA
ATOM     29  H   UNL     1       0.848   8.757  17.208  0.00  0.00    +0.000 HD
ATOM     30  H   UNL     1       1.606  10.084  16.665  0.00  0.00    +0.000 HD
ENDBRANCH  27  28
ENDBRANCH   7  27
TORSDOF 6
ENDMDL
MODEL 4
REMARK VINA RESULT:      -6.0      8.632     10.865
REMARK  Name = 
REMARK  6 active torsions:
REMARK  status: ('A' for Active; 'I' for Inactive)
REMARK    1  A    between atoms: C_2  and  C_3
REMARK    2  A    between atoms: C_4  and  N_5
REMARK    3  A    between atoms: C_9  and  N_10
REMARK    4  A    between atoms: C_16  and  C_17
REMARK    5  A    between atoms: C_17  and  N_18
REMARK    6  A    between atoms: N_22  and  C_23
REMARK                            x       y       z     vdW  Elec       q    Type
REMARK                         _______ _______ _______ _____ _____    ______ ____
ROOT
ATOM      1  C   UNL     1       8.040  14.385  20.500  0.00  0.00    +0.000 A 
ATOM      2  C   UNL     1       9.270  13.726  20.194  0.00  0.00    +0.000 A 
ATOM      3  C   UNL     1       9.733  12.806  21.143  0.00  0.00    +0.000 A 
ATOM      4  F   UNL     1      10.868  12.118  20.948  0.00  0.00    +0.000 F 
ATOM      5  C   UNL     1       9.045  12.545  22.328  0.00  0.00    +0.000 A 
ATOM      6  C   UNL     1       7.808  13.136  22.598  0.00  0.00    +0.000 A 
ATOM      7  C   UNL     1       7.095  12.781  23.855  0.00  0.00    +0.000 A 
ATOM      8  C   UNL     1       5.918  13.368  24.086  0.00  0.00    +0.000 A 
ATOM      9  C   UNL     1       5.280  14.317  23.168  0.00  0.00    +0.000 A 
ATOM     10  O   UNL     1       4.199  14.766  23.548  0.00  0.00    +0.000 OA
ATOM     11  N   UNL     1       5.941  14.631  21.977  0.00  0.00    +0.000 N 
ATOM     12  C   UNL     1       7.260  14.063  21.673  0.00  0.00    +0.000 A 
ENDROOT
BRANCH   2  13
ATOM     13  N   UNL     1       9.978  14.036  19.016  0.00  0.00    +0.000 N 
ATOM     14  C   UNL     1      11.253  14.761  19.067  0.00  0.00    +0.000 C 
ATOM     15  C   UNL     1      12.242  13.853  18.402  0.00  0.00    +0.000 C 
ATOM     16  C   UNL     1      12.332  13.867  16.907  0.00  0.00    +0.000 C 
ATOM     17  C   UNL     1      11.522  12.802  17.628  0.00  0.00    +0.000 C 
ATOM     18  C   UNL     1      10.038  12.987  17.959  0.00  0.00    +0.000 C 
BRANCH  17  19
ATOM     19  N   UNL     1      12.035  11.426  17.488  0.00  0.00    +0.000 NA
ATOM     20  H   UNL     1      12.669  11.349  16.693  0.00  0.00    +0.000 HD
ATOM     21  H   UNL     1      11.265  10.790  17.270  0.00  0.00    +0.000 HD
ENDBRANCH  17  19
ENDBRANCH   2  13
BRANCH  11  22
ATOM     22  C   UNL     1       5.276  15.513  21.027  0.00  0.00    +0.000 C 
ATOM     23  C   UNL     1       3.903  16.132  21.077  0.00  0.00    +0.000 C 
ATOM     24  C   UNL     1       5.093  16.968  21.419  0.00  0.00    +0.000 C 
ENDBRANCH  11  22
BRANCH   1  26
ATOM     25  N   UNL     1       7.457  16.347  18.893  0.00  0.00    +0.000 NA
ATOM     26  C   UNL     1       7.695  15.462  19.603  0.00  0.00    +0.000 C 
ENDBRANCH   1  26
BRANCH   7  27
ATOM     27  C   UNL     1       7.646  11.856  24.918  0.00  0.00    +0.000 C 
BRANCH  27  28
ATOM     28  N   UNL     1       8.439  12.542  25.929  0.00  0.00    +0.000 NA
ATOM     29  H   UNL     1       8.969  13.295  25.490  0.00  0.00    +0.000 HD
ATOM     30  H   UNL     1       9.143  11.893  26.287  0.00  0.00    +0.000 HD
ENDBRANCH  27  28
ENDBRANCH   7  27
TORSDOF 6
ENDMDL
MODEL 5
REMARK VINA RESULT:      -5.8      8.283     10.749
REMARK  Name = 
REMARK  6 active torsions:
REMARK  status: ('A' for Active; 'I' for Inactive)
REMARK    1  A    between atoms: C_2  and  C_3
REMARK    2  A    between atoms: C_4  and  N_5
REMARK    3  A    between atoms: C_9  and  N_10
REMARK    4  A    between atoms: C_16  and  C_17
REMARK    5  A    between atoms: C_17  and  N_18
REMARK    6  A    between atoms: N_22  and  C_23
REMARK                            x       y       z     vdW  Elec       q    Type
REMARK                         _______ _______ _______ _____ _____    ______ ____
ROOT
ATOM      1  C   UNL     1       7.645  14.361  20.193  0.00  0.00    +0.000 A 
ATOM      2  C   UNL     1       8.996  13.993  19.909  0.00  0.00    +0.000 A 
ATOM      3  C   UNL     1       9.800  13.689  21.015  0.00  0.00    +0.000 A 
ATOM      4  F   UNL     1      11.079  13.315  20.861  0.00  0.00    +0.000 F 
ATOM      5  C   UNL     1       9.324  13.747  22.324  0.00  0.00    +0.000 A 
ATOM      6  C   UNL     1       7.986  14.039  22.601  0.00  0.00    +0.000 A 
ATOM      7  C   UNL     1       7.522  14.037  24.015  0.00  0.00    +0.000 A 
ATOM      8  C   UNL     1       6.238  14.325  24.245  0.00  0.00    +0.000 A 
ATOM      9  C   UNL     1       5.261  14.620  23.192  0.00  0.00    +0.000 A 
ATOM     10  O   UNL     1       4.124  14.873  23.590  0.00  0.00    +0.000 OA
ATOM     11  N   UNL     1       5.695  14.599  21.864  0.00  0.00    +0.000 N 
ATOM     12  C   UNL     1       7.100  14.336  21.532  0.00  0.00    +0.000 A 
ENDROOT
BRANCH   2  13
ATOM     13  N   UNL     1       9.476  13.986  18.585  0.00  0.00    +0.000 N 
ATOM     14  C   UNL     1      10.473  14.966  18.136  0.00  0.00    +0.000 C 
ATOM     15  C   UNL     1      11.630  14.146  17.651  0.00  0.00    +0.000 C 
ATOM     16  C   UNL     1      11.586  13.601  16.257  0.00  0.00    +0.000 C 
ATOM     17  C   UNL     1      11.198  12.734  17.445  0.00  0.00    +0.000 C 
ATOM     18  C   UNL     1       9.760  12.660  17.968  0.00  0.00    +0.000 C 
BRANCH  17  19
ATOM     19  N   UNL     1      12.088  11.585  17.696  0.00  0.00    +0.000 NA
ATOM     20  H   UNL     1      12.552  11.671  18.600  0.00  0.00    +0.000 HD
ATOM     21  H   UNL     1      12.849  11.580  17.013  0.00  0.00    +0.000 HD
ENDBRANCH  17  19
ENDBRANCH   2  13
BRANCH  11  22
ATOM     22  C   UNL     1       4.711  14.814  20.810  0.00  0.00    +0.000 C 
ATOM     23  C   UNL     1       3.221  15.011  20.902  0.00  0.00    +0.000 C 
ATOM     24  C   UNL     1       4.101  16.197  20.683  0.00  0.00    +0.000 C 
ENDBRANCH  11  22
BRANCH   1  26
ATOM     25  N   UNL     1       6.331  15.219  18.117  0.00  0.00    +0.000 NA
ATOM     26  C   UNL     1       6.904  14.854  19.057  0.00  0.00    +0.000 C 
ENDBRANCH   1  26
BRANCH   7  27
ATOM     27  C   UNL     1       8.420  13.798  25.209  0.00  0.00    +0.000 C 
BRANCH  27  28
ATOM     28  N   UNL     1       8.448  12.408  25.643  0.00  0.00    +0.000 NA
ATOM     29  H   UNL     1       9.100  12.311  26.422  0.00  0.00    +0.000 HD
ATOM     30  H   UNL     1       8.844  11.839  24.892  0.00  0.00    +0.000 HD
ENDBRANCH  27  28
ENDBRANCH   7  27
TORSDOF 6
ENDMDL
MODEL 6
REMARK VINA RESULT:      -5.8      4.531      7.359
REMARK  Name = 
REMARK  6 active torsions:
REMARK  status: ('A' for Active; 'I' for Inactive)
REMARK    1  A    between atoms: C_2  and  C_3
REMARK    2  A    between atoms: C_4  and  N_5
REMARK    3  A    between atoms: C_9  and  N_10
REMARK    4  A    between atoms: C_16  and  C_17
REMARK    5  A    between atoms: C_17  and  N_18
REMARK    6  A    between atoms: N_22  and  C_23
REMARK                            x       y       z     vdW  Elec       q    Type
REMARK                         _______ _______ _______ _____ _____    ______ ____
ROOT
ATOM      1  C   UNL     1      -2.871  12.792  20.498  0.00  0.00    +0.000 A 
ATOM      2  C   UNL     1      -2.053  13.362  21.522  0.00  0.00    +0.000 A 
ATOM      3  C   UNL     1      -0.722  12.927  21.565  0.00  0.00    +0.000 A 
ATOM      4  F   UNL     1       0.136  13.411  22.475  0.00  0.00    +0.000 F 
ATOM      5  C   UNL     1      -0.214  11.986  20.670  0.00  0.00    +0.000 A 
ATOM      6  C   UNL     1      -0.991  11.479  19.626  0.00  0.00    +0.000 A 
ATOM      7  C   UNL     1      -0.380  10.515  18.671  0.00  0.00    +0.000 A 
ATOM      8  C   UNL     1      -1.152  10.046  17.687  0.00  0.00    +0.000 A 
ATOM      9  C   UNL     1      -2.550  10.438  17.481  0.00  0.00    +0.000 A 
ATOM     10  O   UNL     1      -3.111   9.897  16.529  0.00  0.00    +0.000 OA
ATOM     11  N   UNL     1      -3.114  11.361  18.367  0.00  0.00    +0.000 N 
ATOM     12  C   UNL     1      -2.345  11.888  19.500  0.00  0.00    +0.000 A 
ENDROOT
BRANCH   2  13
ATOM     13  N   UNL     1      -2.593  14.275  22.448  0.00  0.00    +0.000 N 
ATOM     14  C   UNL     1      -2.775  13.906  23.857  0.00  0.00    +0.000 C 
ATOM     15  C   UNL     1      -1.977  14.914  24.627  0.00  0.00    +0.000 C 
ATOM     16  C   UNL     1      -2.602  16.241  24.929  0.00  0.00    +0.000 C 
ATOM     17  C   UNL     1      -1.653  16.077  23.752  0.00  0.00    +0.000 C 
ATOM     18  C   UNL     1      -2.143  15.692  22.353  0.00  0.00    +0.000 C 
BRANCH  17  19
ATOM     19  N   UNL     1      -0.387  16.826  23.863  0.00  0.00    +0.000 NA
ATOM     20  H   UNL     1       0.333  16.265  24.316  0.00  0.00    +0.000 HD
ATOM     21  H   UNL     1      -0.514  17.634  24.477  0.00  0.00    +0.000 HD
ENDBRANCH  17  19
ENDBRANCH   2  13
BRANCH  11  22
ATOM     22  C   UNL     1      -4.477  11.814  18.120  0.00  0.00    +0.000 C 
ATOM     23  C   UNL     1      -5.415  11.492  16.986  0.00  0.00    +0.000 C 
ATOM     24  C   UNL     1      -5.600  10.809  18.301  0.00  0.00    +0.000 C 
ENDBRANCH  11  22
BRANCH   1  26
ATOM     25  N   UNL     1      -5.392  13.400  20.715  0.00  0.00    +0.000 NA
ATOM     26  C   UNL     1      -4.275  13.110  20.602  0.00  0.00    +0.000 C 
ENDBRANCH   1  26
BRANCH   7  27
ATOM     27  C   UNL     1       1.031   9.981  18.781  0.00  0.00    +0.000 C 
BRANCH  27  28
ATOM     28  N   UNL     1       1.786  10.082  17.539  0.00  0.00    +0.000 NA
ATOM     29  H   UNL     1       2.131   9.157  17.278  0.00  0.00    +0.000 HD
ATOM     30  H   UNL     1       2.625  10.641  17.712  0.00  0.00    +0.000 HD
ENDBRANCH  27  28
ENDBRANCH   7  27
TORSDOF 6
ENDMDL
MODEL 7
REMARK VINA RESULT:      -5.7      4.731      7.591
REMARK  Name = 
REMARK  6 active torsions:
REMARK  status: ('A' for Active; 'I' for Inactive)
REMARK    1  A    between atoms: C_2  and  C_3
REMARK    2  A    between atoms: C_4  and  N_5
REMARK    3  A    between atoms: C_9  and  N_10
REMARK    4  A    between atoms: C_16  and  C_17
REMARK    5  A    between atoms: C_17  and  N_18
REMARK    6  A    between atoms: N_22  and  C_23
REMARK                            x       y       z     vdW  Elec       q    Type
REMARK                         _______ _______ _______ _____ _____    ______ ____
ROOT
ATOM      1  C   UNL     1      -3.269  12.332  20.480  0.00  0.00    +0.000 A 
ATOM      2  C   UNL     1      -3.476  12.909  21.771  0.00  0.00    +0.000 A 
ATOM      3  C   UNL     1      -2.509  12.617  22.741  0.00  0.00    +0.000 A 
ATOM      4  F   UNL     1      -2.597  13.120  23.981  0.00  0.00    +0.000 F 
ATOM      5  C   UNL     1      -1.407  11.803  22.477  0.00  0.00    +0.000 A 
ATOM      6  C   UNL     1      -1.166  11.295  21.199  0.00  0.00    +0.000 A 
ATOM      7  C   UNL     1       0.053  10.475  20.964  0.00  0.00    +0.000 A 
ATOM      8  C   UNL     1       0.252  10.000  19.732  0.00  0.00    +0.000 A 
ATOM      9  C   UNL     1      -0.644  10.255  18.599  0.00  0.00    +0.000 A 
ATOM     10  O   UNL     1      -0.309   9.729  17.538  0.00  0.00    +0.000 OA
ATOM     11  N   UNL     1      -1.777  11.045  18.818  0.00  0.00    +0.000 N 
ATOM     12  C   UNL     1      -2.088  11.566  20.154  0.00  0.00    +0.000 A 
ENDROOT
BRANCH   2  13
ATOM     13  N   UNL     1      -4.619  13.688  22.036  0.00  0.00    +0.000 N 
ATOM     14  C   UNL     1      -5.763  13.130  22.766  0.00  0.00    +0.000 C 
ATOM     15  C   UNL     1      -5.932  14.021  23.959  0.00  0.00    +0.000 C 
ATOM     16  C   UNL     1      -6.700  15.296  23.797  0.00  0.00    +0.000 C 
ATOM     17  C   UNL     1      -5.180  15.291  23.752  0.00  0.00    +0.000 C 
ATOM     18  C   UNL     1      -4.400  15.104  22.446  0.00  0.00    +0.000 C 
BRANCH  17  19
ATOM     19  N   UNL     1      -4.521  16.015  24.856  0.00  0.00    +0.000 NA
ATOM     20  H   UNL     1      -3.541  16.197  24.642  0.00  0.00    +0.000 HD
ATOM     21  H   UNL     1      -4.500  15.427  25.692  0.00  0.00    +0.000 HD
ENDBRANCH  17  19
ENDBRANCH   2  13
BRANCH  11  22
ATOM     22  C   UNL     1      -2.627  11.367  17.679  0.00  0.00    +0.000 C 
ATOM     23  C   UNL     1      -2.502  10.965  16.232  0.00  0.00    +0.000 C 
ATOM     24  C   UNL     1      -3.488  10.258  17.103  0.00  0.00    +0.000 C 
ENDBRANCH  11  22
BRANCH   1  26
ATOM     25  N   UNL     1      -5.282  12.648  18.861  0.00  0.00    +0.000 NA
ATOM     26  C   UNL     1      -4.376  12.490  19.566  0.00  0.00    +0.000 C 
ENDBRANCH   1  26
BRANCH   7  27
ATOM     27  C   UNL     1       1.044  10.088  22.040  0.00  0.00    +0.000 C 
BRANCH  27  28
ATOM     28  N   UNL     1       1.493   8.706  21.944  0.00  0.00    +0.000 NA
ATOM     29  H   UNL     1       0.784   8.153  21.462  0.00  0.00    +0.000 HD
ATOM     30  H   UNL     1       1.543   8.313  22.887  0.00  0.00    +0.000 HD
ENDBRANCH  27  28
ENDBRANCH   7  27
TORSDOF 6
ENDMDL
MODEL 8
REMARK VINA RESULT:      -5.7      5.435      7.959
REMARK  Name = 
REMARK  6 active torsions:
REMARK  status: ('A' for Active; 'I' for Inactive)
REMARK    1  A    between atoms: C_2  and  C_3
REMARK    2  A    between atoms: C_4  and  N_5
REMARK    3  A    between atoms: C_9  and  N_10
REMARK    4  A    between atoms: C_16  and  C_17
REMARK    5  A    between atoms: C_17  and  N_18
REMARK    6  A    between atoms: N_22  and  C_23
REMARK                            x       y       z     vdW  Elec       q    Type
REMARK                         _______ _______ _______ _____ _____    ______ ____
ROOT
ATOM      1  C   UNL     1      -3.208  12.628  20.691  0.00  0.00    +0.000 A 
ATOM      2  C   UNL     1      -4.572  13.050  20.759  0.00  0.00    +0.000 A 
ATOM      3  C   UNL     1      -5.368  12.750  19.647  0.00  0.00    +0.000 A 
ATOM      4  F   UNL     1      -6.666  13.085  19.613  0.00  0.00    +0.000 F 
ATOM      5  C   UNL     1      -4.869  12.084  18.528  0.00  0.00    +0.000 A 
ATOM      6  C   UNL     1      -3.556  11.609  18.487  0.00  0.00    +0.000 A 
ATOM      7  C   UNL     1      -3.093  10.861  17.287  0.00  0.00    +0.000 A 
ATOM      8  C   UNL     1      -1.831  10.426  17.278  0.00  0.00    +0.000 A 
ATOM      9  C   UNL     1      -0.887  10.620  18.384  0.00  0.00    +0.000 A 
ATOM     10  O   UNL     1       0.239  10.159  18.198  0.00  0.00    +0.000 OA
ATOM     11  N   UNL     1      -1.332  11.304  19.519  0.00  0.00    +0.000 N 
ATOM     12  C   UNL     1      -2.691  11.853  19.586  0.00  0.00    +0.000 A 
ENDROOT
BRANCH   2  13
ATOM     13  N   UNL     1      -5.049  13.764  21.875  0.00  0.00    +0.000 N 
ATOM     14  C   UNL     1      -5.928  14.928  21.711  0.00  0.00    +0.000 C 
ATOM     15  C   UNL     1      -7.170  14.586  22.475  0.00  0.00    +0.000 C 
ATOM     16  C   UNL     1      -7.187  14.824  23.954  0.00  0.00    +0.000 C 
ATOM     17  C   UNL     1      -6.901  13.441  23.391  0.00  0.00    +0.000 C 
ATOM     18  C   UNL     1      -5.481  12.970  23.060  0.00  0.00    +0.000 C 
BRANCH  17  19
ATOM     19  N   UNL     1      -7.915  12.417  23.704  0.00  0.00    +0.000 NA
ATOM     20  H   UNL     1      -8.517  12.239  22.900  0.00  0.00    +0.000 HD
ATOM     21  H   UNL     1      -8.546  12.764  24.430  0.00  0.00    +0.000 HD
ENDBRANCH  17  19
ENDBRANCH   2  13
BRANCH  11  22
ATOM     22  C   UNL     1      -0.423  11.431  20.652  0.00  0.00    +0.000 C 
ATOM     23  C   UNL     1       0.937  10.823  20.875  0.00  0.00    +0.000 C 
ATOM     24  C   UNL     1       0.838  12.253  20.458  0.00  0.00    +0.000 C 
ENDBRANCH  11  22
BRANCH   1  26
ATOM     25  N   UNL     1      -1.676  13.477  22.616  0.00  0.00    +0.000 NA
ATOM     26  C   UNL     1      -2.372  13.121  21.760  0.00  0.00    +0.000 C 
ENDBRANCH   1  26
BRANCH   7  27
ATOM     27  C   UNL     1      -3.934  10.622  16.052  0.00  0.00    +0.000 C 
BRANCH  27  28
ATOM     28  N   UNL     1      -3.145  10.433  14.842  0.00  0.00    +0.000 NA
ATOM     29  H   UNL     1      -3.276  11.235  14.225  0.00  0.00    +0.000 HD
ATOM     30  H   UNL     1      -3.524   9.635  14.328  0.00  0.00    +0.000 HD
ENDBRANCH  27  28
ENDBRANCH   7  27
TORSDOF 6
ENDMDL
MODEL 9
REMARK VINA RESULT:      -5.6      8.171     10.314
REMARK  Name = 
REMARK  6 active torsions:
REMARK  status: ('A' for Active; 'I' for Inactive)
REMARK    1  A    between atoms: C_2  and  C_3
REMARK    2  A    between atoms: C_4  and  N_5
REMARK    3  A    between atoms: C_9  and  N_10
REMARK    4  A    between atoms: C_16  and  C_17
REMARK    5  A    between atoms: C_17  and  N_18
REMARK    6  A    between atoms: N_22  and  C_23
REMARK                            x       y       z     vdW  Elec       q    Type
REMARK                         _______ _______ _______ _____ _____    ______ ____
ROOT
ATOM      1  C   UNL     1       8.200  13.875  20.818  0.00  0.00    +0.000 A 
ATOM      2  C   UNL     1       8.576  14.284  19.501  0.00  0.00    +0.000 A 
ATOM      3  C   UNL     1       7.630  15.035  18.792  0.00  0.00    +0.000 A 
ATOM      4  F   UNL     1       7.887  15.485  17.555  0.00  0.00    +0.000 F 
ATOM      5  C   UNL     1       6.385  15.365  19.327  0.00  0.00    +0.000 A 
ATOM      6  C   UNL     1       6.041  15.026  20.638  0.00  0.00    +0.000 A 
ATOM      7  C   UNL     1       4.718  15.449  21.172  0.00  0.00    +0.000 A 
ATOM      8  C   UNL     1       4.419  15.104  22.427  0.00  0.00    +0.000 A 
ATOM      9  C   UNL     1       5.320  14.358  23.311  0.00  0.00    +0.000 A 
ATOM     10  O   UNL     1       4.874  14.120  24.433  0.00  0.00    +0.000 OA
ATOM     11  N   UNL     1       6.572  13.982  22.814  0.00  0.00    +0.000 N 
ATOM     12  C   UNL     1       6.956  14.284  21.430  0.00  0.00    +0.000 A 
ENDROOT
BRANCH   2  13
ATOM     13  N   UNL     1       9.817  13.902  18.957  0.00  0.00    +0.000 N 
ATOM     14  C   UNL     1       9.918  12.784  18.010  0.00  0.00    +0.000 C 
ATOM     15  C   UNL     1      10.527  13.376  16.776  0.00  0.00    +0.000 C 
ATOM     16  C   UNL     1      12.017  13.520  16.713  0.00  0.00    +0.000 C 
ATOM     17  C   UNL     1      11.136  14.699  17.097  0.00  0.00    +0.000 C 
ATOM     18  C   UNL     1      10.749  14.991  18.551  0.00  0.00    +0.000 C 
BRANCH  17  19
ATOM     19  N   UNL     1      11.146  15.823  16.142  0.00  0.00    +0.000 NA
ATOM     20  H   UNL     1      12.078  16.226  16.059  0.00  0.00    +0.000 HD
ATOM     21  H   UNL     1      10.563  16.584  16.497  0.00  0.00    +0.000 HD
ENDBRANCH  17  19
ENDBRANCH   2  13
BRANCH  11  22
ATOM     22  C   UNL     1       7.501  13.310  23.713  0.00  0.00    +0.000 C 
ATOM     23  C   UNL     1       7.345  12.934  25.163  0.00  0.00    +0.000 C 
ATOM     24  C   UNL     1       7.186  11.881  24.116  0.00  0.00    +0.000 C 
ENDBRANCH  11  22
BRANCH   1  26
ATOM     25  N   UNL     1       9.867  12.198  21.904  0.00  0.00    +0.000 NA
ATOM     26  C   UNL     1       9.109  12.944  21.441  0.00  0.00    +0.000 C 
ENDBRANCH   1  26
BRANCH   7  27
ATOM     27  C   UNL     1       3.666  16.181  20.368  0.00  0.00    +0.000 C 
BRANCH  27  28
ATOM     28  N   UNL     1       2.740  15.291  19.680  0.00  0.00    +0.000 NA
ATOM     29  H   UNL     1       3.120  15.053  18.763  0.00  0.00    +0.000 HD
ATOM     30  H   UNL     1       1.878  15.805  19.487  0.00  0.00    +0.000 HD
ENDBRANCH  27  28
ENDBRANCH   7  27
TORSDOF 6
ENDMDL
