MODEL 1
REMARK VINA RESULT:      -9.6      0.000      0.000
REMARK  Name = 
REMARK  4 active torsions:
REMARK  status: ('A' for Active; 'I' for Inactive)
REMARK    1  A    between atoms: C_2  and  C_4
REMARK    2  A    between atoms: C_9  and  C_10
REMARK    3  A    between atoms: C_13  and  C_14
REMARK    4  A    between atoms: C_19  and  C_20
REMARK                            x       y       z     vdW  Elec       q    Type
REMARK                         _______ _______ _______ _____ _____    ______ ____
ROOT
ATOM      1  C   UNL     1       2.272   7.948  18.660  0.00  0.00    +0.000 A 
ATOM      2  C   UNL     1       1.786   9.091  18.027  0.00  0.00    +0.000 A 
ATOM      3  C   UNL     1       0.964   9.989  18.717  0.00  0.00    +0.000 A 
ATOM      4  C   UNL     1       0.601   9.766  20.053  0.00  0.00    +0.000 A 
ATOM      5  C   UNL     1       1.095   8.629  20.694  0.00  0.00    +0.000 A 
ATOM      6  C   UNL     1       1.917   7.730  20.001  0.00  0.00    +0.000 A 
ENDROOT
BRANCH   1  12
ATOM      7  C   UNL     1       6.007   4.761  15.103  0.00  0.00    +0.000 A 
ATOM      8  C   UNL     1       5.695   3.695  15.954  0.00  0.00    +0.000 A 
ATOM      9  C   UNL     1       4.840   3.880  17.044  0.00  0.00    +0.000 A 
ATOM     10  C   UNL     1       4.279   5.149  17.268  0.00  0.00    +0.000 A 
ATOM     11  C   UNL     1       3.379   5.661  18.235  0.00  0.00    +0.000 A 
ATOM     12  C   UNL     1       3.149   6.999  17.968  0.00  0.00    +0.000 A 
ATOM     13  N   UNL     1       3.924   7.310  16.868  0.00  0.00    +0.000 N 
ATOM     14  C   UNL     1       4.612   6.202  16.420  0.00  0.00    +0.000 A 
ATOM     15  C   UNL     1       5.491   6.049  15.335  0.00  0.00    +0.000 A 
ATOM     16  H   UNL     1       3.959   8.215  16.422  0.00  0.00    +0.000 HD
BRANCH   7  18
ATOM     17  N   UNL     1       6.666   3.503  13.158  0.00  0.00    +0.000 NA
ATOM     18  C   UNL     1       6.896   4.512  13.930  0.00  0.00    +0.000 C 
ATOM     19  N   UNL     1       7.960   5.340  13.688  0.00  0.00    +0.000 N 
ATOM     20  H   UNL     1       7.334   3.505  12.385  0.00  0.00    +0.000 HD
ATOM     21  H   UNL     1       8.696   4.946  13.117  0.00  0.00    +0.000 HD
ATOM     22  H   UNL     1       8.338   5.800  14.512  0.00  0.00    +0.000 HD
ENDBRANCH   7  18
ENDBRANCH   1  12
BRANCH   4  23
ATOM     23  C   UNL     1      -0.342  10.676  20.705  0.00  0.00    +0.000 A 
ATOM     24  C   UNL     1      -1.072  11.706  20.138  0.00  0.00    +0.000 A 
ATOM     25  C   UNL     1      -1.881  12.296  21.135  0.00  0.00    +0.000 A 
ATOM     26  C   UNL     1      -2.816  13.342  21.115  0.00  0.00    +0.000 A 
ATOM     27  C   UNL     1      -3.474  13.689  22.296  0.00  0.00    +0.000 A 
ATOM     28  C   UNL     1      -3.207  13.010  23.488  0.00  0.00    +0.000 A 
ATOM     29  C   UNL     1      -2.269  11.959  23.529  0.00  0.00    +0.000 A 
ATOM     30  C   UNL     1      -1.622  11.624  22.327  0.00  0.00    +0.000 A 
ATOM     31  N   UNL     1      -0.682  10.651  22.042  0.00  0.00    +0.000 N 
ATOM     32  H   UNL     1      -0.292  10.016  22.724  0.00  0.00    +0.000 HD
BRANCH  28  33
ATOM     33  C   UNL     1      -3.958  13.412  24.713  0.00  0.00    +0.000 C 
ATOM     34  N   UNL     1      -4.583  12.566  25.467  0.00  0.00    +0.000 NA
ATOM     35  N   UNL     1      -4.012  14.722  25.087  0.00  0.00    +0.000 N 
ATOM     36  H   UNL     1      -4.440  11.606  25.144  0.00  0.00    +0.000 HD
ATOM     37  H   UNL     1      -4.051  15.404  24.339  0.00  0.00    +0.000 HD
ATOM     38  H   UNL     1      -4.722  14.872  25.798  0.00  0.00    +0.000 HD
ENDBRANCH  28  33
ENDBRANCH   4  23
TORSDOF 4
ENDMDL
MODEL 2
REMARK VINA RESULT:      -9.6      0.787      1.334
REMARK  Name = 
REMARK  4 active torsions:
REMARK  status: ('A' for Active; 'I' for Inactive)
REMARK    1  A    between atoms: C_2  and  C_4
REMARK    2  A    between atoms: C_9  and  C_10
REMARK    3  A    between atoms: C_13  and  C_14
REMARK    4  A    between atoms: C_19  and  C_20
REMARK                            x       y       z     vdW  Elec       q    Type
REMARK                         _______ _______ _______ _____ _____    ______ ____
ROOT
ATOM      1  C   UNL     1       2.286   7.937  18.933  0.00  0.00    +0.000 A 
ATOM      2  C   UNL     1       1.921   7.713  20.261  0.00  0.00    +0.000 A 
ATOM      3  C   UNL     1       1.154   8.656  20.954  0.00  0.00    +0.000 A 
ATOM      4  C   UNL     1       0.738   9.848  20.344  0.00  0.00    +0.000 A 
ATOM      5  C   UNL     1       1.091  10.071  19.012  0.00  0.00    +0.000 A 
ATOM      6  C   UNL     1       1.861   9.126  18.320  0.00  0.00    +0.000 A 
ENDROOT
BRANCH   1  12
ATOM      7  C   UNL     1       5.783   4.679  15.204  0.00  0.00    +0.000 A 
ATOM      8  C   UNL     1       5.291   3.580  15.915  0.00  0.00    +0.000 A 
ATOM      9  C   UNL     1       4.406   3.760  16.981  0.00  0.00    +0.000 A 
ATOM     10  C   UNL     1       3.998   5.061  17.322  0.00  0.00    +0.000 A 
ATOM     11  C   UNL     1       3.117   5.582  18.302  0.00  0.00    +0.000 A 
ATOM     12  C   UNL     1       3.073   6.959  18.177  0.00  0.00    +0.000 A 
ATOM     13  N   UNL     1       3.942   7.280  17.152  0.00  0.00    +0.000 N 
ATOM     14  C   UNL     1       4.509   6.144  16.612  0.00  0.00    +0.000 A 
ATOM     15  C   UNL     1       5.422   5.992  15.556  0.00  0.00    +0.000 A 
ATOM     16  H   UNL     1       4.117   8.214  16.812  0.00  0.00    +0.000 HD
BRANCH   7  18
ATOM     17  N   UNL     1       6.477   3.447  13.254  0.00  0.00    +0.000 NA
ATOM     18  C   UNL     1       6.698   4.440  14.048  0.00  0.00    +0.000 C 
ATOM     19  N   UNL     1       7.777   5.261  13.848  0.00  0.00    +0.000 N 
ATOM     20  H   UNL     1       7.164   3.455  12.498  0.00  0.00    +0.000 HD
ATOM     21  H   UNL     1       8.523   4.869  13.288  0.00  0.00    +0.000 HD
ATOM     22  H   UNL     1       8.139   5.703  14.688  0.00  0.00    +0.000 HD
ENDBRANCH   7  18
ENDBRANCH   1  12
BRANCH   4  23
ATOM     23  C   UNL     1       0.025  10.852  21.136  0.00  0.00    +0.000 A 
ATOM     24  C   UNL     1       0.331  12.192  21.297  0.00  0.00    +0.000 A 
ATOM     25  C   UNL     1      -0.652  12.789  22.120  0.00  0.00    +0.000 A 
ATOM     26  C   UNL     1      -0.847  14.100  22.582  0.00  0.00    +0.000 A 
ATOM     27  C   UNL     1      -1.950  14.378  23.392  0.00  0.00    +0.000 A 
ATOM     28  C   UNL     1      -2.849  13.368  23.745  0.00  0.00    +0.000 A 
ATOM     29  C   UNL     1      -2.667  12.046  23.294  0.00  0.00    +0.000 A 
ATOM     30  C   UNL     1      -1.554  11.789  22.476  0.00  0.00    +0.000 A 
ATOM     31  N   UNL     1      -1.118  10.624  21.873  0.00  0.00    +0.000 N 
ATOM     32  H   UNL     1      -1.574   9.726  21.968  0.00  0.00    +0.000 HD
BRANCH  28  33
ATOM     33  C   UNL     1      -4.020  13.731  24.595  0.00  0.00    +0.000 C 
ATOM     34  N   UNL     1      -4.354  14.955  24.851  0.00  0.00    +0.000 NA
ATOM     35  N   UNL     1      -4.798  12.756  25.147  0.00  0.00    +0.000 N 
ATOM     36  H   UNL     1      -3.753  15.615  24.351  0.00  0.00    +0.000 HD
ATOM     37  H   UNL     1      -4.322  11.912  25.443  0.00  0.00    +0.000 HD
ATOM     38  H   UNL     1      -5.411  13.137  25.862  0.00  0.00    +0.000 HD
ENDBRANCH  28  33
ENDBRANCH   4  23
TORSDOF 4
ENDMDL
MODEL 3
REMARK VINA RESULT:      -9.4      1.012     12.054
REMARK  Name = 
REMARK  4 active torsions:
REMARK  status: ('A' for Active; 'I' for Inactive)
REMARK    1  A    between atoms: C_2  and  C_4
REMARK    2  A    between atoms: C_9  and  C_10
REMARK    3  A    between atoms: C_13  and  C_14
REMARK    4  A    between atoms: C_19  and  C_20
REMARK                            x       y       z     vdW  Elec       q    Type
REMARK                         _______ _______ _______ _____ _____    ______ ____
ROOT
ATOM      1  C   UNL     1       0.639  10.143  20.544  0.00  0.00    +0.000 A 
ATOM      2  C   UNL     1       0.956  10.321  19.198  0.00  0.00    +0.000 A 
ATOM      3  C   UNL     1       1.634   9.322  18.490  0.00  0.00    +0.000 A 
ATOM      4  C   UNL     1       2.019   8.124  19.109  0.00  0.00    +0.000 A 
ATOM      5  C   UNL     1       1.693   7.937  20.453  0.00  0.00    +0.000 A 
ATOM      6  C   UNL     1       1.016   8.940  21.161  0.00  0.00    +0.000 A 
ENDROOT
BRANCH   1  12
ATOM      7  C   UNL     1      -3.134  13.710  23.673  0.00  0.00    +0.000 A 
ATOM      8  C   UNL     1      -2.134  14.677  23.524  0.00  0.00    +0.000 A 
ATOM      9  C   UNL     1      -0.942  14.372  22.861  0.00  0.00    +0.000 A 
ATOM     10  C   UNL     1      -0.764  13.084  22.328  0.00  0.00    +0.000 A 
ATOM     11  C   UNL     1       0.281  12.467  21.597  0.00  0.00    +0.000 A 
ATOM     12  C   UNL     1      -0.085  11.165  21.306  0.00  0.00    +0.000 A 
ATOM     13  N   UNL     1      -1.327  10.978  21.880  0.00  0.00    +0.000 N 
ATOM     14  C   UNL     1      -1.764  12.130  22.499  0.00  0.00    +0.000 A 
ATOM     15  C   UNL     1      -2.958  12.403  23.185  0.00  0.00    +0.000 A 
ATOM     16  H   UNL     1      -1.867  10.126  21.827  0.00  0.00    +0.000 HD
BRANCH   7  18
ATOM     17  N   UNL     1      -4.616  15.321  24.681  0.00  0.00    +0.000 NA
ATOM     18  C   UNL     1      -4.407  14.088  24.355  0.00  0.00    +0.000 C 
ATOM     19  N   UNL     1      -5.338  13.128  24.651  0.00  0.00    +0.000 N 
ATOM     20  H   UNL     1      -5.545  15.412  25.093  0.00  0.00    +0.000 HD
ATOM     21  H   UNL     1      -5.991  13.366  25.386  0.00  0.00    +0.000 HD
ATOM     22  H   UNL     1      -4.959  12.193  24.782  0.00  0.00    +0.000 HD
ENDBRANCH   7  18
ENDBRANCH   1  12
BRANCH   4  23
ATOM     23  C   UNL     1       2.815   7.150  18.361  0.00  0.00    +0.000 A 
ATOM     24  C   UNL     1       2.789   5.770  18.453  0.00  0.00    +0.000 A 
ATOM     25  C   UNL     1       3.701   5.232  17.516  0.00  0.00    +0.000 A 
ATOM     26  C   UNL     1       4.057   3.919  17.170  0.00  0.00    +0.000 A 
ATOM     27  C   UNL     1       5.008   3.714  16.169  0.00  0.00    +0.000 A 
ATOM     28  C   UNL     1       5.605   4.797  15.519  0.00  0.00    +0.000 A 
ATOM     29  C   UNL     1       5.264   6.122  15.855  0.00  0.00    +0.000 A 
ATOM     30  C   UNL     1       4.300   6.305  16.861  0.00  0.00    +0.000 A 
ATOM     31  N   UNL     1       3.752   7.456  17.395  0.00  0.00    +0.000 N 
ATOM     32  H   UNL     1       4.011   8.394  17.120  0.00  0.00    +0.000 HD
BRANCH  28  33
ATOM     33  C   UNL     1       6.599   4.513  14.443  0.00  0.00    +0.000 C 
ATOM     34  N   UNL     1       6.472   3.537  13.603  0.00  0.00    +0.000 NA
ATOM     35  N   UNL     1       7.707   5.298  14.306  0.00  0.00    +0.000 N 
ATOM     36  H   UNL     1       5.588   3.041  13.744  0.00  0.00    +0.000 HD
ATOM     37  H   UNL     1       8.118   5.651  15.161  0.00  0.00    +0.000 HD
ATOM     38  H   UNL     1       8.387   4.866  13.688  0.00  0.00    +0.000 HD
ENDBRANCH  28  33
ENDBRANCH   4  23
TORSDOF 4
ENDMDL
MODEL 4
REMARK VINA RESULT:      -9.4      0.958      1.180
REMARK  Name = 
REMARK  4 active torsions:
REMARK  status: ('A' for Active; 'I' for Inactive)
REMARK    1  A    between atoms: C_2  and  C_4
REMARK    2  A    between atoms: C_9  and  C_10
REMARK    3  A    between atoms: C_13  and  C_14
REMARK    4  A    between atoms: C_19  and  C_20
REMARK                            x       y       z     vdW  Elec       q    Type
REMARK                         _______ _______ _______ _____ _____    ______ ____
ROOT
ATOM      1  C   UNL     1       1.831   8.355  18.933  0.00  0.00    +0.000 A 
ATOM      2  C   UNL     1       1.387   9.466  18.216  0.00  0.00    +0.000 A 
ATOM      3  C   UNL     1       0.588  10.435  18.832  0.00  0.00    +0.000 A 
ATOM      4  C   UNL     1       0.206  10.317  20.177  0.00  0.00    +0.000 A 
ATOM      5  C   UNL     1       0.658   9.214  20.901  0.00  0.00    +0.000 A 
ATOM      6  C   UNL     1       1.457   8.243  20.281  0.00  0.00    +0.000 A 
ENDROOT
BRANCH   1  12
ATOM      7  C   UNL     1       5.643   4.872  15.756  0.00  0.00    +0.000 A 
ATOM      8  C   UNL     1       5.097   3.822  16.502  0.00  0.00    +0.000 A 
ATOM      9  C   UNL     1       4.124   4.069  17.474  0.00  0.00    +0.000 A 
ATOM     10  C   UNL     1       3.685   5.388  17.684  0.00  0.00    +0.000 A 
ATOM     11  C   UNL     1       2.722   5.969  18.546  0.00  0.00    +0.000 A 
ATOM     12  C   UNL     1       2.683   7.333  18.318  0.00  0.00    +0.000 A 
ATOM     13  N   UNL     1       3.634   7.587  17.349  0.00  0.00    +0.000 N 
ATOM     14  C   UNL     1       4.249   6.421  16.943  0.00  0.00    +0.000 A 
ATOM     15  C   UNL     1       5.248   6.203  15.980  0.00  0.00    +0.000 A 
ATOM     16  H   UNL     1       3.833   8.497  16.958  0.00  0.00    +0.000 HD
BRANCH   7  18
ATOM     17  N   UNL     1       7.761   5.220  14.663  0.00  0.00    +0.000 NA
ATOM     18  C   UNL     1       6.652   4.559  14.701  0.00  0.00    +0.000 C 
ATOM     19  N   UNL     1       6.392   3.589  13.770  0.00  0.00    +0.000 N 
ATOM     20  H   UNL     1       8.351   4.852  13.915  0.00  0.00    +0.000 HD
ATOM     21  H   UNL     1       6.926   3.654  12.913  0.00  0.00    +0.000 HD
ATOM     22  H   UNL     1       5.405   3.436  13.578  0.00  0.00    +0.000 HD
ENDBRANCH   7  18
ENDBRANCH   1  12
BRANCH   4  23
ATOM     23  C   UNL     1      -0.713  11.300  20.753  0.00  0.00    +0.000 A 
ATOM     24  C   UNL     1      -1.724  12.003  20.121  0.00  0.00    +0.000 A 
ATOM     25  C   UNL     1      -2.380  12.815  21.074  0.00  0.00    +0.000 A 
ATOM     26  C   UNL     1      -3.467  13.699  20.993  0.00  0.00    +0.000 A 
ATOM     27  C   UNL     1      -3.894  14.360  22.146  0.00  0.00    +0.000 A 
ATOM     28  C   UNL     1      -3.248  14.152  23.368  0.00  0.00    +0.000 A 
ATOM     29  C   UNL     1      -2.152  13.272  23.468  0.00  0.00    +0.000 A 
ATOM     30  C   UNL     1      -1.744  12.614  22.296  0.00  0.00    +0.000 A 
ATOM     31  N   UNL     1      -0.733  11.696  22.074  0.00  0.00    +0.000 N 
ATOM     32  H   UNL     1      -0.092  11.369  22.784  0.00  0.00    +0.000 HD
BRANCH  28  33
ATOM     33  C   UNL     1      -3.763  14.871  24.569  0.00  0.00    +0.000 C 
ATOM     34  N   UNL     1      -4.836  15.595  24.554  0.00  0.00    +0.000 NA
ATOM     35  N   UNL     1      -3.100  14.785  25.759  0.00  0.00    +0.000 N 
ATOM     36  H   UNL     1      -5.296  15.554  23.641  0.00  0.00    +0.000 HD
ATOM     37  H   UNL     1      -2.090  14.740  25.709  0.00  0.00    +0.000 HD
ATOM     38  H   UNL     1      -3.434  15.484  26.415  0.00  0.00    +0.000 HD
ENDBRANCH  28  33
ENDBRANCH   4  23
TORSDOF 4
ENDMDL
MODEL 5
REMARK VINA RESULT:      -9.4      1.095      1.582
REMARK  Name = 
REMARK  4 active torsions:
REMARK  status: ('A' for Active; 'I' for Inactive)
REMARK    1  A    between atoms: C_2  and  C_4
REMARK    2  A    between atoms: C_9  and  C_10
REMARK    3  A    between atoms: C_13  and  C_14
REMARK    4  A    between atoms: C_19  and  C_20
REMARK                            x       y       z     vdW  Elec       q    Type
REMARK                         _______ _______ _______ _____ _____    ______ ____
ROOT
ATOM      1  C   UNL     1       1.828   8.333  18.972  0.00  0.00    +0.000 A 
ATOM      2  C   UNL     1       1.498   8.259  20.325  0.00  0.00    +0.000 A 
ATOM      3  C   UNL     1       0.671   9.226  20.908  0.00  0.00    +0.000 A 
ATOM      4  C   UNL     1       0.160  10.295  20.159  0.00  0.00    +0.000 A 
ATOM      5  C   UNL     1       0.477  10.367  18.801  0.00  0.00    +0.000 A 
ATOM      6  C   UNL     1       1.306   9.398  18.219  0.00  0.00    +0.000 A 
ENDROOT
BRANCH   1  12
ATOM      7  C   UNL     1       5.635   4.924  15.710  0.00  0.00    +0.000 A 
ATOM      8  C   UNL     1       5.077   3.855  16.420  0.00  0.00    +0.000 A 
ATOM      9  C   UNL     1       4.100   4.079  17.394  0.00  0.00    +0.000 A 
ATOM     10  C   UNL     1       3.668   5.393  17.642  0.00  0.00    +0.000 A 
ATOM     11  C   UNL     1       2.704   5.954  18.516  0.00  0.00    +0.000 A 
ATOM     12  C   UNL     1       2.677   7.325  18.330  0.00  0.00    +0.000 A 
ATOM     13  N   UNL     1       3.635   7.603  17.376  0.00  0.00    +0.000 N 
ATOM     14  C   UNL     1       4.244   6.446  16.937  0.00  0.00    +0.000 A 
ATOM     15  C   UNL     1       5.248   6.250  15.974  0.00  0.00    +0.000 A 
ATOM     16  H   UNL     1       3.843   8.522  17.015  0.00  0.00    +0.000 HD
BRANCH   7  18
ATOM     17  N   UNL     1       7.703   5.378  14.561  0.00  0.00    +0.000 NA
ATOM     18  C   UNL     1       6.649   4.637  14.653  0.00  0.00    +0.000 C 
ATOM     19  N   UNL     1       6.449   3.606  13.774  0.00  0.00    +0.000 N 
ATOM     20  H   UNL     1       8.308   5.019  13.821  0.00  0.00    +0.000 HD
ATOM     21  H   UNL     1       6.964   3.668  12.906  0.00  0.00    +0.000 HD
ATOM     22  H   UNL     1       5.474   3.369  13.609  0.00  0.00    +0.000 HD
ENDBRANCH   7  18
ENDBRANCH   1  12
BRANCH   4  23
ATOM     23  C   UNL     1      -0.616  11.339  20.829  0.00  0.00    +0.000 A 
ATOM     24  C   UNL     1      -1.704  12.045  20.345  0.00  0.00    +0.000 A 
ATOM     25  C   UNL     1      -2.159  12.929  21.350  0.00  0.00    +0.000 A 
ATOM     26  C   UNL     1      -3.220  13.846  21.410  0.00  0.00    +0.000 A 
ATOM     27  C   UNL     1      -3.417  14.581  22.580  0.00  0.00    +0.000 A 
ATOM     28  C   UNL     1      -2.570  14.415  23.679  0.00  0.00    +0.000 A 
ATOM     29  C   UNL     1      -1.498  13.502  23.636  0.00  0.00    +0.000 A 
ATOM     30  C   UNL     1      -1.321  12.769  22.451  0.00  0.00    +0.000 A 
ATOM     31  N   UNL     1      -0.391  11.805  22.108  0.00  0.00    +0.000 N 
ATOM     32  H   UNL     1       0.357  11.493  22.712  0.00  0.00    +0.000 HD
BRANCH  28  33
ATOM     33  C   UNL     1      -2.845  15.214  24.908  0.00  0.00    +0.000 C 
ATOM     34  N   UNL     1      -1.966  15.403  25.839  0.00  0.00    +0.000 NA
ATOM     35  N   UNL     1      -4.069  15.787  25.097  0.00  0.00    +0.000 N 
ATOM     36  H   UNL     1      -1.065  14.988  25.587  0.00  0.00    +0.000 HD
ATOM     37  H   UNL     1      -4.868  15.265  24.759  0.00  0.00    +0.000 HD
ATOM     38  H   UNL     1      -4.180  16.108  26.054  0.00  0.00    +0.000 HD
ENDBRANCH  28  33
ENDBRANCH   4  23
TORSDOF 4
ENDMDL
MODEL 6
REMARK VINA RESULT:      -9.3      1.066      1.242
REMARK  Name = 
REMARK  4 active torsions:
REMARK  status: ('A' for Active; 'I' for Inactive)
REMARK    1  A    between atoms: C_2  and  C_4
REMARK    2  A    between atoms: C_9  and  C_10
REMARK    3  A    between atoms: C_13  and  C_14
REMARK    4  A    between atoms: C_19  and  C_20
REMARK                            x       y       z     vdW  Elec       q    Type
REMARK                         _______ _______ _______ _____ _____    ______ ____
ROOT
ATOM      1  C   UNL     1       2.009   8.232  19.172  0.00  0.00    +0.000 A 
ATOM      2  C   UNL     1       1.605   9.423  18.568  0.00  0.00    +0.000 A 
ATOM      3  C   UNL     1       0.904  10.388  19.300  0.00  0.00    +0.000 A 
ATOM      4  C   UNL     1       0.582  10.187  20.650  0.00  0.00    +0.000 A 
ATOM      5  C   UNL     1       0.995   9.003  21.262  0.00  0.00    +0.000 A 
ATOM      6  C   UNL     1       1.696   8.036  20.527  0.00  0.00    +0.000 A 
ENDROOT
BRANCH   1  12
ATOM      7  C   UNL     1       5.501   4.794  15.603  0.00  0.00    +0.000 A 
ATOM      8  C   UNL     1       4.817   3.724  16.187  0.00  0.00    +0.000 A 
ATOM      9  C   UNL     1       3.847   3.948  17.169  0.00  0.00    +0.000 A 
ATOM     10  C   UNL     1       3.553   5.267  17.553  0.00  0.00    +0.000 A 
ATOM     11  C   UNL     1       2.636   5.834  18.472  0.00  0.00    +0.000 A 
ATOM     12  C   UNL     1       2.759   7.212  18.435  0.00  0.00    +0.000 A 
ATOM     13  N   UNL     1       3.763   7.483  17.527  0.00  0.00    +0.000 N 
ATOM     14  C   UNL     1       4.255   6.320  16.972  0.00  0.00    +0.000 A 
ATOM     15  C   UNL     1       5.253   6.119  16.005  0.00  0.00    +0.000 A 
ATOM     16  H   UNL     1       4.076   8.408  17.269  0.00  0.00    +0.000 HD
BRANCH   7  18
ATOM     17  N   UNL     1       6.302   3.536  13.712  0.00  0.00    +0.000 NA
ATOM     18  C   UNL     1       6.502   4.513  14.532  0.00  0.00    +0.000 C 
ATOM     19  N   UNL     1       7.635   5.276  14.436  0.00  0.00    +0.000 N 
ATOM     20  H   UNL     1       7.053   3.511  13.020  0.00  0.00    +0.000 HD
ATOM     21  H   UNL     1       8.408   4.848  13.942  0.00  0.00    +0.000 HD
ATOM     22  H   UNL     1       7.943   5.695  15.310  0.00  0.00    +0.000 HD
ENDBRANCH   7  18
ENDBRANCH   1  12
BRANCH   4  23
ATOM     23  C   UNL     1      -0.239  11.176  21.350  0.00  0.00    +0.000 A 
ATOM     24  C   UNL     1       0.075  12.488  21.659  0.00  0.00    +0.000 A 
ATOM     25  C   UNL     1      -1.032  13.082  22.307  0.00  0.00    +0.000 A 
ATOM     26  C   UNL     1      -1.269  14.371  22.809  0.00  0.00    +0.000 A 
ATOM     27  C   UNL     1      -2.502  14.654  23.400  0.00  0.00    +0.000 A 
ATOM     28  C   UNL     1      -3.489  13.670  23.499  0.00  0.00    +0.000 A 
ATOM     29  C   UNL     1      -3.268  12.369  23.004  0.00  0.00    +0.000 A 
ATOM     30  C   UNL     1      -2.022  12.108  22.409  0.00  0.00    +0.000 A 
ATOM     31  N   UNL     1      -1.515  10.961  21.827  0.00  0.00    +0.000 N 
ATOM     32  H   UNL     1      -2.012  10.082  21.770  0.00  0.00    +0.000 HD
BRANCH  28  33
ATOM     33  C   UNL     1      -4.793  14.039  24.121  0.00  0.00    +0.000 C 
ATOM     34  N   UNL     1      -5.164  15.264  24.312  0.00  0.00    +0.000 NA
ATOM     35  N   UNL     1      -5.663  13.068  24.522  0.00  0.00    +0.000 N 
ATOM     36  H   UNL     1      -4.479  15.921  23.930  0.00  0.00    +0.000 HD
ATOM     37  H   UNL     1      -5.253  12.222  24.900  0.00  0.00    +0.000 HD
ATOM     38  H   UNL     1      -6.394  13.451  25.113  0.00  0.00    +0.000 HD
ENDBRANCH  28  33
ENDBRANCH   4  23
TORSDOF 4
ENDMDL
MODEL 7
REMARK VINA RESULT:      -9.3      1.159     12.095
REMARK  Name = 
REMARK  4 active torsions:
REMARK  status: ('A' for Active; 'I' for Inactive)
REMARK    1  A    between atoms: C_2  and  C_4
REMARK    2  A    between atoms: C_9  and  C_10
REMARK    3  A    between atoms: C_13  and  C_14
REMARK    4  A    between atoms: C_19  and  C_20
REMARK                            x       y       z     vdW  Elec       q    Type
REMARK                         _______ _______ _______ _____ _____    ______ ____
ROOT
ATOM      1  C   UNL     1       0.166  10.439  20.285  0.00  0.00    +0.000 A 
ATOM      2  C   UNL     1       0.621   9.310  20.967  0.00  0.00    +0.000 A 
ATOM      3  C   UNL     1       1.460   8.387  20.332  0.00  0.00    +0.000 A 
ATOM      4  C   UNL     1       1.860   8.563  19.000  0.00  0.00    +0.000 A 
ATOM      5  C   UNL     1       1.418   9.697  18.318  0.00  0.00    +0.000 A 
ATOM      6  C   UNL     1       0.576  10.620  18.955  0.00  0.00    +0.000 A 
ENDROOT
BRANCH   1  12
ATOM      7  C   UNL     1      -2.775  14.456  23.744  0.00  0.00    +0.000 A 
ATOM      8  C   UNL     1      -3.744  14.416  22.737  0.00  0.00    +0.000 A 
ATOM      9  C   UNL     1      -3.561  13.621  21.602  0.00  0.00    +0.000 A 
ATOM     10  C   UNL     1      -2.395  12.843  21.491  0.00  0.00    +0.000 A 
ATOM     11  C   UNL     1      -1.919  11.933  20.516  0.00  0.00    +0.000 A 
ATOM     12  C   UNL     1      -0.699  11.430  20.930  0.00  0.00    +0.000 A 
ATOM     13  N   UNL     1      -0.416  12.051  22.132  0.00  0.00    +0.000 N 
ATOM     14  C   UNL     1      -1.435  12.906  22.497  0.00  0.00    +0.000 A 
ATOM     15  C   UNL     1      -1.582  13.719  23.632  0.00  0.00    +0.000 A 
ATOM     16  H   UNL     1       0.405  11.879  22.693  0.00  0.00    +0.000 HD
BRANCH   7  18
ATOM     17  N   UNL     1      -2.153  15.318  25.906  0.00  0.00    +0.000 NA
ATOM     18  C   UNL     1      -3.028  15.290  24.956  0.00  0.00    +0.000 C 
ATOM     19  N   UNL     1      -4.191  16.005  25.065  0.00  0.00    +0.000 N 
ATOM     20  H   UNL     1      -2.460  15.967  26.632  0.00  0.00    +0.000 HD
ATOM     21  H   UNL     1      -4.458  16.262  26.007  0.00  0.00    +0.000 HD
ATOM     22  H   UNL     1      -4.979  15.619  24.551  0.00  0.00    +0.000 HD
ENDBRANCH   7  18
ENDBRANCH   1  12
BRANCH   4  23
ATOM     23  C   UNL     1       2.654   7.524  18.343  0.00  0.00    +0.000 A 
ATOM     24  C   UNL     1       2.556   6.150  18.486  0.00  0.00    +0.000 A 
ATOM     25  C   UNL     1       3.498   5.534  17.632  0.00  0.00    +0.000 A 
ATOM     26  C   UNL     1       3.811   4.193  17.361  0.00  0.00    +0.000 A 
ATOM     27  C   UNL     1       4.813   3.903  16.432  0.00  0.00    +0.000 A 
ATOM     28  C   UNL     1       5.501   4.930  15.781  0.00  0.00    +0.000 A 
ATOM     29  C   UNL     1       5.203   6.282  16.043  0.00  0.00    +0.000 A 
ATOM     30  C   UNL     1       4.188   6.550  16.976  0.00  0.00    +0.000 A 
ATOM     31  N   UNL     1       3.663   7.746  17.429  0.00  0.00    +0.000 N 
ATOM     32  H   UNL     1       3.984   8.659  17.135  0.00  0.00    +0.000 HD
BRANCH  28  33
ATOM     33  C   UNL     1       6.546   4.557  14.783  0.00  0.00    +0.000 C 
ATOM     34  N   UNL     1       7.664   5.196  14.658  0.00  0.00    +0.000 NA
ATOM     35  N   UNL     1       6.349   3.498  13.945  0.00  0.00    +0.000 N 
ATOM     36  H   UNL     1       7.749   5.934  15.362  0.00  0.00    +0.000 HD
ATOM     37  H   UNL     1       5.401   3.348  13.623  0.00  0.00    +0.000 HD
ATOM     38  H   UNL     1       7.030   3.496  13.192  0.00  0.00    +0.000 HD
ENDBRANCH  28  33
ENDBRANCH   4  23
TORSDOF 4
ENDMDL
MODEL 8
REMARK VINA RESULT:      -9.2      1.133     12.021
REMARK  Name = 
REMARK  4 active torsions:
REMARK  status: ('A' for Active; 'I' for Inactive)
REMARK    1  A    between atoms: C_2  and  C_4
REMARK    2  A    between atoms: C_9  and  C_10
REMARK    3  A    between atoms: C_13  and  C_14
REMARK    4  A    between atoms: C_19  and  C_20
REMARK                            x       y       z     vdW  Elec       q    Type
REMARK                         _______ _______ _______ _____ _____    ______ ____
ROOT
ATOM      1  C   UNL     1       0.214  10.369  20.182  0.00  0.00    +0.000 A 
ATOM      2  C   UNL     1       0.497  10.414  18.817  0.00  0.00    +0.000 A 
ATOM      3  C   UNL     1       1.246   9.398  18.213  0.00  0.00    +0.000 A 
ATOM      4  C   UNL     1       1.739   8.316  18.957  0.00  0.00    +0.000 A 
ATOM      5  C   UNL     1       1.448   8.260  20.321  0.00  0.00    +0.000 A 
ATOM      6  C   UNL     1       0.698   9.280  20.924  0.00  0.00    +0.000 A 
ENDROOT
BRANCH   1  12
ATOM      7  C   UNL     1      -2.525  14.462  23.718  0.00  0.00    +0.000 A 
ATOM      8  C   UNL     1      -3.409  14.604  22.644  0.00  0.00    +0.000 A 
ATOM      9  C   UNL     1      -3.226  13.870  21.468  0.00  0.00    +0.000 A 
ATOM     10  C   UNL     1      -2.150  12.971  21.382  0.00  0.00    +0.000 A 
ATOM     11  C   UNL     1      -1.703  12.078  20.376  0.00  0.00    +0.000 A 
ATOM     12  C   UNL     1      -0.583  11.410  20.837  0.00  0.00    +0.000 A 
ATOM     13  N   UNL     1      -0.329  11.911  22.099  0.00  0.00    +0.000 N 
ATOM     14  C   UNL     1      -1.271  12.853  22.455  0.00  0.00    +0.000 A 
ATOM     15  C   UNL     1      -1.416  13.600  23.635  0.00  0.00    +0.000 A 
ATOM     16  H   UNL     1       0.421  11.607  22.703  0.00  0.00    +0.000 HD
BRANCH   7  18
ATOM     17  N   UNL     1      -3.914  15.829  25.134  0.00  0.00    +0.000 NA
ATOM     18  C   UNL     1      -2.778  15.237  24.968  0.00  0.00    +0.000 C 
ATOM     19  N   UNL     1      -1.801  15.333  25.924  0.00  0.00    +0.000 N 
ATOM     20  H   UNL     1      -3.937  16.271  26.054  0.00  0.00    +0.000 HD
ATOM     21  H   UNL     1      -1.889  16.116  26.558  0.00  0.00    +0.000 HD
ATOM     22  H   UNL     1      -0.851  15.248  25.573  0.00  0.00    +0.000 HD
ENDBRANCH   7  18
ENDBRANCH   1  12
BRANCH   4  23
ATOM     23  C   UNL     1       2.603   7.330  18.307  0.00  0.00    +0.000 A 
ATOM     24  C   UNL     1       2.637   5.959  18.500  0.00  0.00    +0.000 A 
ATOM     25  C   UNL     1       3.604   5.400  17.634  0.00  0.00    +0.000 A 
ATOM     26  C   UNL     1       4.030   4.084  17.397  0.00  0.00    +0.000 A 
ATOM     27  C   UNL     1       5.023   3.852  16.444  0.00  0.00    +0.000 A 
ATOM     28  C   UNL     1       5.592   4.913  15.734  0.00  0.00    +0.000 A 
ATOM     29  C   UNL     1       5.180   6.241  15.960  0.00  0.00    +0.000 A 
ATOM     30  C   UNL     1       4.175   6.450  16.920  0.00  0.00    +0.000 A 
ATOM     31  N   UNL     1       3.557   7.609  17.351  0.00  0.00    +0.000 N 
ATOM     32  H   UNL     1       3.782   8.536  17.015  0.00  0.00    +0.000 HD
BRANCH  28  33
ATOM     33  C   UNL     1       6.634   4.600  14.713  0.00  0.00    +0.000 C 
ATOM     34  N   UNL     1       6.516   3.639  13.854  0.00  0.00    +0.000 NA
ATOM     35  N   UNL     1       7.779   5.339  14.649  0.00  0.00    +0.000 N 
ATOM     36  H   UNL     1       5.606   3.179  13.938  0.00  0.00    +0.000 HD
ATOM     37  H   UNL     1       8.154   5.666  15.531  0.00  0.00    +0.000 HD
ATOM     38  H   UNL     1       8.476   4.886  14.065  0.00  0.00    +0.000 HD
ENDBRANCH  28  33
ENDBRANCH   4  23
TORSDOF 4
ENDMDL
MODEL 9
REMARK VINA RESULT:      -9.2      0.429     12.096
REMARK  Name = 
REMARK  4 active torsions:
REMARK  status: ('A' for Active; 'I' for Inactive)
REMARK    1  A    between atoms: C_2  and  C_4
REMARK    2  A    between atoms: C_9  and  C_10
REMARK    3  A    between atoms: C_13  and  C_14
REMARK    4  A    between atoms: C_19  and  C_20
REMARK                            x       y       z     vdW  Elec       q    Type
REMARK                         _______ _______ _______ _____ _____    ______ ____
ROOT
ATOM      1  C   UNL     1       0.452  10.080  19.940  0.00  0.00    +0.000 A 
ATOM      2  C   UNL     1       0.946   8.960  20.610  0.00  0.00    +0.000 A 
ATOM      3  C   UNL     1       1.819   8.076  19.966  0.00  0.00    +0.000 A 
ATOM      4  C   UNL     1       2.215   8.281  18.637  0.00  0.00    +0.000 A 
ATOM      5  C   UNL     1       1.732   9.406  17.966  0.00  0.00    +0.000 A 
ATOM      6  C   UNL     1       0.857  10.290  18.612  0.00  0.00    +0.000 A 
ENDROOT
BRANCH   1  12
ATOM      7  C   UNL     1      -3.431  13.277  23.325  0.00  0.00    +0.000 A 
ATOM      8  C   UNL     1      -3.361  14.212  22.287  0.00  0.00    +0.000 A 
ATOM      9  C   UNL     1      -2.536  13.989  21.181  0.00  0.00    +0.000 A 
ATOM     10  C   UNL     1      -1.787  12.802  21.113  0.00  0.00    +0.000 A 
ATOM     11  C   UNL     1      -0.897  12.264  20.151  0.00  0.00    +0.000 A 
ATOM     12  C   UNL     1      -0.449  11.032  20.594  0.00  0.00    +0.000 A 
ATOM     13  N   UNL     1      -1.034  10.833  21.829  0.00  0.00    +0.000 N 
ATOM     14  C   UNL     1      -1.857  11.889  22.162  0.00  0.00    +0.000 A 
ATOM     15  C   UNL     1      -2.656  12.103  23.297  0.00  0.00    +0.000 A 
ATOM     16  H   UNL     1      -0.912  10.011  22.402  0.00  0.00    +0.000 HD
BRANCH   7  18
ATOM     17  N   UNL     1      -4.525  12.627  25.370  0.00  0.00    +0.000 NA
ATOM     18  C   UNL     1      -4.353  13.537  24.470  0.00  0.00    +0.000 C 
ATOM     19  N   UNL     1      -5.025  14.727  24.551  0.00  0.00    +0.000 N 
ATOM     20  H   UNL     1      -5.146  12.982  26.099  0.00  0.00    +0.000 HD
ATOM     21  H   UNL     1      -5.859  14.718  25.124  0.00  0.00    +0.000 HD
ATOM     22  H   UNL     1      -5.197  15.182  23.658  0.00  0.00    +0.000 HD
ENDBRANCH   7  18
ENDBRANCH   1  12
BRANCH   4  23
ATOM     23  C   UNL     1       3.046   7.278  17.970  0.00  0.00    +0.000 A 
ATOM     24  C   UNL     1       3.160   5.929  18.257  0.00  0.00    +0.000 A 
ATOM     25  C   UNL     1       4.051   5.339  17.333  0.00  0.00    +0.000 A 
ATOM     26  C   UNL     1       4.507   4.024  17.148  0.00  0.00    +0.000 A 
ATOM     27  C   UNL     1       5.401   3.754  16.110  0.00  0.00    +0.000 A 
ATOM     28  C   UNL     1       5.844   4.776  15.267  0.00  0.00    +0.000 A 
ATOM     29  C   UNL     1       5.401   6.102  15.439  0.00  0.00    +0.000 A 
ATOM     30  C   UNL     1       4.498   6.350  16.486  0.00  0.00    +0.000 A 
ATOM     31  N   UNL     1       3.879   7.516  16.897  0.00  0.00    +0.000 N 
ATOM     32  H   UNL     1       4.027   8.421  16.471  0.00  0.00    +0.000 HD
BRANCH  28  33
ATOM     33  C   UNL     1       6.783   4.422  14.162  0.00  0.00    +0.000 C 
ATOM     34  N   UNL     1       6.613   3.396  13.392  0.00  0.00    +0.000 NA
ATOM     35  N   UNL     1       7.884   5.191  13.923  0.00  0.00    +0.000 N 
ATOM     36  H   UNL     1       5.736   2.914  13.607  0.00  0.00    +0.000 HD
ATOM     37  H   UNL     1       8.338   5.595  14.733  0.00  0.00    +0.000 HD
ATOM     38  H   UNL     1       8.533   4.718  13.300  0.00  0.00    +0.000 HD
ENDBRANCH  28  33
ENDBRANCH   4  23
TORSDOF 4
ENDMDL
