MODEL 1
REMARK VINA RESULT:      -6.7      0.000      0.000
REMARK  Name = 
REMARK  12 active torsions:
REMARK  status: ('A' for Active; 'I' for Inactive)
REMARK    1  A    between atoms: C_1  and  O_2
REMARK    2  A    between atoms: O_2  and  C_3
REMARK    3  A    between atoms: C_3  and  C_5
REMARK    4  A    between atoms: C_8  and  O_9
REMARK    5  A    between atoms: O_9  and  C_10
REMARK    6  A    between atoms: C_12  and  C_13
REMARK    7  A    between atoms: C_13  and  O_14
REMARK    8  A    between atoms: C_15  and  O_16
REMARK    9  A    between atoms: C_17  and  O_18
REMARK   10  A    between atoms: C_19  and  O_20
REMARK   11  A    between atoms: C_25  and  C_26
REMARK   12  A    between atoms: C_25  and  O_27
REMARK                            x       y       z     vdW  Elec       q    Type
REMARK                         _______ _______ _______ _____ _____    ______ ____
ROOT
ATOM      1  C   UNL     1       5.729   4.686  16.457  0.00  0.00    +0.000 C 
ATOM      2  C   UNL     1       4.879   3.773  15.966  0.00  0.00    +0.000 C 
ATOM      3  O   UNL     1       3.583   3.561  16.359  0.00  0.00    +0.000 OA
ATOM      4  C   UNL     1       2.954   4.426  17.306  0.00  0.00    +0.000 C 
ATOM      5  C   UNL     1       3.871   5.452  18.017  0.00  0.00    +0.000 C 
ATOM      6  C   UNL     1       5.301   5.644  17.516  0.00  0.00    +0.000 C 
ATOM      7  C   UNL     1       5.438   7.126  17.178  0.00  0.00    +0.000 C 
ATOM      8  C   UNL     1       4.429   7.836  18.046  0.00  0.00    +0.000 C 
ATOM      9  C   UNL     1       3.268   6.858  18.267  0.00  0.00    +0.000 C 
ATOM     10  C   UNL     1       2.044   7.238  17.439  0.00  0.00    +0.000 C 
ENDROOT
BRANCH   1  11
ATOM     11  C   UNL     1       7.186   4.741  16.108  0.00  0.00    +0.000 C 
ATOM     12  O   UNL     1       8.043   4.194  16.790  0.00  0.00    +0.000 OA
BRANCH  11  14
ATOM     13  C   UNL     1       7.192   4.733  13.779  0.00  0.00    +0.000 C 
ATOM     14  O   UNL     1       7.431   5.465  14.987  0.00  0.00    +0.000 OA
ENDBRANCH  11  14
ENDBRANCH   1  11
BRANCH   9  15
ATOM     15  O   UNL     1       2.836   6.957  19.628  0.00  0.00    +0.000 OA
ATOM     16  H   UNL     1       3.356   6.346  20.178  0.00  0.00    +0.000 HD
ENDBRANCH   9  15
BRANCH   4  17
ATOM     17  O   UNL     1       2.457   3.725  18.442  0.00  0.00    +0.000 OA
BRANCH  17  18
ATOM     18  C   UNL     1       2.177   2.348  18.551  0.00  0.00    +0.000 C 
ATOM     19  O   UNL     1       1.119   2.202  19.532  0.00  0.00    +0.000 OA
ATOM     20  C   UNL     1       1.353   3.003  20.719  0.00  0.00    +0.000 C 
ATOM     21  C   UNL     1       2.823   2.908  21.251  0.00  0.00    +0.000 C 
ATOM     22  C   UNL     1       3.928   2.427  20.262  0.00  0.00    +0.000 C 
ATOM     23  C   UNL     1       3.345   1.556  19.134  0.00  0.00    +0.000 C 
BRANCH  21  24
ATOM     24  O   UNL     1       2.835   1.939  22.336  0.00  0.00    +0.000 OA
ATOM     25  H   UNL     1       1.989   2.031  22.817  0.00  0.00    +0.000 HD
ENDBRANCH  21  24
BRANCH  22  26
ATOM     26  O   UNL     1       4.965   1.716  20.955  0.00  0.00    +0.000 OA
ATOM     27  H   UNL     1       5.023   0.839  20.525  0.00  0.00    +0.000 HD
ENDBRANCH  22  26
BRANCH  23  28
ATOM     28  O   UNL     1       4.286   1.198  18.121  0.00  0.00    +0.000 OA
ATOM     29  H   UNL     1       4.875   1.959  17.971  0.00  0.00    +0.000 HD
ENDBRANCH  23  28
BRANCH  20  30
ATOM     30  C   UNL     1       0.715   4.387  20.477  0.00  0.00    +0.000 C 
BRANCH  30  31
ATOM     31  O   UNL     1       1.568   5.383  21.070  0.00  0.00    +0.000 OA
ATOM     32  H   UNL     1       1.346   6.219  20.616  0.00  0.00    +0.000 HD
ENDBRANCH  30  31
ENDBRANCH  20  30
ENDBRANCH  17  18
ENDBRANCH   4  17
TORSDOF 10
ENDMDL
MODEL 2
REMARK VINA RESULT:      -6.6      0.495      1.083
REMARK  Name = 
REMARK  12 active torsions:
REMARK  status: ('A' for Active; 'I' for Inactive)
REMARK    1  A    between atoms: C_1  and  O_2
REMARK    2  A    between atoms: O_2  and  C_3
REMARK    3  A    between atoms: C_3  and  C_5
REMARK    4  A    between atoms: C_8  and  O_9
REMARK    5  A    between atoms: O_9  and  C_10
REMARK    6  A    between atoms: C_12  and  C_13
REMARK    7  A    between atoms: C_13  and  O_14
REMARK    8  A    between atoms: C_15  and  O_16
REMARK    9  A    between atoms: C_17  and  O_18
REMARK   10  A    between atoms: C_19  and  O_20
REMARK   11  A    between atoms: C_25  and  C_26
REMARK   12  A    between atoms: C_25  and  O_27
REMARK                            x       y       z     vdW  Elec       q    Type
REMARK                         _______ _______ _______ _____ _____    ______ ____
ROOT
ATOM      1  C   UNL     1       5.694   4.792  16.318  0.00  0.00    +0.000 C 
ATOM      2  C   UNL     1       4.859   3.854  15.851  0.00  0.00    +0.000 C 
ATOM      3  O   UNL     1       3.585   3.597  16.285  0.00  0.00    +0.000 OA
ATOM      4  C   UNL     1       2.959   4.436  17.257  0.00  0.00    +0.000 C 
ATOM      5  C   UNL     1       3.865   5.488  17.943  0.00  0.00    +0.000 C 
ATOM      6  C   UNL     1       5.270   5.730  17.396  0.00  0.00    +0.000 C 
ATOM      7  C   UNL     1       5.348   7.217  17.063  0.00  0.00    +0.000 C 
ATOM      8  C   UNL     1       4.344   7.890  17.968  0.00  0.00    +0.000 C 
ATOM      9  C   UNL     1       3.225   6.872  18.221  0.00  0.00    +0.000 C 
ATOM     10  C   UNL     1       1.962   7.215  17.436  0.00  0.00    +0.000 C 
ENDROOT
BRANCH   1  11
ATOM     11  C   UNL     1       7.137   4.897  15.922  0.00  0.00    +0.000 C 
ATOM     12  O   UNL     1       7.503   5.544  14.949  0.00  0.00    +0.000 OA
BRANCH  11  14
ATOM     13  C   UNL     1       7.924   4.646  18.100  0.00  0.00    +0.000 C 
ATOM     14  O   UNL     1       7.958   4.193  16.741  0.00  0.00    +0.000 OA
ENDBRANCH  11  14
ENDBRANCH   1  11
BRANCH   9  15
ATOM     15  O   UNL     1       2.835   6.951  19.596  0.00  0.00    +0.000 OA
ATOM     16  H   UNL     1       3.198   7.763  19.989  0.00  0.00    +0.000 HD
ENDBRANCH   9  15
BRANCH   4  17
ATOM     17  O   UNL     1       2.524   3.713  18.405  0.00  0.00    +0.000 OA
BRANCH  17  18
ATOM     18  C   UNL     1       2.226   2.338  18.497  0.00  0.00    +0.000 C 
ATOM     19  O   UNL     1       1.296   2.174  19.596  0.00  0.00    +0.000 OA
ATOM     20  C   UNL     1       1.696   2.922  20.774  0.00  0.00    +0.000 C 
ATOM     21  C   UNL     1       3.219   2.779  21.113  0.00  0.00    +0.000 C 
ATOM     22  C   UNL     1       4.179   2.316  19.975  0.00  0.00    +0.000 C 
ATOM     23  C   UNL     1       3.439   1.502  18.898  0.00  0.00    +0.000 C 
BRANCH  21  24
ATOM     24  O   UNL     1       3.343   1.767  22.151  0.00  0.00    +0.000 OA
ATOM     25  H   UNL     1       3.184   2.208  23.008  0.00  0.00    +0.000 HD
ENDBRANCH  21  24
BRANCH  22  26
ATOM     26  O   UNL     1       5.278   1.558  20.505  0.00  0.00    +0.000 OA
ATOM     27  H   UNL     1       5.805   2.187  21.038  0.00  0.00    +0.000 HD
ENDBRANCH  22  26
BRANCH  23  28
ATOM     28  O   UNL     1       4.237   1.167  17.761  0.00  0.00    +0.000 OA
ATOM     29  H   UNL     1       5.083   1.644  17.833  0.00  0.00    +0.000 HD
ENDBRANCH  23  28
BRANCH  20  30
ATOM     30  C   UNL     1       1.066   4.327  20.666  0.00  0.00    +0.000 C 
BRANCH  30  31
ATOM     31  O   UNL     1       1.993   5.277  21.222  0.00  0.00    +0.000 OA
ATOM     32  H   UNL     1       1.590   5.572  22.061  0.00  0.00    +0.000 HD
ENDBRANCH  30  31
ENDBRANCH  20  30
ENDBRANCH  17  18
ENDBRANCH   4  17
TORSDOF 10
ENDMDL
MODEL 3
REMARK VINA RESULT:      -6.6      2.398      6.302
REMARK  Name = 
REMARK  12 active torsions:
REMARK  status: ('A' for Active; 'I' for Inactive)
REMARK    1  A    between atoms: C_1  and  O_2
REMARK    2  A    between atoms: O_2  and  C_3
REMARK    3  A    between atoms: C_3  and  C_5
REMARK    4  A    between atoms: C_8  and  O_9
REMARK    5  A    between atoms: O_9  and  C_10
REMARK    6  A    between atoms: C_12  and  C_13
REMARK    7  A    between atoms: C_13  and  O_14
REMARK    8  A    between atoms: C_15  and  O_16
REMARK    9  A    between atoms: C_17  and  O_18
REMARK   10  A    between atoms: C_19  and  O_20
REMARK   11  A    between atoms: C_25  and  C_26
REMARK   12  A    between atoms: C_25  and  O_27
REMARK                            x       y       z     vdW  Elec       q    Type
REMARK                         _______ _______ _______ _____ _____    ______ ____
ROOT
ATOM      1  C   UNL     1       1.836   8.333  19.545  0.00  0.00    +0.000 C 
ATOM      2  C   UNL     1       2.169   8.623  18.279  0.00  0.00    +0.000 C 
ATOM      3  O   UNL     1       2.812   7.803  17.389  0.00  0.00    +0.000 OA
ATOM      4  C   UNL     1       3.099   6.443  17.721  0.00  0.00    +0.000 C 
ATOM      5  C   UNL     1       2.854   6.028  19.192  0.00  0.00    +0.000 C 
ATOM      6  C   UNL     1       2.119   6.989  20.124  0.00  0.00    +0.000 C 
ATOM      7  C   UNL     1       0.914   6.222  20.662  0.00  0.00    +0.000 C 
ATOM      8  C   UNL     1       1.299   4.764  20.600  0.00  0.00    +0.000 C 
ATOM      9  C   UNL     1       2.266   4.612  19.419  0.00  0.00    +0.000 C 
ATOM     10  C   UNL     1       1.595   3.946  18.221  0.00  0.00    +0.000 C 
ENDROOT
BRANCH   1  11
ATOM     11  C   UNL     1       1.299   9.339  20.517  0.00  0.00    +0.000 C 
ATOM     12  O   UNL     1       0.717  10.354  20.155  0.00  0.00    +0.000 OA
BRANCH  11  14
ATOM     13  C   UNL     1       0.499   9.397  22.703  0.00  0.00    +0.000 C 
ATOM     14  O   UNL     1       1.546   9.004  21.809  0.00  0.00    +0.000 OA
ENDBRANCH  11  14
ENDBRANCH   1  11
BRANCH   9  15
ATOM     15  O   UNL     1       3.315   3.714  19.797  0.00  0.00    +0.000 OA
ATOM     16  H   UNL     1       2.930   2.935  20.236  0.00  0.00    +0.000 HD
ENDBRANCH   9  15
BRANCH   4  17
ATOM     17  O   UNL     1       4.486   6.136  17.615  0.00  0.00    +0.000 OA
BRANCH  17  18
ATOM     18  C   UNL     1       5.421   6.667  16.704  0.00  0.00    +0.000 C 
ATOM     19  O   UNL     1       5.774   5.605  15.783  0.00  0.00    +0.000 OA
ATOM     20  C   UNL     1       6.039   4.350  16.462  0.00  0.00    +0.000 C 
ATOM     21  C   UNL     1       6.943   4.511  17.732  0.00  0.00    +0.000 C 
ATOM     22  C   UNL     1       7.039   5.923  18.385  0.00  0.00    +0.000 C 
ATOM     23  C   UNL     1       6.742   7.044  17.372  0.00  0.00    +0.000 C 
BRANCH  21  24
ATOM     24  O   UNL     1       8.305   4.177  17.344  0.00  0.00    +0.000 OA
ATOM     25  H   UNL     1       8.343   4.199  16.367  0.00  0.00    +0.000 HD
ENDBRANCH  21  24
BRANCH  22  26
ATOM     26  O   UNL     1       8.328   6.125  18.987  0.00  0.00    +0.000 OA
ATOM     27  H   UNL     1       8.549   7.066  18.836  0.00  0.00    +0.000 HD
ENDBRANCH  22  26
BRANCH  23  28
ATOM     28  O   UNL     1       6.679   8.351  17.943  0.00  0.00    +0.000 OA
ATOM     29  H   UNL     1       7.021   8.302  18.854  0.00  0.00    +0.000 HD
ENDBRANCH  23  28
BRANCH  20  30
ATOM     30  C   UNL     1       4.699   3.591  16.570  0.00  0.00    +0.000 C 
BRANCH  30  31
ATOM     31  O   UNL     1       4.750   2.757  17.742  0.00  0.00    +0.000 OA
ATOM     32  H   UNL     1       5.543   2.197  17.628  0.00  0.00    +0.000 HD
ENDBRANCH  30  31
ENDBRANCH  20  30
ENDBRANCH  17  18
ENDBRANCH   4  17
TORSDOF 10
ENDMDL
MODEL 4
REMARK VINA RESULT:      -6.3      2.108      6.164
REMARK  Name = 
REMARK  12 active torsions:
REMARK  status: ('A' for Active; 'I' for Inactive)
REMARK    1  A    between atoms: C_1  and  O_2
REMARK    2  A    between atoms: O_2  and  C_3
REMARK    3  A    between atoms: C_3  and  C_5
REMARK    4  A    between atoms: C_8  and  O_9
REMARK    5  A    between atoms: O_9  and  C_10
REMARK    6  A    between atoms: C_12  and  C_13
REMARK    7  A    between atoms: C_13  and  O_14
REMARK    8  A    between atoms: C_15  and  O_16
REMARK    9  A    between atoms: C_17  and  O_18
REMARK   10  A    between atoms: C_19  and  O_20
REMARK   11  A    between atoms: C_25  and  C_26
REMARK   12  A    between atoms: C_25  and  O_27
REMARK                            x       y       z     vdW  Elec       q    Type
REMARK                         _______ _______ _______ _____ _____    ______ ____
ROOT
ATOM      1  C   UNL     1       2.216   6.820  19.505  0.00  0.00    +0.000 C 
ATOM      2  C   UNL     1       2.730   6.933  18.272  0.00  0.00    +0.000 C 
ATOM      3  O   UNL     1       3.528   6.025  17.627  0.00  0.00    +0.000 OA
ATOM      4  C   UNL     1       3.806   4.750  18.209  0.00  0.00    +0.000 C 
ATOM      5  C   UNL     1       3.352   4.549  19.676  0.00  0.00    +0.000 C 
ATOM      6  C   UNL     1       2.451   5.597  20.325  0.00  0.00    +0.000 C 
ATOM      7  C   UNL     1       1.204   4.854  20.796  0.00  0.00    +0.000 C 
ATOM      8  C   UNL     1       1.642   3.427  21.023  0.00  0.00    +0.000 C 
ATOM      9  C   UNL     1       2.783   3.153  20.036  0.00  0.00    +0.000 C 
ATOM     10  C   UNL     1       2.326   2.276  18.873  0.00  0.00    +0.000 C 
ENDROOT
BRANCH   1  11
ATOM     11  C   UNL     1       1.504   7.930  20.217  0.00  0.00    +0.000 C 
ATOM     12  O   UNL     1       1.253   7.885  21.415  0.00  0.00    +0.000 OA
BRANCH  11  14
ATOM     13  C   UNL     1       0.793  10.144  20.092  0.00  0.00    +0.000 C 
ATOM     14  O   UNL     1       1.166   8.952  19.391  0.00  0.00    +0.000 OA
ENDBRANCH  11  14
ENDBRANCH   1  11
BRANCH   9  15
ATOM     15  O   UNL     1       3.791   2.384  20.701  0.00  0.00    +0.000 OA
ATOM     16  H   UNL     1       4.604   2.913  20.776  0.00  0.00    +0.000 HD
ENDBRANCH   9  15
BRANCH   4  17
ATOM     17  O   UNL     1       5.202   4.509  18.357  0.00  0.00    +0.000 OA
BRANCH  17  18
ATOM     18  C   UNL     1       6.095   3.988  17.399  0.00  0.00    +0.000 C 
ATOM     19  O   UNL     1       7.437   4.265  17.869  0.00  0.00    +0.000 OA
ATOM     20  C   UNL     1       7.585   5.627  18.348  0.00  0.00    +0.000 C 
ATOM     21  C   UNL     1       6.936   6.692  17.400  0.00  0.00    +0.000 C 
ATOM     22  C   UNL     1       5.848   6.207  16.394  0.00  0.00    +0.000 C 
ATOM     23  C   UNL     1       6.004   4.713  16.058  0.00  0.00    +0.000 C 
BRANCH  21  24
ATOM     24  O   UNL     1       7.998   7.247  16.574  0.00  0.00    +0.000 OA
ATOM     25  H   UNL     1       8.439   7.944  17.098  0.00  0.00    +0.000 HD
ENDBRANCH  21  24
BRANCH  22  26
ATOM     26  O   UNL     1       5.872   6.993  15.192  0.00  0.00    +0.000 OA
ATOM     27  H   UNL     1       5.279   6.536  14.562  0.00  0.00    +0.000 HD
ENDBRANCH  22  26
BRANCH  23  28
ATOM     28  O   UNL     1       4.955   4.179  15.249  0.00  0.00    +0.000 OA
ATOM     29  H   UNL     1       5.160   4.374  14.318  0.00  0.00    +0.000 HD
ENDBRANCH  23  28
BRANCH  20  30
ATOM     30  C   UNL     1       7.234   5.628  19.851  0.00  0.00    +0.000 C 
BRANCH  30  31
ATOM     31  O   UNL     1       8.409   5.237  20.585  0.00  0.00    +0.000 OA
ATOM     32  H   UNL     1       9.132   5.790  20.231  0.00  0.00    +0.000 HD
ENDBRANCH  30  31
ENDBRANCH  20  30
ENDBRANCH  17  18
ENDBRANCH   4  17
TORSDOF 10
ENDMDL
MODEL 5
REMARK VINA RESULT:      -6.2      2.192      6.284
REMARK  Name = 
REMARK  12 active torsions:
REMARK  status: ('A' for Active; 'I' for Inactive)
REMARK    1  A    between atoms: C_1  and  O_2
REMARK    2  A    between atoms: O_2  and  C_3
REMARK    3  A    between atoms: C_3  and  C_5
REMARK    4  A    between atoms: C_8  and  O_9
REMARK    5  A    between atoms: O_9  and  C_10
REMARK    6  A    between atoms: C_12  and  C_13
REMARK    7  A    between atoms: C_13  and  O_14
REMARK    8  A    between atoms: C_15  and  O_16
REMARK    9  A    between atoms: C_17  and  O_18
REMARK   10  A    between atoms: C_19  and  O_20
REMARK   11  A    between atoms: C_25  and  C_26
REMARK   12  A    between atoms: C_25  and  O_27
REMARK                            x       y       z     vdW  Elec       q    Type
REMARK                         _______ _______ _______ _____ _____    ______ ____
ROOT
ATOM      1  C   UNL     1       2.055   7.648  19.541  0.00  0.00    +0.000 C 
ATOM      2  C   UNL     1       2.591   7.875  18.334  0.00  0.00    +0.000 C 
ATOM      3  O   UNL     1       3.376   7.017  17.608  0.00  0.00    +0.000 OA
ATOM      4  C   UNL     1       3.610   5.681  18.057  0.00  0.00    +0.000 C 
ATOM      5  C   UNL     1       3.126   5.341  19.488  0.00  0.00    +0.000 C 
ATOM      6  C   UNL     1       2.243   6.340  20.232  0.00  0.00    +0.000 C 
ATOM      7  C   UNL     1       0.968   5.588  20.604  0.00  0.00    +0.000 C 
ATOM      8  C   UNL     1       1.365   4.133  20.686  0.00  0.00    +0.000 C 
ATOM      9  C   UNL     1       2.515   3.931  19.692  0.00  0.00    +0.000 C 
ATOM     10  C   UNL     1       2.054   3.194  18.437  0.00  0.00    +0.000 C 
ENDROOT
BRANCH   1  11
ATOM     11  C   UNL     1       1.360   8.697  20.355  0.00  0.00    +0.000 C 
ATOM     12  O   UNL     1       0.672   9.572  19.845  0.00  0.00    +0.000 OA
BRANCH  11  14
ATOM     13  C   UNL     1       0.673   9.311  22.494  0.00  0.00    +0.000 C 
ATOM     14  O   UNL     1       1.595   8.571  21.686  0.00  0.00    +0.000 OA
ENDBRANCH  11  14
ENDBRANCH   1  11
BRANCH   9  15
ATOM     15  O   UNL     1       3.490   3.069  20.287  0.00  0.00    +0.000 OA
ATOM     16  H   UNL     1       4.377   3.449  20.161  0.00  0.00    +0.000 HD
ENDBRANCH   9  15
BRANCH   4  17
ATOM     17  O   UNL     1       4.996   5.386  18.199  0.00  0.00    +0.000 OA
BRANCH  17  18
ATOM     18  C   UNL     1       5.646   4.157  17.965  0.00  0.00    +0.000 C 
ATOM     19  O   UNL     1       7.072   4.410  18.014  0.00  0.00    +0.000 OA
ATOM     20  C   UNL     1       7.449   5.596  17.268  0.00  0.00    +0.000 C 
ATOM     21  C   UNL     1       6.766   5.686  15.860  0.00  0.00    +0.000 C 
ATOM     22  C   UNL     1       5.473   4.849  15.622  0.00  0.00    +0.000 C 
ATOM     23  C   UNL     1       5.404   3.626  16.554  0.00  0.00    +0.000 C 
BRANCH  21  24
ATOM     24  O   UNL     1       7.722   5.199  14.878  0.00  0.00    +0.000 OA
ATOM     25  H   UNL     1       7.608   5.736  14.070  0.00  0.00    +0.000 HD
ENDBRANCH  21  24
BRANCH  22  26
ATOM     26  O   UNL     1       5.373   4.436  14.250  0.00  0.00    +0.000 OA
ATOM     27  H   UNL     1       5.663   5.204  13.717  0.00  0.00    +0.000 HD
ENDBRANCH  22  26
BRANCH  23  28
ATOM     28  O   UNL     1       4.177   2.897  16.478  0.00  0.00    +0.000 OA
ATOM     29  H   UNL     1       4.106   2.514  15.585  0.00  0.00    +0.000 HD
ENDBRANCH  23  28
BRANCH  20  30
ATOM     30  C   UNL     1       7.368   6.796  18.235  0.00  0.00    +0.000 C 
BRANCH  30  31
ATOM     31  O   UNL     1       8.297   6.568  19.310  0.00  0.00    +0.000 OA
ATOM     32  H   UNL     1       8.579   7.457  19.602  0.00  0.00    +0.000 HD
ENDBRANCH  30  31
ENDBRANCH  20  30
ENDBRANCH  17  18
ENDBRANCH   4  17
TORSDOF 10
ENDMDL
MODEL 6
REMARK VINA RESULT:      -5.8      9.760     12.746
REMARK  Name = 
REMARK  12 active torsions:
REMARK  status: ('A' for Active; 'I' for Inactive)
REMARK    1  A    between atoms: C_1  and  O_2
REMARK    2  A    between atoms: O_2  and  C_3
REMARK    3  A    between atoms: C_3  and  C_5
REMARK    4  A    between atoms: C_8  and  O_9
REMARK    5  A    between atoms: O_9  and  C_10
REMARK    6  A    between atoms: C_12  and  C_13
REMARK    7  A    between atoms: C_13  and  O_14
REMARK    8  A    between atoms: C_15  and  O_16
REMARK    9  A    between atoms: C_17  and  O_18
REMARK   10  A    between atoms: C_19  and  O_20
REMARK   11  A    between atoms: C_25  and  C_26
REMARK   12  A    between atoms: C_25  and  O_27
REMARK                            x       y       z     vdW  Elec       q    Type
REMARK                         _______ _______ _______ _____ _____    ______ ____
ROOT
ATOM      1  C   UNL     1       7.741  12.915  22.598  0.00  0.00    +0.000 C 
ATOM      2  C   UNL     1       8.741  12.093  22.251  0.00  0.00    +0.000 C 
ATOM      3  O   UNL     1       9.844  12.410  21.502  0.00  0.00    +0.000 OA
ATOM      4  C   UNL     1      10.093  13.758  21.098  0.00  0.00    +0.000 C 
ATOM      5  C   UNL     1       8.952  14.774  21.353  0.00  0.00    +0.000 C 
ATOM      6  C   UNL     1       7.759  14.353  22.209  0.00  0.00    +0.000 C 
ATOM      7  C   UNL     1       7.679  15.361  23.352  0.00  0.00    +0.000 C 
ATOM      8  C   UNL     1       8.318  16.623  22.827  0.00  0.00    +0.000 C 
ATOM      9  C   UNL     1       9.381  16.191  21.810  0.00  0.00    +0.000 C 
ATOM     10  C   UNL     1      10.793  16.334  22.372  0.00  0.00    +0.000 C 
ENDROOT
BRANCH   1  11
ATOM     11  C   UNL     1       6.478  12.457  23.263  0.00  0.00    +0.000 C 
ATOM     12  O   UNL     1       5.384  12.933  22.988  0.00  0.00    +0.000 OA
BRANCH  11  14
ATOM     13  C   UNL     1       6.927  12.010  25.504  0.00  0.00    +0.000 C 
ATOM     14  O   UNL     1       6.693  11.489  24.190  0.00  0.00    +0.000 OA
ENDBRANCH  11  14
ENDBRANCH   1  11
BRANCH   9  15
ATOM     15  O   UNL     1       9.339  17.086  20.694  0.00  0.00    +0.000 OA
ATOM     16  H   UNL     1       8.432  17.124  20.343  0.00  0.00    +0.000 HD
ENDBRANCH   9  15
BRANCH   4  17
ATOM     17  O   UNL     1      10.217  13.891  19.685  0.00  0.00    +0.000 OA
BRANCH  17  18
ATOM     18  C   UNL     1       9.195  13.817  18.717  0.00  0.00    +0.000 C 
ATOM     19  O   UNL     1       9.391  12.585  17.980  0.00  0.00    +0.000 OA
ATOM     20  C   UNL     1      10.778  12.382  17.603  0.00  0.00    +0.000 C 
ATOM     21  C   UNL     1      11.457  13.668  17.019  0.00  0.00    +0.000 C 
ATOM     22  C   UNL     1      10.808  15.047  17.346  0.00  0.00    +0.000 C 
ATOM     23  C   UNL     1       9.307  14.914  17.661  0.00  0.00    +0.000 C 
BRANCH  21  24
ATOM     24  O   UNL     1      11.419  13.563  15.569  0.00  0.00    +0.000 OA
ATOM     25  H   UNL     1      10.546  13.197  15.326  0.00  0.00    +0.000 HD
ENDBRANCH  21  24
BRANCH  22  26
ATOM     26  O   UNL     1      11.011  15.978  16.271  0.00  0.00    +0.000 OA
ATOM     27  H   UNL     1      10.138  16.386  16.102  0.00  0.00    +0.000 HD
ENDBRANCH  22  26
BRANCH  23  28
ATOM     28  O   UNL     1       8.689  16.123  18.102  0.00  0.00    +0.000 OA
ATOM     29  H   UNL     1       7.750  15.937  18.281  0.00  0.00    +0.000 HD
ENDBRANCH  23  28
BRANCH  20  30
ATOM     30  C   UNL     1      11.461  11.611  18.752  0.00  0.00    +0.000 C 
BRANCH  30  31
ATOM     31  O   UNL     1      10.480  10.752  19.360  0.00  0.00    +0.000 OA
ATOM     32  H   UNL     1      10.699  10.740  20.312  0.00  0.00    +0.000 HD
ENDBRANCH  30  31
ENDBRANCH  20  30
ENDBRANCH  17  18
ENDBRANCH   4  17
TORSDOF 10
ENDMDL
MODEL 7
REMARK VINA RESULT:      -5.6      1.677      4.720
REMARK  Name = 
REMARK  12 active torsions:
REMARK  status: ('A' for Active; 'I' for Inactive)
REMARK    1  A    between atoms: C_1  and  O_2
REMARK    2  A    between atoms: O_2  and  C_3
REMARK    3  A    between atoms: C_3  and  C_5
REMARK    4  A    between atoms: C_8  and  O_9
REMARK    5  A    between atoms: O_9  and  C_10
REMARK    6  A    between atoms: C_12  and  C_13
REMARK    7  A    between atoms: C_13  and  O_14
REMARK    8  A    between atoms: C_15  and  O_16
REMARK    9  A    between atoms: C_17  and  O_18
REMARK   10  A    between atoms: C_19  and  O_20
REMARK   11  A    between atoms: C_25  and  C_26
REMARK   12  A    between atoms: C_25  and  O_27
REMARK                            x       y       z     vdW  Elec       q    Type
REMARK                         _______ _______ _______ _____ _____    ______ ____
ROOT
ATOM      1  C   UNL     1       2.821   7.497  18.715  0.00  0.00    +0.000 C 
ATOM      2  C   UNL     1       2.571   6.900  19.889  0.00  0.00    +0.000 C 
ATOM      3  O   UNL     1       3.151   5.755  20.369  0.00  0.00    +0.000 OA
ATOM      4  C   UNL     1       4.222   5.124  19.664  0.00  0.00    +0.000 C 
ATOM      5  C   UNL     1       4.524   5.666  18.245  0.00  0.00    +0.000 C 
ATOM      6  C   UNL     1       3.850   6.955  17.782  0.00  0.00    +0.000 C 
ATOM      7  C   UNL     1       4.976   7.910  17.396  0.00  0.00    +0.000 C 
ATOM      8  C   UNL     1       6.141   7.030  17.012  0.00  0.00    +0.000 C 
ATOM      9  C   UNL     1       6.019   5.747  17.842  0.00  0.00    +0.000 C 
ATOM     10  C   UNL     1       7.039   5.709  18.977  0.00  0.00    +0.000 C 
ENDROOT
BRANCH   1  11
ATOM     11  C   UNL     1       2.020   8.642  18.174  0.00  0.00    +0.000 C 
ATOM     12  O   UNL     1       2.128   9.029  17.018  0.00  0.00    +0.000 OA
BRANCH  11  14
ATOM     13  C   UNL     1       0.250  10.111  18.544  0.00  0.00    +0.000 C 
ATOM     14  O   UNL     1       1.196   9.191  19.103  0.00  0.00    +0.000 OA
ENDBRANCH  11  14
ENDBRANCH   1  11
BRANCH   9  15
ATOM     15  O   UNL     1       6.352   4.629  17.013  0.00  0.00    +0.000 OA
ATOM     16  H   UNL     1       6.177   4.854  16.082  0.00  0.00    +0.000 HD
ENDBRANCH   9  15
BRANCH   4  17
ATOM     17  O   UNL     1       3.939   3.765  19.343  0.00  0.00    +0.000 OA
BRANCH  17  18
ATOM     18  C   UNL     1       3.701   2.700  20.235  0.00  0.00    +0.000 C 
ATOM     19  O   UNL     1       3.680   1.481  19.451  0.00  0.00    +0.000 OA
ATOM     20  C   UNL     1       2.893   1.617  18.239  0.00  0.00    +0.000 C 
ATOM     21  C   UNL     1       1.517   2.330  18.470  0.00  0.00    +0.000 C 
ATOM     22  C   UNL     1       1.355   3.206  19.748  0.00  0.00    +0.000 C 
ATOM     23  C   UNL     1       2.313   2.766  20.870  0.00  0.00    +0.000 C 
BRANCH  21  24
ATOM     24  O   UNL     1       0.502   1.294  18.586  0.00  0.00    +0.000 OA
ATOM     25  H   UNL     1       0.178   1.308  19.508  0.00  0.00    +0.000 HD
ENDBRANCH  21  24
BRANCH  22  26
ATOM     26  O   UNL     1      -0.003   3.186  20.217  0.00  0.00    +0.000 OA
ATOM     27  H   UNL     1      -0.557   3.411  19.443  0.00  0.00    +0.000 HD
ENDBRANCH  22  26
BRANCH  23  28
ATOM     28  O   UNL     1       2.308   3.617  22.017  0.00  0.00    +0.000 OA
ATOM     29  H   UNL     1       3.231   3.769  22.287  0.00  0.00    +0.000 HD
ENDBRANCH  23  28
BRANCH  20  30
ATOM     30  C   UNL     1       3.839   2.122  17.129  0.00  0.00    +0.000 C 
BRANCH  30  31
ATOM     31  O   UNL     1       3.337   3.385  16.653  0.00  0.00    +0.000 OA
ATOM     32  H   UNL     1       3.862   3.589  15.856  0.00  0.00    +0.000 HD
ENDBRANCH  30  31
ENDBRANCH  20  30
ENDBRANCH  17  18
ENDBRANCH   4  17
TORSDOF 10
ENDMDL
MODEL 8
REMARK VINA RESULT:      -5.6      2.398      6.254
REMARK  Name = 
REMARK  12 active torsions:
REMARK  status: ('A' for Active; 'I' for Inactive)
REMARK    1  A    between atoms: C_1  and  O_2
REMARK    2  A    between atoms: O_2  and  C_3
REMARK    3  A    between atoms: C_3  and  C_5
REMARK    4  A    between atoms: C_8  and  O_9
REMARK    5  A    between atoms: O_9  and  C_10
REMARK    6  A    between atoms: C_12  and  C_13
REMARK    7  A    between atoms: C_13  and  O_14
REMARK    8  A    between atoms: C_15  and  O_16
REMARK    9  A    between atoms: C_17  and  O_18
REMARK   10  A    between atoms: C_19  and  O_20
REMARK   11  A    between atoms: C_25  and  C_26
REMARK   12  A    between atoms: C_25  and  O_27
REMARK                            x       y       z     vdW  Elec       q    Type
REMARK                         _______ _______ _______ _____ _____    ______ ____
ROOT
ATOM      1  C   UNL     1       1.781   7.715  19.798  0.00  0.00    +0.000 C 
ATOM      2  C   UNL     1       2.247   8.080  18.595  0.00  0.00    +0.000 C 
ATOM      3  O   UNL     1       2.887   7.281  17.684  0.00  0.00    +0.000 OA
ATOM      4  C   UNL     1       3.018   5.876  17.906  0.00  0.00    +0.000 C 
ATOM      5  C   UNL     1       2.609   5.360  19.308  0.00  0.00    +0.000 C 
ATOM      6  C   UNL     1       1.888   6.305  20.267  0.00  0.00    +0.000 C 
ATOM      7  C   UNL     1       0.576   5.617  20.635  0.00  0.00    +0.000 C 
ATOM      8  C   UNL     1       0.829   4.139  20.464  0.00  0.00    +0.000 C 
ATOM      9  C   UNL     1       1.877   3.995  19.354  0.00  0.00    +0.000 C 
ATOM     10  C   UNL     1       1.253   3.506  18.049  0.00  0.00    +0.000 C 
ENDROOT
BRANCH   1  11
ATOM     11  C   UNL     1       1.256   8.681  20.817  0.00  0.00    +0.000 C 
ATOM     12  O   UNL     1       1.530   8.590  22.007  0.00  0.00    +0.000 OA
BRANCH  11  14
ATOM     13  C   UNL     1       0.699  10.942  20.794  0.00  0.00    +0.000 C 
ATOM     14  O   UNL     1       0.451   9.630  20.276  0.00  0.00    +0.000 OA
ENDBRANCH  11  14
ENDBRANCH   1  11
BRANCH   9  15
ATOM     15  O   UNL     1       2.802   2.968  19.725  0.00  0.00    +0.000 OA
ATOM     16  H   UNL     1       2.369   2.349  20.337  0.00  0.00    +0.000 HD
ENDBRANCH   9  15
BRANCH   4  17
ATOM     17  O   UNL     1       4.375   5.443  17.880  0.00  0.00    +0.000 OA
BRANCH  17  18
ATOM     18  C   UNL     1       5.160   5.132  16.751  0.00  0.00    +0.000 C 
ATOM     19  O   UNL     1       6.237   4.274  17.201  0.00  0.00    +0.000 OA
ATOM     20  C   UNL     1       6.858   4.760  18.420  0.00  0.00    +0.000 C 
ATOM     21  C   UNL     1       7.148   6.300  18.397  0.00  0.00    +0.000 C 
ATOM     22  C   UNL     1       6.351   7.177  17.384  0.00  0.00    +0.000 C 
ATOM     23  C   UNL     1       5.867   6.357  16.174  0.00  0.00    +0.000 C 
BRANCH  21  24
ATOM     24  O   UNL     1       8.546   6.477  18.037  0.00  0.00    +0.000 OA
ATOM     25  H   UNL     1       8.670   6.086  17.150  0.00  0.00    +0.000 HD
ENDBRANCH  21  24
BRANCH  22  26
ATOM     26  O   UNL     1       7.135   8.297  16.946  0.00  0.00    +0.000 OA
ATOM     27  H   UNL     1       7.064   8.967  17.655  0.00  0.00    +0.000 HD
ENDBRANCH  22  26
BRANCH  23  28
ATOM     28  O   UNL     1       5.014   7.074  15.281  0.00  0.00    +0.000 OA
ATOM     29  H   UNL     1       5.216   6.788  14.372  0.00  0.00    +0.000 HD
ENDBRANCH  23  28
BRANCH  20  30
ATOM     30  C   UNL     1       6.090   4.144  19.608  0.00  0.00    +0.000 C 
BRANCH  30  31
ATOM     31  O   UNL     1       5.440   2.945  19.148  0.00  0.00    +0.000 OA
ATOM     32  H   UNL     1       5.101   3.159  18.257  0.00  0.00    +0.000 HD
ENDBRANCH  30  31
ENDBRANCH  20  30
ENDBRANCH  17  18
ENDBRANCH   4  17
TORSDOF 10
ENDMDL
MODEL 9
REMARK VINA RESULT:      -5.6      2.205      6.324
REMARK  Name = 
REMARK  12 active torsions:
REMARK  status: ('A' for Active; 'I' for Inactive)
REMARK    1  A    between atoms: C_1  and  O_2
REMARK    2  A    between atoms: O_2  and  C_3
REMARK    3  A    between atoms: C_3  and  C_5
REMARK    4  A    between atoms: C_8  and  O_9
REMARK    5  A    between atoms: O_9  and  C_10
REMARK    6  A    between atoms: C_12  and  C_13
REMARK    7  A    between atoms: C_13  and  O_14
REMARK    8  A    between atoms: C_15  and  O_16
REMARK    9  A    between atoms: C_17  and  O_18
REMARK   10  A    between atoms: C_19  and  O_20
REMARK   11  A    between atoms: C_25  and  C_26
REMARK   12  A    between atoms: C_25  and  O_27
REMARK                            x       y       z     vdW  Elec       q    Type
REMARK                         _______ _______ _______ _____ _____    ______ ____
ROOT
ATOM      1  C   UNL     1       1.977   7.462  19.730  0.00  0.00    +0.000 C 
ATOM      2  C   UNL     1       2.300   7.844  18.486  0.00  0.00    +0.000 C 
ATOM      3  O   UNL     1       2.998   7.116  17.558  0.00  0.00    +0.000 OA
ATOM      4  C   UNL     1       3.364   5.759  17.814  0.00  0.00    +0.000 C 
ATOM      5  C   UNL     1       3.133   5.246  19.257  0.00  0.00    +0.000 C 
ATOM      6  C   UNL     1       2.336   6.106  20.234  0.00  0.00    +0.000 C 
ATOM      7  C   UNL     1       1.176   5.239  20.716  0.00  0.00    +0.000 C 
ATOM      8  C   UNL     1       1.648   3.812  20.575  0.00  0.00    +0.000 C 
ATOM      9  C   UNL     1       2.631   3.786  19.398  0.00  0.00    +0.000 C 
ATOM     10  C   UNL     1       2.009   3.151  18.156  0.00  0.00    +0.000 C 
ENDROOT
BRANCH   1  11
ATOM     11  C   UNL     1       1.374   8.377  20.753  0.00  0.00    +0.000 C 
ATOM     12  O   UNL     1       1.701   8.347  21.932  0.00  0.00    +0.000 OA
BRANCH  11  14
ATOM     13  C   UNL     1       0.750  10.592  20.398  0.00  0.00    +0.000 C 
ATOM     14  O   UNL     1       0.435   9.205  20.228  0.00  0.00    +0.000 OA
ENDBRANCH  11  14
ENDBRANCH   1  11
BRANCH   9  15
ATOM     15  O   UNL     1       3.729   2.933  19.734  0.00  0.00    +0.000 OA
ATOM     16  H   UNL     1       3.399   2.163  20.230  0.00  0.00    +0.000 HD
ENDBRANCH   9  15
BRANCH   4  17
ATOM     17  O   UNL     1       4.767   5.541  17.706  0.00  0.00    +0.000 OA
BRANCH  17  18
ATOM     18  C   UNL     1       5.801   6.490  17.843  0.00  0.00    +0.000 C 
ATOM     19  O   UNL     1       6.135   6.955  16.511  0.00  0.00    +0.000 OA
ATOM     20  C   UNL     1       6.257   5.866  15.560  0.00  0.00    +0.000 C 
ATOM     21  C   UNL     1       7.080   4.651  16.109  0.00  0.00    +0.000 C 
ATOM     22  C   UNL     1       7.237   4.515  17.654  0.00  0.00    +0.000 C 
ATOM     23  C   UNL     1       7.096   5.873  18.365  0.00  0.00    +0.000 C 
BRANCH  21  24
ATOM     24  O   UNL     1       8.437   4.775  15.598  0.00  0.00    +0.000 OA
ATOM     25  H   UNL     1       8.444   5.527  14.973  0.00  0.00    +0.000 HD
ENDBRANCH  21  24
BRANCH  22  26
ATOM     26  O   UNL     1       8.492   3.903  17.992  0.00  0.00    +0.000 OA
ATOM     27  H   UNL     1       9.144   4.261  17.356  0.00  0.00    +0.000 HD
ENDBRANCH  22  26
BRANCH  23  28
ATOM     28  O   UNL     1       7.094   5.793  19.792  0.00  0.00    +0.000 OA
ATOM     29  H   UNL     1       7.840   6.321  20.127  0.00  0.00    +0.000 HD
ENDBRANCH  23  28
BRANCH  20  30
ATOM     30  C   UNL     1       4.859   5.628  14.949  0.00  0.00    +0.000 C 
BRANCH  30  31
ATOM     31  O   UNL     1       4.912   4.419  14.169  0.00  0.00    +0.000 OA
ATOM     32  H   UNL     1       4.029   4.336  13.760  0.00  0.00    +0.000 HD
ENDBRANCH  30  31
ENDBRANCH  20  30
ENDBRANCH  17  18
ENDBRANCH   4  17
TORSDOF 10
ENDMDL
