MODEL 1
REMARK VINA RESULT:      -6.0      0.000      0.000
REMARK  Name = 
REMARK  4 active torsions:
REMARK  status: ('A' for Active; 'I' for Inactive)
REMARK    1  A    between atoms: C_2  and  S_4
REMARK    2  A    between atoms: S_4  and  C_5
REMARK    3  A    between atoms: C_5  and  C_6
REMARK    4  A    between atoms: C_6  and  C_7
REMARK                            x       y       z     vdW  Elec       q    Type
REMARK                         _______ _______ _______ _____ _____    ______ ____
ROOT
ATOM      1  C   UNL     1       4.508   5.056  17.216  0.00  0.00    +0.000 C 
ENDROOT
BRANCH   1   2
ATOM      2  S   UNL     1       5.562   4.112  16.056  0.00  0.00    +0.000 S 
BRANCH   2   4
ATOM      3  N   UNL     1       7.994   4.161  17.174  0.00  0.00    +0.000 NA
ATOM      4  C   UNL     1       7.115   4.865  16.556  0.00  0.00    +0.000 C 
ATOM      5  N   UNL     1       7.353   6.235  16.272  0.00  0.00    +0.000 N 
ATOM      6  H   UNL     1       8.892   4.569  17.475  0.00  0.00    +0.000 HD
ATOM      7  H   UNL     1       8.237   6.688  16.544  0.00  0.00    +0.000 HD
ATOM      8  H   UNL     1       6.642   6.788  15.772  0.00  0.00    +0.000 HD
ENDBRANCH   2   4
ENDBRANCH   1   2
BRANCH   1   9
ATOM      9  C   UNL     1       4.656   4.555  18.660  0.00  0.00    +0.000 C 
BRANCH   9  10
ATOM     10  C   UNL     1       3.325   4.168  19.268  0.00  0.00    +0.000 A 
ATOM     11  C   UNL     1       2.634   5.111  20.054  0.00  0.00    +0.000 A 
ATOM     12  C   UNL     1       1.408   4.787  20.639  0.00  0.00    +0.000 A 
ATOM     13  C   UNL     1       0.858   3.519  20.457  0.00  0.00    +0.000 A 
ATOM     14  C   UNL     1       1.532   2.571  19.685  0.00  0.00    +0.000 A 
ATOM     15  C   UNL     1       2.759   2.882  19.088  0.00  0.00    +0.000 A 
ATOM     16 CL   UNL     1       3.545   1.624  18.137  0.00  0.00    +0.000 Cl
ENDBRANCH   9  10
ENDBRANCH   1   9
TORSDOF 4
ENDMDL
MODEL 2
REMARK VINA RESULT:      -6.0      1.269      1.400
REMARK  Name = 
REMARK  4 active torsions:
REMARK  status: ('A' for Active; 'I' for Inactive)
REMARK    1  A    between atoms: C_2  and  S_4
REMARK    2  A    between atoms: S_4  and  C_5
REMARK    3  A    between atoms: C_5  and  C_6
REMARK    4  A    between atoms: C_6  and  C_7
REMARK                            x       y       z     vdW  Elec       q    Type
REMARK                         _______ _______ _______ _____ _____    ______ ____
ROOT
ATOM      1  C   UNL     1       5.086   4.589  17.780  0.00  0.00    +0.000 C 
ENDROOT
BRANCH   1   2
ATOM      2  S   UNL     1       6.235   6.010  17.708  0.00  0.00    +0.000 S 
BRANCH   2   4
ATOM      3  N   UNL     1       8.179   4.169  17.723  0.00  0.00    +0.000 NA
ATOM      4  C   UNL     1       7.655   5.139  18.382  0.00  0.00    +0.000 C 
ATOM      5  N   UNL     1       8.181   5.525  19.643  0.00  0.00    +0.000 N 
ATOM      6  H   UNL     1       8.991   3.650  18.088  0.00  0.00    +0.000 HD
ATOM      7  H   UNL     1       8.996   5.045  20.048  0.00  0.00    +0.000 HD
ATOM      8  H   UNL     1       7.755   6.309  20.160  0.00  0.00    +0.000 HD
ENDBRANCH   2   4
ENDBRANCH   1   2
BRANCH   1   9
ATOM      9  C   UNL     1       4.902   4.073  19.215  0.00  0.00    +0.000 C 
BRANCH   9  10
ATOM     10  C   UNL     1       3.446   3.843  19.555  0.00  0.00    +0.000 A 
ATOM     11  C   UNL     1       2.739   4.848  20.243  0.00  0.00    +0.000 A 
ATOM     12  C   UNL     1       1.397   4.669  20.583  0.00  0.00    +0.000 A 
ATOM     13  C   UNL     1       0.742   3.483  20.251  0.00  0.00    +0.000 A 
ATOM     14  C   UNL     1       1.429   2.474  19.573  0.00  0.00    +0.000 A 
ATOM     15  C   UNL     1       2.774   2.642  19.221  0.00  0.00    +0.000 A 
ATOM     16 CL   UNL     1       3.566   1.315  18.374  0.00  0.00    +0.000 Cl
ENDBRANCH   9  10
ENDBRANCH   1   9
TORSDOF 4
ENDMDL
MODEL 3
REMARK VINA RESULT:      -6.0      2.019      2.575
REMARK  Name = 
REMARK  4 active torsions:
REMARK  status: ('A' for Active; 'I' for Inactive)
REMARK    1  A    between atoms: C_2  and  S_4
REMARK    2  A    between atoms: S_4  and  C_5
REMARK    3  A    between atoms: C_5  and  C_6
REMARK    4  A    between atoms: C_6  and  C_7
REMARK                            x       y       z     vdW  Elec       q    Type
REMARK                         _______ _______ _______ _____ _____    ______ ____
ROOT
ATOM      1  C   UNL     1       4.610   6.155  18.143  0.00  0.00    +0.000 C 
ENDROOT
BRANCH   1   2
ATOM      2  S   UNL     1       5.674   5.773  16.705  0.00  0.00    +0.000 S 
BRANCH   2   4
ATOM      3  N   UNL     1       7.853   4.259  17.065  0.00  0.00    +0.000 NA
ATOM      4  C   UNL     1       6.701   4.561  17.546  0.00  0.00    +0.000 C 
ATOM      5  N   UNL     1       6.225   3.940  18.730  0.00  0.00    +0.000 N 
ATOM      6  H   UNL     1       8.460   3.564  17.524  0.00  0.00    +0.000 HD
ATOM      7  H   UNL     1       6.796   3.247  19.232  0.00  0.00    +0.000 HD
ATOM      8  H   UNL     1       5.301   4.195  19.109  0.00  0.00    +0.000 HD
ENDBRANCH   2   4
ENDBRANCH   1   2
BRANCH   1   9
ATOM      9  C   UNL     1       3.118   6.016  17.803  0.00  0.00    +0.000 C 
BRANCH   9  10
ATOM     10  C   UNL     1       2.539   4.711  18.305  0.00  0.00    +0.000 A 
ATOM     11  C   UNL     1       2.649   3.561  17.499  0.00  0.00    +0.000 A 
ATOM     12  C   UNL     1       2.119   2.341  17.924  0.00  0.00    +0.000 A 
ATOM     13  C   UNL     1       1.464   2.252  19.152  0.00  0.00    +0.000 A 
ATOM     14  C   UNL     1       1.342   3.382  19.961  0.00  0.00    +0.000 A 
ATOM     15  C   UNL     1       1.873   4.611  19.551  0.00  0.00    +0.000 A 
ATOM     16 CL   UNL     1       1.667   5.989  20.630  0.00  0.00    +0.000 Cl
ENDBRANCH   9  10
ENDBRANCH   1   9
TORSDOF 4
ENDMDL
MODEL 4
REMARK VINA RESULT:      -5.8      1.092      1.128
REMARK  Name = 
REMARK  4 active torsions:
REMARK  status: ('A' for Active; 'I' for Inactive)
REMARK    1  A    between atoms: C_2  and  S_4
REMARK    2  A    between atoms: S_4  and  C_5
REMARK    3  A    between atoms: C_5  and  C_6
REMARK    4  A    between atoms: C_6  and  C_7
REMARK                            x       y       z     vdW  Elec       q    Type
REMARK                         _______ _______ _______ _____ _____    ______ ____
ROOT
ATOM      1  C   UNL     1       4.625   5.307  17.323  0.00  0.00    +0.000 C 
ENDROOT
BRANCH   1   2
ATOM      2  S   UNL     1       5.890   4.932  18.590  0.00  0.00    +0.000 S 
BRANCH   2   4
ATOM      3  N   UNL     1       8.305   4.090  17.797  0.00  0.00    +0.000 NA
ATOM      4  C   UNL     1       7.260   4.747  17.441  0.00  0.00    +0.000 C 
ATOM      5  N   UNL     1       7.179   5.337  16.154  0.00  0.00    +0.000 N 
ATOM      6  H   UNL     1       9.106   3.972  17.160  0.00  0.00    +0.000 HD
ATOM      7  H   UNL     1       7.948   5.242  15.476  0.00  0.00    +0.000 HD
ATOM      8  H   UNL     1       6.333   5.858  15.878  0.00  0.00    +0.000 HD
ENDBRANCH   2   4
ENDBRANCH   1   2
BRANCH   1   9
ATOM      9  C   UNL     1       3.586   4.182  17.202  0.00  0.00    +0.000 C 
BRANCH   9  10
ATOM     10  C   UNL     1       2.833   3.962  18.496  0.00  0.00    +0.000 A 
ATOM     11  C   UNL     1       2.180   5.053  19.100  0.00  0.00    +0.000 A 
ATOM     12  C   UNL     1       1.484   4.891  20.300  0.00  0.00    +0.000 A 
ATOM     13  C   UNL     1       1.435   3.642  20.918  0.00  0.00    +0.000 A 
ATOM     14  C   UNL     1       2.081   2.550  20.335  0.00  0.00    +0.000 A 
ATOM     15  C   UNL     1       2.779   2.696  19.131  0.00  0.00    +0.000 A 
ATOM     16 CL   UNL     1       3.571   1.268  18.469  0.00  0.00    +0.000 Cl
ENDBRANCH   9  10
ENDBRANCH   1   9
TORSDOF 4
ENDMDL
MODEL 5
REMARK VINA RESULT:      -5.8      0.784      1.152
REMARK  Name = 
REMARK  4 active torsions:
REMARK  status: ('A' for Active; 'I' for Inactive)
REMARK    1  A    between atoms: C_2  and  S_4
REMARK    2  A    between atoms: S_4  and  C_5
REMARK    3  A    between atoms: C_5  and  C_6
REMARK    4  A    between atoms: C_6  and  C_7
REMARK                            x       y       z     vdW  Elec       q    Type
REMARK                         _______ _______ _______ _____ _____    ______ ____
ROOT
ATOM      1  C   UNL     1       5.479   5.163  18.496  0.00  0.00    +0.000 C 
ENDROOT
BRANCH   1   2
ATOM      2  S   UNL     1       5.209   5.021  16.692  0.00  0.00    +0.000 S 
BRANCH   2   4
ATOM      3  N   UNL     1       7.342   5.536  15.158  0.00  0.00    +0.000 NA
ATOM      4  C   UNL     1       6.950   4.975  16.244  0.00  0.00    +0.000 C 
ATOM      5  N   UNL     1       7.874   4.309  17.091  0.00  0.00    +0.000 N 
ATOM      6  H   UNL     1       8.334   5.522  14.875  0.00  0.00    +0.000 HD
ATOM      7  H   UNL     1       8.876   4.273  16.858  0.00  0.00    +0.000 HD
ATOM      8  H   UNL     1       7.546   3.866  17.962  0.00  0.00    +0.000 HD
ENDBRANCH   2   4
ENDBRANCH   1   2
BRANCH   1   9
ATOM      9  C   UNL     1       5.058   3.887  19.240  0.00  0.00    +0.000 C 
BRANCH   9  10
ATOM     10  C   UNL     1       3.579   3.877  19.560  0.00  0.00    +0.000 A 
ATOM     11  C   UNL     1       3.005   5.010  20.169  0.00  0.00    +0.000 A 
ATOM     12  C   UNL     1       1.646   5.033  20.489  0.00  0.00    +0.000 A 
ATOM     13  C   UNL     1       0.842   3.927  20.215  0.00  0.00    +0.000 A 
ATOM     14  C   UNL     1       1.396   2.795  19.616  0.00  0.00    +0.000 A 
ATOM     15  C   UNL     1       2.756   2.758  19.285  0.00  0.00    +0.000 A 
ATOM     16 CL   UNL     1       3.373   1.286  18.539  0.00  0.00    +0.000 Cl
ENDBRANCH   9  10
ENDBRANCH   1   9
TORSDOF 4
ENDMDL
MODEL 6
REMARK VINA RESULT:      -5.8      1.997      2.438
REMARK  Name = 
REMARK  4 active torsions:
REMARK  status: ('A' for Active; 'I' for Inactive)
REMARK    1  A    between atoms: C_2  and  S_4
REMARK    2  A    between atoms: S_4  and  C_5
REMARK    3  A    between atoms: C_5  and  C_6
REMARK    4  A    between atoms: C_6  and  C_7
REMARK                            x       y       z     vdW  Elec       q    Type
REMARK                         _______ _______ _______ _____ _____    ______ ____
ROOT
ATOM      1  C   UNL     1       4.761   5.897  17.815  0.00  0.00    +0.000 C 
ENDROOT
BRANCH   1   2
ATOM      2  S   UNL     1       5.243   6.272  16.091  0.00  0.00    +0.000 S 
BRANCH   2   4
ATOM      3  N   UNL     1       6.666   4.143  16.872  0.00  0.00    +0.000 NA
ATOM      4  C   UNL     1       6.599   5.095  16.013  0.00  0.00    +0.000 C 
ATOM      5  N   UNL     1       7.591   5.233  15.007  0.00  0.00    +0.000 N 
ATOM      6  H   UNL     1       7.434   3.456  16.853  0.00  0.00    +0.000 HD
ATOM      7  H   UNL     1       8.374   4.569  14.939  0.00  0.00    +0.000 HD
ATOM      8  H   UNL     1       7.524   5.999  14.320  0.00  0.00    +0.000 HD
ENDBRANCH   2   4
ENDBRANCH   1   2
BRANCH   1   9
ATOM      9  C   UNL     1       3.246   6.030  18.027  0.00  0.00    +0.000 C 
BRANCH   9  10
ATOM     10  C   UNL     1       2.604   4.707  18.387  0.00  0.00    +0.000 A 
ATOM     11  C   UNL     1       2.755   3.614  17.512  0.00  0.00    +0.000 A 
ATOM     12  C   UNL     1       2.169   2.381  17.805  0.00  0.00    +0.000 A 
ATOM     13  C   UNL     1       1.418   2.222  18.969  0.00  0.00    +0.000 A 
ATOM     14  C   UNL     1       1.254   3.296  19.845  0.00  0.00    +0.000 A 
ATOM     15  C   UNL     1       1.839   4.537  19.567  0.00  0.00    +0.000 A 
ATOM     16 CL   UNL     1       1.575   5.840  20.723  0.00  0.00    +0.000 Cl
ENDBRANCH   9  10
ENDBRANCH   1   9
TORSDOF 4
ENDMDL
MODEL 7
REMARK VINA RESULT:      -5.8      2.089      2.505
REMARK  Name = 
REMARK  4 active torsions:
REMARK  status: ('A' for Active; 'I' for Inactive)
REMARK    1  A    between atoms: C_2  and  S_4
REMARK    2  A    between atoms: S_4  and  C_5
REMARK    3  A    between atoms: C_5  and  C_6
REMARK    4  A    between atoms: C_6  and  C_7
REMARK                            x       y       z     vdW  Elec       q    Type
REMARK                         _______ _______ _______ _____ _____    ______ ____
ROOT
ATOM      1  C   UNL     1       4.498   4.361  16.571  0.00  0.00    +0.000 C 
ENDROOT
BRANCH   1   2
ATOM      2  S   UNL     1       6.293   4.599  16.831  0.00  0.00    +0.000 S 
BRANCH   2   4
ATOM      3  N   UNL     1       6.246   3.573  14.358  0.00  0.00    +0.000 NA
ATOM      4  C   UNL     1       6.750   4.496  15.095  0.00  0.00    +0.000 C 
ATOM      5  N   UNL     1       7.673   5.430  14.557  0.00  0.00    +0.000 N 
ATOM      6  H   UNL     1       6.494   3.489  13.361  0.00  0.00    +0.000 HD
ATOM      7  H   UNL     1       7.946   5.395  13.565  0.00  0.00    +0.000 HD
ATOM      8  H   UNL     1       8.067   6.169  15.158  0.00  0.00    +0.000 HD
ENDBRANCH   2   4
ENDBRANCH   1   2
BRANCH   1   9
ATOM      9  C   UNL     1       3.663   5.242  17.513  0.00  0.00    +0.000 C 
BRANCH   9  10
ATOM     10  C   UNL     1       2.665   4.432  18.312  0.00  0.00    +0.000 A 
ATOM     11  C   UNL     1       2.373   3.115  17.907  0.00  0.00    +0.000 A 
ATOM     12  C   UNL     1       1.451   2.341  18.614  0.00  0.00    +0.000 A 
ATOM     13  C   UNL     1       0.800   2.870  19.727  0.00  0.00    +0.000 A 
ATOM     14  C   UNL     1       1.073   4.175  20.140  0.00  0.00    +0.000 A 
ATOM     15  C   UNL     1       1.999   4.961  19.445  0.00  0.00    +0.000 A 
ATOM     16 CL   UNL     1       2.277   6.600  20.029  0.00  0.00    +0.000 Cl
ENDBRANCH   9  10
ENDBRANCH   1   9
TORSDOF 4
ENDMDL
MODEL 8
REMARK VINA RESULT:      -5.8      1.841      2.321
REMARK  Name = 
REMARK  4 active torsions:
REMARK  status: ('A' for Active; 'I' for Inactive)
REMARK    1  A    between atoms: C_2  and  S_4
REMARK    2  A    between atoms: S_4  and  C_5
REMARK    3  A    between atoms: C_5  and  C_6
REMARK    4  A    between atoms: C_6  and  C_7
REMARK                            x       y       z     vdW  Elec       q    Type
REMARK                         _______ _______ _______ _____ _____    ______ ____
ROOT
ATOM      1  C   UNL     1       5.075   4.992  18.037  0.00  0.00    +0.000 C 
ENDROOT
BRANCH   1   2
ATOM      2  S   UNL     1       6.111   6.247  17.200  0.00  0.00    +0.000 S 
BRANCH   2   4
ATOM      3  N   UNL     1       7.900   4.255  17.179  0.00  0.00    +0.000 NA
ATOM      4  C   UNL     1       7.247   5.079  16.441  0.00  0.00    +0.000 C 
ATOM      5  N   UNL     1       7.419   5.084  15.033  0.00  0.00    +0.000 N 
ATOM      6  H   UNL     1       8.561   3.578  16.770  0.00  0.00    +0.000 HD
ATOM      7  H   UNL     1       8.060   4.422  14.574  0.00  0.00    +0.000 HD
ATOM      8  H   UNL     1       6.886   5.747  14.451  0.00  0.00    +0.000 HD
ENDBRANCH   2   4
ENDBRANCH   1   2
BRANCH   1   9
ATOM      9  C   UNL     1       3.691   4.865  17.383  0.00  0.00    +0.000 C 
BRANCH   9  10
ATOM     10  C   UNL     1       2.704   4.145  18.276  0.00  0.00    +0.000 A 
ATOM     11  C   UNL     1       2.440   2.781  18.042  0.00  0.00    +0.000 A 
ATOM     12  C   UNL     1       1.528   2.086  18.838  0.00  0.00    +0.000 A 
ATOM     13  C   UNL     1       0.861   2.740  19.873  0.00  0.00    +0.000 A 
ATOM     14  C   UNL     1       1.107   4.092  20.117  0.00  0.00    +0.000 A 
ATOM     15  C   UNL     1       2.022   4.801  19.330  0.00  0.00    +0.000 A 
ATOM     16 CL   UNL     1       2.267   6.506  19.701  0.00  0.00    +0.000 Cl
ENDBRANCH   9  10
ENDBRANCH   1   9
TORSDOF 4
ENDMDL
MODEL 9
REMARK VINA RESULT:      -5.7      2.368      2.890
REMARK  Name = 
REMARK  4 active torsions:
REMARK  status: ('A' for Active; 'I' for Inactive)
REMARK    1  A    between atoms: C_2  and  S_4
REMARK    2  A    between atoms: S_4  and  C_5
REMARK    3  A    between atoms: C_5  and  C_6
REMARK    4  A    between atoms: C_6  and  C_7
REMARK                            x       y       z     vdW  Elec       q    Type
REMARK                         _______ _______ _______ _____ _____    ______ ____
ROOT
ATOM      1  C   UNL     1       3.890   5.738  17.443  0.00  0.00    +0.000 C 
ENDROOT
BRANCH   1   2
ATOM      2  S   UNL     1       4.967   5.854  18.917  0.00  0.00    +0.000 S 
BRANCH   2   4
ATOM      3  N   UNL     1       5.268   3.203  19.150  0.00  0.00    +0.000 NA
ATOM      4  C   UNL     1       5.791   4.275  18.673  0.00  0.00    +0.000 C 
ATOM      5  N   UNL     1       7.019   4.227  17.963  0.00  0.00    +0.000 N 
ATOM      6  H   UNL     1       5.721   2.285  19.028  0.00  0.00    +0.000 HD
ATOM      7  H   UNL     1       7.507   3.334  17.806  0.00  0.00    +0.000 HD
ATOM      8  H   UNL     1       7.426   5.093  17.580  0.00  0.00    +0.000 HD
ENDBRANCH   2   4
ENDBRANCH   1   2
BRANCH   1   9
ATOM      9  C   UNL     1       2.403   5.842  17.811  0.00  0.00    +0.000 C 
BRANCH   9  10
ATOM     10  C   UNL     1       1.934   4.655  18.623  0.00  0.00    +0.000 A 
ATOM     11  C   UNL     1       1.836   3.396  17.999  0.00  0.00    +0.000 A 
ATOM     12  C   UNL     1       1.398   2.279  18.712  0.00  0.00    +0.000 A 
ATOM     13  C   UNL     1       1.042   2.401  20.055  0.00  0.00    +0.000 A 
ATOM     14  C   UNL     1       1.127   3.642  20.689  0.00  0.00    +0.000 A 
ATOM     15  C   UNL     1       1.570   4.770  19.988  0.00  0.00    +0.000 A 
ATOM     16 CL   UNL     1       1.640   6.298  20.862  0.00  0.00    +0.000 Cl
ENDBRANCH   9  10
ENDBRANCH   1   9
TORSDOF 4
ENDMDL
