MODEL 1
REMARK VINA RESULT:      -7.1      0.000      0.000
REMARK  Name = 
REMARK  16 active torsions:
REMARK  status: ('A' for Active; 'I' for Inactive)
REMARK    1  A    between atoms: C_1  and  C_2
REMARK    2  A    between atoms: C_2  and  N_3
REMARK    3  A    between atoms: N_3  and  C_4
REMARK    4  A    between atoms: N_3  and  C_6
REMARK    5  A    between atoms: C_4  and  C_5
REMARK    6  A    between atoms: C_6  and  C_7
REMARK    7  A    between atoms: C_7  and  N_8
REMARK    8  A    between atoms: N_8  and  C_9
REMARK    9  A    between atoms: C_21  and  N_22
REMARK   10  A    between atoms: N_22  and  C_23
REMARK   11  A    between atoms: C_23  and  C_24
REMARK   12  A    between atoms: C_24  and  N_25
REMARK   13  A    between atoms: N_25  and  C_26
REMARK   14  A    between atoms: N_25  and  C_28
REMARK   15  A    between atoms: C_26  and  C_27
REMARK   16  A    between atoms: C_28  and  C_29
REMARK                            x       y       z     vdW  Elec       q    Type
REMARK                         _______ _______ _______ _____ _____    ______ ____
ROOT
ATOM      1  C   UNL     1       1.771   7.915  19.945  0.00  0.00    +0.000 A 
ATOM      2  C   UNL     1       2.193   7.733  18.613  0.00  0.00    +0.000 A 
ATOM      3  C   UNL     1       1.876   8.646  17.606  0.00  0.00    +0.000 A 
ATOM      4  C   UNL     1       1.137   9.779  17.914  0.00  0.00    +0.000 A 
ATOM      5  C   UNL     1       0.748  10.021  19.233  0.00  0.00    +0.000 A 
ATOM      6  C   UNL     1       1.096   9.116  20.257  0.00  0.00    +0.000 A 
ATOM      7  C   UNL     1       0.798   9.573  21.634  0.00  0.00    +0.000 C 
ATOM      8  O   UNL     1       1.492   9.268  22.595  0.00  0.00    +0.000 OA
ATOM      9  C   UNL     1      -0.330  10.500  21.850  0.00  0.00    +0.000 A 
ATOM     10  C   UNL     1      -0.891  10.574  23.126  0.00  0.00    +0.000 A 
ATOM     11  C   UNL     1      -1.949  11.439  23.367  0.00  0.00    +0.000 A 
ATOM     12  C   UNL     1      -2.422  12.236  22.331  0.00  0.00    +0.000 A 
ATOM     13  C   UNL     1      -1.815  12.266  21.055  0.00  0.00    +0.000 A 
ATOM     14  C   UNL     1      -0.774  11.334  20.815  0.00  0.00    +0.000 A 
ATOM     15  C   UNL     1      -0.024  11.254  19.535  0.00  0.00    +0.000 C 
ATOM     16  O   UNL     1      -0.037  12.195  18.749  0.00  0.00    +0.000 OA
ENDROOT
BRANCH   1  17
ATOM     17  N   UNL     1       2.124   6.862  20.801  0.00  0.00    +0.000 N 
ATOM     18  H   UNL     1       1.354   6.577  21.407  0.00  0.00    +0.000 HD
BRANCH  17  19
ATOM     19  C   UNL     1       2.863   5.703  20.308  0.00  0.00    +0.000 C 
BRANCH  19  20
ATOM     20  C   UNL     1       2.086   4.389  20.572  0.00  0.00    +0.000 C 
BRANCH  20  21
ATOM     21  N   UNL     1       2.781   3.121  20.236  0.00  0.00    +0.000 NA
BRANCH  21  23
ATOM     22  C   UNL     1       0.602   2.776  18.997  0.00  0.00    +0.000 C 
ATOM     23  C   UNL     1       1.882   2.167  19.564  0.00  0.00    +0.000 C 
ENDBRANCH  21  23
BRANCH  21  24
ATOM     24  C   UNL     1       4.030   3.387  19.502  0.00  0.00    +0.000 C 
ATOM     25  C   UNL     1       4.039   3.000  18.023  0.00  0.00    +0.000 C 
ENDBRANCH  21  24
ENDBRANCH  20  21
ENDBRANCH  19  20
ENDBRANCH  17  19
ENDBRANCH   1  17
BRANCH  13  26
ATOM     26  N   UNL     1      -2.320  13.158  20.056  0.00  0.00    +0.000 N 
ATOM     27  H   UNL     1      -1.934  14.102  20.193  0.00  0.00    +0.000 HD
BRANCH  26  28
ATOM     28  C   UNL     1      -3.794  13.109  19.925  0.00  0.00    +0.000 C 
BRANCH  28  29
ATOM     29  C   UNL     1      -4.405  11.896  19.191  0.00  0.00    +0.000 C 
BRANCH  29  30
ATOM     30  N   UNL     1      -3.698  11.592  17.904  0.00  0.00    +0.000 NA
BRANCH  30  31
ATOM     31  C   UNL     1      -2.974  10.307  17.899  0.00  0.00    +0.000 C 
ATOM     32  C   UNL     1      -2.606   9.748  16.528  0.00  0.00    +0.000 C 
ENDBRANCH  30  31
BRANCH  30  33
ATOM     33  C   UNL     1      -4.607  11.755  16.756  0.00  0.00    +0.000 C 
ATOM     34  C   UNL     1      -5.945  12.415  17.093  0.00  0.00    +0.000 C 
ENDBRANCH  30  33
ENDBRANCH  29  30
ENDBRANCH  28  29
ENDBRANCH  26  28
ENDBRANCH  13  26
TORSDOF 12
ENDMDL
MODEL 2
REMARK VINA RESULT:      -6.9      1.000      1.604
REMARK  Name = 
REMARK  16 active torsions:
REMARK  status: ('A' for Active; 'I' for Inactive)
REMARK    1  A    between atoms: C_1  and  C_2
REMARK    2  A    between atoms: C_2  and  N_3
REMARK    3  A    between atoms: N_3  and  C_4
REMARK    4  A    between atoms: N_3  and  C_6
REMARK    5  A    between atoms: C_4  and  C_5
REMARK    6  A    between atoms: C_6  and  C_7
REMARK    7  A    between atoms: C_7  and  N_8
REMARK    8  A    between atoms: N_8  and  C_9
REMARK    9  A    between atoms: C_21  and  N_22
REMARK   10  A    between atoms: N_22  and  C_23
REMARK   11  A    between atoms: C_23  and  C_24
REMARK   12  A    between atoms: C_24  and  N_25
REMARK   13  A    between atoms: N_25  and  C_26
REMARK   14  A    between atoms: N_25  and  C_28
REMARK   15  A    between atoms: C_26  and  C_27
REMARK   16  A    between atoms: C_28  and  C_29
REMARK                            x       y       z     vdW  Elec       q    Type
REMARK                         _______ _______ _______ _____ _____    ______ ____
ROOT
ATOM      1  C   UNL     1       2.056   7.510  19.862  0.00  0.00    +0.000 A 
ATOM      2  C   UNL     1       2.510   7.376  18.534  0.00  0.00    +0.000 A 
ATOM      3  C   UNL     1       2.260   8.349  17.566  0.00  0.00    +0.000 A 
ATOM      4  C   UNL     1       1.559   9.496  17.909  0.00  0.00    +0.000 A 
ATOM      5  C   UNL     1       1.142   9.690  19.227  0.00  0.00    +0.000 A 
ATOM      6  C   UNL     1       1.422   8.722  20.215  0.00  0.00    +0.000 A 
ATOM      7  C   UNL     1       1.103   9.124  21.604  0.00  0.00    +0.000 C 
ATOM      8  O   UNL     1       1.755   8.743  22.566  0.00  0.00    +0.000 OA
ATOM      9  C   UNL     1       0.008  10.086  21.835  0.00  0.00    +0.000 A 
ATOM     10  C   UNL     1      -0.587  10.122  23.097  0.00  0.00    +0.000 A 
ATOM     11  C   UNL     1      -1.615  11.018  23.351  0.00  0.00    +0.000 A 
ATOM     12  C   UNL     1      -2.025  11.884  22.345  0.00  0.00    +0.000 A 
ATOM     13  C   UNL     1      -1.380  11.950  21.088  0.00  0.00    +0.000 A 
ATOM     14  C   UNL     1      -0.371  10.988  20.831  0.00  0.00    +0.000 A 
ATOM     15  C   UNL     1       0.412  10.938  19.569  0.00  0.00    +0.000 C 
ATOM     16  O   UNL     1       0.462  11.916  18.831  0.00  0.00    +0.000 OA
ENDROOT
BRANCH   1  17
ATOM     17  N   UNL     1       2.340   6.403  20.673  0.00  0.00    +0.000 N 
ATOM     18  H   UNL     1       2.517   6.665  21.643  0.00  0.00    +0.000 HD
BRANCH  17  19
ATOM     19  C   UNL     1       1.540   5.183  20.595  0.00  0.00    +0.000 C 
BRANCH  19  20
ATOM     20  C   UNL     1       2.151   4.176  19.589  0.00  0.00    +0.000 C 
BRANCH  20  21
ATOM     21  N   UNL     1       3.589   3.847  19.761  0.00  0.00    +0.000 NA
BRANCH  21  23
ATOM     22  C   UNL     1       3.488   1.608  18.590  0.00  0.00    +0.000 C 
ATOM     23  C   UNL     1       3.809   2.394  19.858  0.00  0.00    +0.000 C 
ENDBRANCH  21  23
BRANCH  21  24
ATOM     24  C   UNL     1       4.405   4.511  18.729  0.00  0.00    +0.000 C 
ATOM     25  C   UNL     1       5.754   5.062  19.189  0.00  0.00    +0.000 C 
ENDBRANCH  21  24
ENDBRANCH  20  21
ENDBRANCH  19  20
ENDBRANCH  17  19
ENDBRANCH   1  17
BRANCH  13  26
ATOM     26  N   UNL     1      -1.818  12.910  20.122  0.00  0.00    +0.000 N 
ATOM     27  H   UNL     1      -1.861  13.847  20.545  0.00  0.00    +0.000 HD
BRANCH  26  28
ATOM     28  C   UNL     1      -3.049  12.498  19.410  0.00  0.00    +0.000 C 
BRANCH  28  29
ATOM     29  C   UNL     1      -2.882  11.656  18.127  0.00  0.00    +0.000 C 
BRANCH  29  30
ATOM     30  N   UNL     1      -4.138  10.926  17.756  0.00  0.00    +0.000 NA
BRANCH  30  31
ATOM     31  C   UNL     1      -5.380  11.615  18.154  0.00  0.00    +0.000 C 
ATOM     32  C   UNL     1      -5.988  12.557  17.120  0.00  0.00    +0.000 C 
ENDBRANCH  30  31
BRANCH  30  33
ATOM     33  C   UNL     1      -4.117  10.536  16.335  0.00  0.00    +0.000 C 
ATOM     34  C   UNL     1      -2.856  10.955  15.580  0.00  0.00    +0.000 C 
ENDBRANCH  30  33
ENDBRANCH  29  30
ENDBRANCH  28  29
ENDBRANCH  26  28
ENDBRANCH  13  26
TORSDOF 12
ENDMDL
MODEL 3
REMARK VINA RESULT:      -6.8      1.056      1.310
REMARK  Name = 
REMARK  16 active torsions:
REMARK  status: ('A' for Active; 'I' for Inactive)
REMARK    1  A    between atoms: C_1  and  C_2
REMARK    2  A    between atoms: C_2  and  N_3
REMARK    3  A    between atoms: N_3  and  C_4
REMARK    4  A    between atoms: N_3  and  C_6
REMARK    5  A    between atoms: C_4  and  C_5
REMARK    6  A    between atoms: C_6  and  C_7
REMARK    7  A    between atoms: C_7  and  N_8
REMARK    8  A    between atoms: N_8  and  C_9
REMARK    9  A    between atoms: C_21  and  N_22
REMARK   10  A    between atoms: N_22  and  C_23
REMARK   11  A    between atoms: C_23  and  C_24
REMARK   12  A    between atoms: C_24  and  N_25
REMARK   13  A    between atoms: N_25  and  C_26
REMARK   14  A    between atoms: N_25  and  C_28
REMARK   15  A    between atoms: C_26  and  C_27
REMARK   16  A    between atoms: C_28  and  C_29
REMARK                            x       y       z     vdW  Elec       q    Type
REMARK                         _______ _______ _______ _____ _____    ______ ____
ROOT
ATOM      1  C   UNL     1       2.261   7.252  19.691  0.00  0.00    +0.000 A 
ATOM      2  C   UNL     1       2.701   7.129  18.358  0.00  0.00    +0.000 A 
ATOM      3  C   UNL     1       2.457   8.119  17.406  0.00  0.00    +0.000 A 
ATOM      4  C   UNL     1       1.777   9.271  17.772  0.00  0.00    +0.000 A 
ATOM      5  C   UNL     1       1.375   9.453  19.096  0.00  0.00    +0.000 A 
ATOM      6  C   UNL     1       1.648   8.468  20.067  0.00  0.00    +0.000 A 
ATOM      7  C   UNL     1       1.348   8.855  21.464  0.00  0.00    +0.000 C 
ATOM      8  O   UNL     1       2.003   8.451  22.416  0.00  0.00    +0.000 OA
ATOM      9  C   UNL     1       0.270   9.830  21.719  0.00  0.00    +0.000 A 
ATOM     10  C   UNL     1      -0.313   9.857  22.987  0.00  0.00    +0.000 A 
ATOM     11  C   UNL     1      -1.326  10.765  23.263  0.00  0.00    +0.000 A 
ATOM     12  C   UNL     1      -1.731  11.650  22.272  0.00  0.00    +0.000 A 
ATOM     13  C   UNL     1      -1.097  11.724  21.011  0.00  0.00    +0.000 A 
ATOM     14  C   UNL     1      -0.105  10.751  20.731  0.00  0.00    +0.000 A 
ATOM     15  C   UNL     1       0.667  10.707  19.461  0.00  0.00    +0.000 C 
ATOM     16  O   UNL     1       0.724  11.695  18.737  0.00  0.00    +0.000 OA
ENDROOT
BRANCH   1  17
ATOM     17  N   UNL     1       2.536   6.129  20.485  0.00  0.00    +0.000 N 
ATOM     18  H   UNL     1       3.021   6.371  21.349  0.00  0.00    +0.000 HD
BRANCH  17  19
ATOM     19  C   UNL     1       1.523   5.102  20.719  0.00  0.00    +0.000 C 
BRANCH  19  20
ATOM     20  C   UNL     1       1.343   4.199  19.474  0.00  0.00    +0.000 C 
BRANCH  20  21
ATOM     21  N   UNL     1       1.843   2.805  19.581  0.00  0.00    +0.000 NA
BRANCH  21  23
ATOM     22  C   UNL     1       2.562   3.378  17.225  0.00  0.00    +0.000 C 
ATOM     23  C   UNL     1       2.355   2.307  18.293  0.00  0.00    +0.000 C 
ENDBRANCH  21  23
BRANCH  21  24
ATOM     24  C   UNL     1       2.795   2.673  20.698  0.00  0.00    +0.000 C 
ATOM     25  C   UNL     1       4.228   2.300  20.321  0.00  0.00    +0.000 C 
ENDBRANCH  21  24
ENDBRANCH  20  21
ENDBRANCH  19  20
ENDBRANCH  17  19
ENDBRANCH   1  17
BRANCH  13  26
ATOM     26  N   UNL     1      -1.529  12.704  20.062  0.00  0.00    +0.000 N 
ATOM     27  H   UNL     1      -1.450  13.649  20.463  0.00  0.00    +0.000 HD
BRANCH  26  28
ATOM     28  C   UNL     1      -2.850  12.396  19.469  0.00  0.00    +0.000 C 
BRANCH  28  29
ATOM     29  C   UNL     1      -2.879  11.472  18.233  0.00  0.00    +0.000 C 
BRANCH  29  30
ATOM     30  N   UNL     1      -4.030  11.772  17.321  0.00  0.00    +0.000 NA
BRANCH  30  31
ATOM     31  C   UNL     1      -4.209  10.797  16.229  0.00  0.00    +0.000 C 
ATOM     32  C   UNL     1      -3.027   9.874  15.950  0.00  0.00    +0.000 C 
ENDBRANCH  30  31
BRANCH  30  33
ATOM     33  C   UNL     1      -5.261  12.016  18.093  0.00  0.00    +0.000 C 
ATOM     34  C   UNL     1      -6.222  10.828  18.149  0.00  0.00    +0.000 C 
ENDBRANCH  30  33
ENDBRANCH  29  30
ENDBRANCH  28  29
ENDBRANCH  26  28
ENDBRANCH  13  26
TORSDOF 12
ENDMDL
MODEL 4
REMARK VINA RESULT:      -6.8      0.865      1.463
REMARK  Name = 
REMARK  16 active torsions:
REMARK  status: ('A' for Active; 'I' for Inactive)
REMARK    1  A    between atoms: C_1  and  C_2
REMARK    2  A    between atoms: C_2  and  N_3
REMARK    3  A    between atoms: N_3  and  C_4
REMARK    4  A    between atoms: N_3  and  C_6
REMARK    5  A    between atoms: C_4  and  C_5
REMARK    6  A    between atoms: C_6  and  C_7
REMARK    7  A    between atoms: C_7  and  N_8
REMARK    8  A    between atoms: N_8  and  C_9
REMARK    9  A    between atoms: C_21  and  N_22
REMARK   10  A    between atoms: N_22  and  C_23
REMARK   11  A    between atoms: C_23  and  C_24
REMARK   12  A    between atoms: C_24  and  N_25
REMARK   13  A    between atoms: N_25  and  C_26
REMARK   14  A    between atoms: N_25  and  C_28
REMARK   15  A    between atoms: C_26  and  C_27
REMARK   16  A    between atoms: C_28  and  C_29
REMARK                            x       y       z     vdW  Elec       q    Type
REMARK                         _______ _______ _______ _____ _____    ______ ____
ROOT
ATOM      1  C   UNL     1       2.033   7.490  19.863  0.00  0.00    +0.000 A 
ATOM      2  C   UNL     1       2.477   7.291  18.541  0.00  0.00    +0.000 A 
ATOM      3  C   UNL     1       2.210   8.211  17.526  0.00  0.00    +0.000 A 
ATOM      4  C   UNL     1       1.502   9.368  17.816  0.00  0.00    +0.000 A 
ATOM      5  C   UNL     1       1.094   9.626  19.126  0.00  0.00    +0.000 A 
ATOM      6  C   UNL     1       1.391   8.713  20.159  0.00  0.00    +0.000 A 
ATOM      7  C   UNL     1       1.080   9.183  21.529  0.00  0.00    +0.000 C 
ATOM      8  O   UNL     1       1.744   8.857  22.504  0.00  0.00    +0.000 OA
ATOM      9  C   UNL     1      -0.022  10.146  21.720  0.00  0.00    +0.000 A 
ATOM     10  C   UNL     1      -0.606  10.242  22.984  0.00  0.00    +0.000 A 
ATOM     11  C   UNL     1      -1.640  11.141  23.200  0.00  0.00    +0.000 A 
ATOM     12  C   UNL     1      -2.066  11.950  22.154  0.00  0.00    +0.000 A 
ATOM     13  C   UNL     1      -1.432  11.957  20.890  0.00  0.00    +0.000 A 
ATOM     14  C   UNL     1      -0.418  10.992  20.674  0.00  0.00    +0.000 A 
ATOM     15  C   UNL     1       0.356  10.884  19.409  0.00  0.00    +0.000 C 
ATOM     16  O   UNL     1       0.390  11.823  18.622  0.00  0.00    +0.000 OA
ENDROOT
BRANCH   1  17
ATOM     17  N   UNL     1       2.334   6.428  20.728  0.00  0.00    +0.000 N 
ATOM     18  H   UNL     1       2.656   6.748  21.642  0.00  0.00    +0.000 HD
BRANCH  17  19
ATOM     19  C   UNL     1       1.439   5.282  20.858  0.00  0.00    +0.000 C 
BRANCH  19  20
ATOM     20  C   UNL     1       2.223   3.997  21.226  0.00  0.00    +0.000 C 
BRANCH  20  21
ATOM     21  N   UNL     1       2.587   3.092  20.107  0.00  0.00    +0.000 NA
BRANCH  21  23
ATOM     22  C   UNL     1       0.588   2.371  18.735  0.00  0.00    +0.000 C 
ATOM     23  C   UNL     1       1.756   3.336  18.915  0.00  0.00    +0.000 C 
ENDBRANCH  21  23
BRANCH  21  24
ATOM     24  C   UNL     1       4.036   3.134  19.847  0.00  0.00    +0.000 C 
ATOM     25  C   UNL     1       4.831   1.896  20.259  0.00  0.00    +0.000 C 
ENDBRANCH  21  24
ENDBRANCH  20  21
ENDBRANCH  19  20
ENDBRANCH  17  19
ENDBRANCH   1  17
BRANCH  13  26
ATOM     26  N   UNL     1      -1.887  12.862  19.880  0.00  0.00    +0.000 N 
ATOM     27  H   UNL     1      -1.937  13.819  20.254  0.00  0.00    +0.000 HD
BRANCH  26  28
ATOM     28  C   UNL     1      -3.120  12.403  19.200  0.00  0.00    +0.000 C 
BRANCH  28  29
ATOM     29  C   UNL     1      -3.016  11.149  18.307  0.00  0.00    +0.000 C 
BRANCH  29  30
ATOM     30  N   UNL     1      -4.065  11.121  17.236  0.00  0.00    +0.000 NA
BRANCH  30  31
ATOM     31  C   UNL     1      -5.218  12.005  17.494  0.00  0.00    +0.000 C 
ATOM     32  C   UNL     1      -6.490  11.325  17.991  0.00  0.00    +0.000 C 
ENDBRANCH  30  31
BRANCH  30  33
ATOM     33  C   UNL     1      -3.463  11.320  15.907  0.00  0.00    +0.000 C 
ATOM     34  C   UNL     1      -3.467  10.078  15.015  0.00  0.00    +0.000 C 
ENDBRANCH  30  33
ENDBRANCH  29  30
ENDBRANCH  28  29
ENDBRANCH  26  28
ENDBRANCH  13  26
TORSDOF 12
ENDMDL
MODEL 5
REMARK VINA RESULT:      -6.7      0.943      1.149
REMARK  Name = 
REMARK  16 active torsions:
REMARK  status: ('A' for Active; 'I' for Inactive)
REMARK    1  A    between atoms: C_1  and  C_2
REMARK    2  A    between atoms: C_2  and  N_3
REMARK    3  A    between atoms: N_3  and  C_4
REMARK    4  A    between atoms: N_3  and  C_6
REMARK    5  A    between atoms: C_4  and  C_5
REMARK    6  A    between atoms: C_6  and  C_7
REMARK    7  A    between atoms: C_7  and  N_8
REMARK    8  A    between atoms: N_8  and  C_9
REMARK    9  A    between atoms: C_21  and  N_22
REMARK   10  A    between atoms: N_22  and  C_23
REMARK   11  A    between atoms: C_23  and  C_24
REMARK   12  A    between atoms: C_24  and  N_25
REMARK   13  A    between atoms: N_25  and  C_26
REMARK   14  A    between atoms: N_25  and  C_28
REMARK   15  A    between atoms: C_26  and  C_27
REMARK   16  A    between atoms: C_28  and  C_29
REMARK                            x       y       z     vdW  Elec       q    Type
REMARK                         _______ _______ _______ _____ _____    ______ ____
ROOT
ATOM      1  C   UNL     1       2.063   7.529  19.793  0.00  0.00    +0.000 A 
ATOM      2  C   UNL     1       2.534   7.417  18.470  0.00  0.00    +0.000 A 
ATOM      3  C   UNL     1       2.317   8.417  17.521  0.00  0.00    +0.000 A 
ATOM      4  C   UNL     1       1.634   9.570  17.882  0.00  0.00    +0.000 A 
ATOM      5  C   UNL     1       1.201   9.741  19.198  0.00  0.00    +0.000 A 
ATOM      6  C   UNL     1       1.447   8.745  20.166  0.00  0.00    +0.000 A 
ATOM      7  C   UNL     1       1.116   9.120  21.560  0.00  0.00    +0.000 C 
ATOM      8  O   UNL     1       1.747   8.703  22.522  0.00  0.00    +0.000 OA
ATOM      9  C   UNL     1       0.037  10.098  21.798  0.00  0.00    +0.000 A 
ATOM     10  C   UNL     1      -0.576  10.116  23.052  0.00  0.00    +0.000 A 
ATOM     11  C   UNL     1      -1.590  11.026  23.313  0.00  0.00    +0.000 A 
ATOM     12  C   UNL     1      -1.968  11.923  22.322  0.00  0.00    +0.000 A 
ATOM     13  C   UNL     1      -1.303  12.006  21.077  0.00  0.00    +0.000 A 
ATOM     14  C   UNL     1      -0.310  11.031  20.811  0.00  0.00    +0.000 A 
ATOM     15  C   UNL     1       0.491  10.995  19.559  0.00  0.00    +0.000 C 
ATOM     16  O   UNL     1       0.570  11.989  18.846  0.00  0.00    +0.000 OA
ENDROOT
BRANCH   1  17
ATOM     17  N   UNL     1       2.314   6.398  20.582  0.00  0.00    +0.000 N 
ATOM     18  H   UNL     1       2.744   6.633  21.477  0.00  0.00    +0.000 HD
BRANCH  17  19
ATOM     19  C   UNL     1       1.310   5.349  20.740  0.00  0.00    +0.000 C 
BRANCH  19  20
ATOM     20  C   UNL     1       1.485   4.240  19.673  0.00  0.00    +0.000 C 
BRANCH  20  21
ATOM     21  N   UNL     1       2.864   4.000  19.178  0.00  0.00    +0.000 NA
BRANCH  21  23
ATOM     22  C   UNL     1       3.475   1.589  18.718  0.00  0.00    +0.000 C 
ATOM     23  C   UNL     1       3.425   2.746  19.711  0.00  0.00    +0.000 C 
ENDBRANCH  21  23
BRANCH  21  24
ATOM     24  C   UNL     1       2.920   4.106  17.709  0.00  0.00    +0.000 C 
ATOM     25  C   UNL     1       4.212   4.675  17.124  0.00  0.00    +0.000 C 
ENDBRANCH  21  24
ENDBRANCH  20  21
ENDBRANCH  19  20
ENDBRANCH  17  19
ENDBRANCH   1  17
BRANCH  13  26
ATOM     26  N   UNL     1      -1.709  12.997  20.127  0.00  0.00    +0.000 N 
ATOM     27  H   UNL     1      -1.622  13.938  20.535  0.00  0.00    +0.000 HD
BRANCH  26  28
ATOM     28  C   UNL     1      -3.026  12.711  19.514  0.00  0.00    +0.000 C 
BRANCH  28  29
ATOM     29  C   UNL     1      -3.186  11.373  18.762  0.00  0.00    +0.000 C 
BRANCH  29  30
ATOM     30  N   UNL     1      -3.437  11.568  17.297  0.00  0.00    +0.000 NA
BRANCH  30  31
ATOM     31  C   UNL     1      -2.425  10.951  16.420  0.00  0.00    +0.000 C 
ATOM     32  C   UNL     1      -2.920  10.455  15.064  0.00  0.00    +0.000 C 
ENDBRANCH  30  31
BRANCH  30  33
ATOM     33  C   UNL     1      -4.819  11.194  16.947  0.00  0.00    +0.000 C 
ATOM     34  C   UNL     1      -5.897  12.058  17.602  0.00  0.00    +0.000 C 
ENDBRANCH  30  33
ENDBRANCH  29  30
ENDBRANCH  28  29
ENDBRANCH  26  28
ENDBRANCH  13  26
TORSDOF 12
ENDMDL
MODEL 6
REMARK VINA RESULT:      -6.7      1.583      2.601
REMARK  Name = 
REMARK  16 active torsions:
REMARK  status: ('A' for Active; 'I' for Inactive)
REMARK    1  A    between atoms: C_1  and  C_2
REMARK    2  A    between atoms: C_2  and  N_3
REMARK    3  A    between atoms: N_3  and  C_4
REMARK    4  A    between atoms: N_3  and  C_6
REMARK    5  A    between atoms: C_4  and  C_5
REMARK    6  A    between atoms: C_6  and  C_7
REMARK    7  A    between atoms: C_7  and  N_8
REMARK    8  A    between atoms: N_8  and  C_9
REMARK    9  A    between atoms: C_21  and  N_22
REMARK   10  A    between atoms: N_22  and  C_23
REMARK   11  A    between atoms: C_23  and  C_24
REMARK   12  A    between atoms: C_24  and  N_25
REMARK   13  A    between atoms: N_25  and  C_26
REMARK   14  A    between atoms: N_25  and  C_28
REMARK   15  A    between atoms: C_26  and  C_27
REMARK   16  A    between atoms: C_28  and  C_29
REMARK                            x       y       z     vdW  Elec       q    Type
REMARK                         _______ _______ _______ _____ _____    ______ ____
ROOT
ATOM      1  C   UNL     1       1.810   7.910  19.937  0.00  0.00    +0.000 A 
ATOM      2  C   UNL     1       2.211   7.719  18.600  0.00  0.00    +0.000 A 
ATOM      3  C   UNL     1       1.847   8.604  17.585  0.00  0.00    +0.000 A 
ATOM      4  C   UNL     1       1.081   9.720  17.890  0.00  0.00    +0.000 A 
ATOM      5  C   UNL     1       0.711   9.973  19.211  0.00  0.00    +0.000 A 
ATOM      6  C   UNL     1       1.105   9.096  20.243  0.00  0.00    +0.000 A 
ATOM      7  C   UNL     1       0.822   9.566  21.618  0.00  0.00    +0.000 C 
ATOM      8  O   UNL     1       1.543   9.297  22.569  0.00  0.00    +0.000 OA
ATOM      9  C   UNL     1      -0.329  10.463  21.842  0.00  0.00    +0.000 A 
ATOM     10  C   UNL     1      -0.867  10.542  23.128  0.00  0.00    +0.000 A 
ATOM     11  C   UNL     1      -1.945  11.379  23.376  0.00  0.00    +0.000 A 
ATOM     12  C   UNL     1      -2.462  12.144  22.337  0.00  0.00    +0.000 A 
ATOM     13  C   UNL     1      -1.882  12.171  21.049  0.00  0.00    +0.000 A 
ATOM     14  C   UNL     1      -0.819  11.267  20.803  0.00  0.00    +0.000 A 
ATOM     15  C   UNL     1      -0.091  11.187  19.509  0.00  0.00    +0.000 C 
ATOM     16  O   UNL     1      -0.147  12.114  18.709  0.00  0.00    +0.000 OA
ENDROOT
BRANCH   1  17
ATOM     17  N   UNL     1       2.210   6.882  20.802  0.00  0.00    +0.000 N 
ATOM     18  H   UNL     1       2.166   7.158  21.783  0.00  0.00    +0.000 HD
BRANCH  17  19
ATOM     19  C   UNL     1       1.738   5.512  20.619  0.00  0.00    +0.000 C 
BRANCH  19  20
ATOM     20  C   UNL     1       2.922   4.534  20.416  0.00  0.00    +0.000 C 
BRANCH  20  21
ATOM     21  N   UNL     1       3.621   4.592  19.107  0.00  0.00    +0.000 NA
BRANCH  21  23
ATOM     22  C   UNL     1       5.982   4.621  18.199  0.00  0.00    +0.000 C 
ATOM     23  C   UNL     1       4.988   5.124  19.242  0.00  0.00    +0.000 C 
ENDBRANCH  21  23
BRANCH  21  24
ATOM     24  C   UNL     1       3.548   3.294  18.414  0.00  0.00    +0.000 C 
ATOM     25  C   UNL     1       2.780   2.187  19.136  0.00  0.00    +0.000 C 
ENDBRANCH  21  24
ENDBRANCH  20  21
ENDBRANCH  19  20
ENDBRANCH  17  19
ENDBRANCH   1  17
BRANCH  13  26
ATOM     26  N   UNL     1      -2.432  13.031  20.046  0.00  0.00    +0.000 N 
ATOM     27  H   UNL     1      -2.472  14.000  20.390  0.00  0.00    +0.000 HD
BRANCH  26  28
ATOM     28  C   UNL     1      -3.704  12.526  19.481  0.00  0.00    +0.000 C 
BRANCH  28  29
ATOM     29  C   UNL     1      -5.017  13.107  20.049  0.00  0.00    +0.000 C 
BRANCH  29  30
ATOM     30  N   UNL     1      -5.762  12.117  20.893  0.00  0.00    +0.000 NA
BRANCH  30  31
ATOM     31  C   UNL     1      -6.393  12.697  22.093  0.00  0.00    +0.000 C 
ATOM     32  C   UNL     1      -6.102  14.170  22.362  0.00  0.00    +0.000 C 
ENDBRANCH  30  31
BRANCH  30  33
ATOM     33  C   UNL     1      -6.690  11.321  20.071  0.00  0.00    +0.000 C 
ATOM     34  C   UNL     1      -7.828  10.664  20.854  0.00  0.00    +0.000 C 
ENDBRANCH  30  33
ENDBRANCH  29  30
ENDBRANCH  28  29
ENDBRANCH  26  28
ENDBRANCH  13  26
TORSDOF 12
ENDMDL
MODEL 7
REMARK VINA RESULT:      -6.7      2.394      3.462
REMARK  Name = 
REMARK  16 active torsions:
REMARK  status: ('A' for Active; 'I' for Inactive)
REMARK    1  A    between atoms: C_1  and  C_2
REMARK    2  A    between atoms: C_2  and  N_3
REMARK    3  A    between atoms: N_3  and  C_4
REMARK    4  A    between atoms: N_3  and  C_6
REMARK    5  A    between atoms: C_4  and  C_5
REMARK    6  A    between atoms: C_6  and  C_7
REMARK    7  A    between atoms: C_7  and  N_8
REMARK    8  A    between atoms: N_8  and  C_9
REMARK    9  A    between atoms: C_21  and  N_22
REMARK   10  A    between atoms: N_22  and  C_23
REMARK   11  A    between atoms: C_23  and  C_24
REMARK   12  A    between atoms: C_24  and  N_25
REMARK   13  A    between atoms: N_25  and  C_26
REMARK   14  A    between atoms: N_25  and  C_28
REMARK   15  A    between atoms: C_26  and  C_27
REMARK   16  A    between atoms: C_28  and  C_29
REMARK                            x       y       z     vdW  Elec       q    Type
REMARK                         _______ _______ _______ _____ _____    ______ ____
ROOT
ATOM      1  C   UNL     1       1.908   7.734  20.022  0.00  0.00    +0.000 A 
ATOM      2  C   UNL     1       2.458   7.503  18.745  0.00  0.00    +0.000 A 
ATOM      3  C   UNL     1       2.345   8.435  17.712  0.00  0.00    +0.000 A 
ATOM      4  C   UNL     1       1.690   9.636  17.940  0.00  0.00    +0.000 A 
ATOM      5  C   UNL     1       1.182   9.924  19.208  0.00  0.00    +0.000 A 
ATOM      6  C   UNL     1       1.323   8.997  20.261  0.00  0.00    +0.000 A 
ATOM      7  C   UNL     1       0.919   9.491  21.598  0.00  0.00    +0.000 C 
ATOM      8  O   UNL     1       1.469   9.126  22.629  0.00  0.00    +0.000 OA
ATOM      9  C   UNL     1      -0.130  10.524  21.690  0.00  0.00    +0.000 A 
ATOM     10  C   UNL     1      -0.820  10.661  22.896  0.00  0.00    +0.000 A 
ATOM     11  C   UNL     1      -1.809  11.626  23.020  0.00  0.00    +0.000 A 
ATOM     12  C   UNL     1      -2.085  12.458  21.941  0.00  0.00    +0.000 A 
ATOM     13  C   UNL     1      -1.339  12.420  20.741  0.00  0.00    +0.000 A 
ATOM     14  C   UNL     1      -0.373  11.390  20.615  0.00  0.00    +0.000 A 
ATOM     15  C   UNL     1       0.504  11.228  19.426  0.00  0.00    +0.000 C 
ATOM     16  O   UNL     1       0.671  12.161  18.648  0.00  0.00    +0.000 OA
ENDROOT
BRANCH   1  17
ATOM     17  N   UNL     1       2.060   6.658  20.908  0.00  0.00    +0.000 N 
ATOM     18  H   UNL     1       1.773   6.892  21.859  0.00  0.00    +0.000 HD
BRANCH  17  19
ATOM     19  C   UNL     1       1.625   5.312  20.543  0.00  0.00    +0.000 C 
BRANCH  19  20
ATOM     20  C   UNL     1       2.835   4.401  20.218  0.00  0.00    +0.000 C 
BRANCH  20  21
ATOM     21  N   UNL     1       3.056   4.068  18.788  0.00  0.00    +0.000 NA
BRANCH  21  23
ATOM     22  C   UNL     1       5.303   5.112  19.300  0.00  0.00    +0.000 C 
ATOM     23  C   UNL     1       4.476   4.183  18.414  0.00  0.00    +0.000 C 
ENDBRANCH  21  23
BRANCH  21  24
ATOM     24  C   UNL     1       2.451   2.767  18.453  0.00  0.00    +0.000 C 
ATOM     25  C   UNL     1       3.379   1.554  18.521  0.00  0.00    +0.000 C 
ENDBRANCH  21  24
ENDBRANCH  20  21
ENDBRANCH  19  20
ENDBRANCH  17  19
ENDBRANCH   1  17
BRANCH  13  26
ATOM     26  N   UNL     1      -1.640  13.350  19.695  0.00  0.00    +0.000 N 
ATOM     27  H   UNL     1      -1.387  12.952  18.781  0.00  0.00    +0.000 HD
BRANCH  26  28
ATOM     28  C   UNL     1      -1.098  14.704  19.948  0.00  0.00    +0.000 C 
BRANCH  28  29
ATOM     29  C   UNL     1      -0.390  15.419  18.778  0.00  0.00    +0.000 C 
BRANCH  29  30
ATOM     30  N   UNL     1       0.870  16.108  19.208  0.00  0.00    +0.000 NA
BRANCH  30  31
ATOM     31  C   UNL     1       2.073  15.256  19.162  0.00  0.00    +0.000 C 
ATOM     32  C   UNL     1       2.496  14.617  20.482  0.00  0.00    +0.000 C 
ENDBRANCH  30  31
BRANCH  30  33
ATOM     33  C   UNL     1       1.035  17.389  18.499  0.00  0.00    +0.000 C 
ATOM     34  C   UNL     1      -0.170  17.809  17.656  0.00  0.00    +0.000 C 
ENDBRANCH  30  33
ENDBRANCH  29  30
ENDBRANCH  28  29
ENDBRANCH  26  28
ENDBRANCH  13  26
TORSDOF 12
ENDMDL
MODEL 8
REMARK VINA RESULT:      -6.6      2.619      9.141
REMARK  Name = 
REMARK  16 active torsions:
REMARK  status: ('A' for Active; 'I' for Inactive)
REMARK    1  A    between atoms: C_1  and  C_2
REMARK    2  A    between atoms: C_2  and  N_3
REMARK    3  A    between atoms: N_3  and  C_4
REMARK    4  A    between atoms: N_3  and  C_6
REMARK    5  A    between atoms: C_4  and  C_5
REMARK    6  A    between atoms: C_6  and  C_7
REMARK    7  A    between atoms: C_7  and  N_8
REMARK    8  A    between atoms: N_8  and  C_9
REMARK    9  A    between atoms: C_21  and  N_22
REMARK   10  A    between atoms: N_22  and  C_23
REMARK   11  A    between atoms: C_23  and  C_24
REMARK   12  A    between atoms: C_24  and  N_25
REMARK   13  A    between atoms: N_25  and  C_26
REMARK   14  A    between atoms: N_25  and  C_28
REMARK   15  A    between atoms: C_26  and  C_27
REMARK   16  A    between atoms: C_28  and  C_29
REMARK                            x       y       z     vdW  Elec       q    Type
REMARK                         _______ _______ _______ _____ _____    ______ ____
ROOT
ATOM      1  C   UNL     1      -1.151  12.700  20.625  0.00  0.00    +0.000 A 
ATOM      2  C   UNL     1      -1.851  12.905  21.831  0.00  0.00    +0.000 A 
ATOM      3  C   UNL     1      -1.730  12.031  22.913  0.00  0.00    +0.000 A 
ATOM      4  C   UNL     1      -0.886  10.934  22.818  0.00  0.00    +0.000 A 
ATOM      5  C   UNL     1      -0.134  10.730  21.660  0.00  0.00    +0.000 A 
ATOM      6  C   UNL     1      -0.231  11.629  20.578  0.00  0.00    +0.000 A 
ATOM      7  C   UNL     1       0.751  11.419  19.490  0.00  0.00    +0.000 C 
ATOM      8  O   UNL     1       1.207  12.341  18.827  0.00  0.00    +0.000 OA
ATOM      9  C   UNL     1       1.263  10.057  19.245  0.00  0.00    +0.000 A 
ATOM     10  C   UNL     1       1.806   9.770  17.991  0.00  0.00    +0.000 A 
ATOM     11  C   UNL     1       2.303   8.501  17.728  0.00  0.00    +0.000 A 
ATOM     12  C   UNL     1       2.269   7.538  18.729  0.00  0.00    +0.000 A 
ATOM     13  C   UNL     1       1.824   7.819  20.041  0.00  0.00    +0.000 A 
ATOM     14  C   UNL     1       1.269   9.102  20.271  0.00  0.00    +0.000 A 
ATOM     15  C   UNL     1       0.776   9.558  21.598  0.00  0.00    +0.000 C 
ATOM     16  O   UNL     1       1.126   8.979  22.620  0.00  0.00    +0.000 OA
ENDROOT
BRANCH   1  17
ATOM     17  N   UNL     1      -1.452  13.639  19.629  0.00  0.00    +0.000 N 
ATOM     18  H   UNL     1      -2.403  13.539  19.272  0.00  0.00    +0.000 HD
BRANCH  17  19
ATOM     19  C   UNL     1      -1.095  15.047  19.784  0.00  0.00    +0.000 C 
BRANCH  19  20
ATOM     20  C   UNL     1      -0.148  15.513  18.649  0.00  0.00    +0.000 C 
BRANCH  20  21
ATOM     21  N   UNL     1       0.426  16.876  18.774  0.00  0.00    +0.000 NA
BRANCH  21  23
ATOM     22  C   UNL     1       2.580  15.607  18.395  0.00  0.00    +0.000 C 
ATOM     23  C   UNL     1       1.820  16.927  18.303  0.00  0.00    +0.000 C 
ENDBRANCH  21  23
BRANCH  21  24
ATOM     24  C   UNL     1      -0.457  17.877  18.148  0.00  0.00    +0.000 C 
ATOM     25  C   UNL     1      -0.065  18.337  16.745  0.00  0.00    +0.000 C 
ENDBRANCH  21  24
ENDBRANCH  20  21
ENDBRANCH  19  20
ENDBRANCH  17  19
ENDBRANCH   1  17
BRANCH  13  26
ATOM     26  N   UNL     1       1.876   6.793  21.037  0.00  0.00    +0.000 N 
ATOM     27  H   UNL     1       2.720   6.901  21.616  0.00  0.00    +0.000 HD
BRANCH  26  28
ATOM     28  C   UNL     1       1.681   5.434  20.482  0.00  0.00    +0.000 C 
BRANCH  28  29
ATOM     29  C   UNL     1       2.680   4.339  20.911  0.00  0.00    +0.000 C 
BRANCH  29  30
ATOM     30  N   UNL     1       2.908   3.321  19.834  0.00  0.00    +0.000 NA
BRANCH  30  31
ATOM     31  C   UNL     1       1.959   3.405  18.709  0.00  0.00    +0.000 C 
ATOM     32  C   UNL     1       0.800   2.413  18.731  0.00  0.00    +0.000 C 
ENDBRANCH  30  31
BRANCH  30  33
ATOM     33  C   UNL     1       4.319   3.316  19.408  0.00  0.00    +0.000 C 
ATOM     34  C   UNL     1       4.862   4.683  18.990  0.00  0.00    +0.000 C 
ENDBRANCH  30  33
ENDBRANCH  29  30
ENDBRANCH  28  29
ENDBRANCH  26  28
ENDBRANCH  13  26
TORSDOF 12
ENDMDL
MODEL 9
REMARK VINA RESULT:      -6.6      1.465      1.908
REMARK  Name = 
REMARK  16 active torsions:
REMARK  status: ('A' for Active; 'I' for Inactive)
REMARK    1  A    between atoms: C_1  and  C_2
REMARK    2  A    between atoms: C_2  and  N_3
REMARK    3  A    between atoms: N_3  and  C_4
REMARK    4  A    between atoms: N_3  and  C_6
REMARK    5  A    between atoms: C_4  and  C_5
REMARK    6  A    between atoms: C_6  and  C_7
REMARK    7  A    between atoms: C_7  and  N_8
REMARK    8  A    between atoms: N_8  and  C_9
REMARK    9  A    between atoms: C_21  and  N_22
REMARK   10  A    between atoms: N_22  and  C_23
REMARK   11  A    between atoms: C_23  and  C_24
REMARK   12  A    between atoms: C_24  and  N_25
REMARK   13  A    between atoms: N_25  and  C_26
REMARK   14  A    between atoms: N_25  and  C_28
REMARK   15  A    between atoms: C_26  and  C_27
REMARK   16  A    between atoms: C_28  and  C_29
REMARK                            x       y       z     vdW  Elec       q    Type
REMARK                         _______ _______ _______ _____ _____    ______ ____
ROOT
ATOM      1  C   UNL     1       1.279   8.899  20.176  0.00  0.00    +0.000 A 
ATOM      2  C   UNL     1       1.739   8.747  18.852  0.00  0.00    +0.000 A 
ATOM      3  C   UNL     1       1.328   9.597  17.825  0.00  0.00    +0.000 A 
ATOM      4  C   UNL     1       0.454  10.638  18.103  0.00  0.00    +0.000 A 
ATOM      5  C   UNL     1       0.021  10.854  19.412  0.00  0.00    +0.000 A 
ATOM      6  C   UNL     1       0.460  10.015  20.457  0.00  0.00    +0.000 A 
ATOM      7  C   UNL     1       0.092  10.457  21.822  0.00  0.00    +0.000 C 
ATOM      8  O   UNL     1       0.804  10.253  22.796  0.00  0.00    +0.000 OA
ATOM      9  C   UNL     1      -1.143  11.244  22.008  0.00  0.00    +0.000 A 
ATOM     10  C   UNL     1      -1.726  11.272  23.276  0.00  0.00    +0.000 A 
ATOM     11  C   UNL     1      -2.883  12.007  23.488  0.00  0.00    +0.000 A 
ATOM     12  C   UNL     1      -3.435  12.723  22.432  0.00  0.00    +0.000 A 
ATOM     13  C   UNL     1      -2.819  12.804  21.163  0.00  0.00    +0.000 A 
ATOM     14  C   UNL     1      -1.670  12.001  20.952  0.00  0.00    +0.000 A 
ATOM     15  C   UNL     1      -0.898  11.989  19.682  0.00  0.00    +0.000 C 
ATOM     16  O   UNL     1      -1.013  12.909  18.879  0.00  0.00    +0.000 OA
ENDROOT
BRANCH   1  17
ATOM     17  N   UNL     1       1.745   7.911  21.055  0.00  0.00    +0.000 N 
ATOM     18  H   UNL     1       1.634   8.176  22.034  0.00  0.00    +0.000 HD
BRANCH  17  19
ATOM     19  C   UNL     1       1.417   6.502  20.851  0.00  0.00    +0.000 C 
BRANCH  19  20
ATOM     20  C   UNL     1       2.558   5.764  20.107  0.00  0.00    +0.000 C 
BRANCH  20  21
ATOM     21  N   UNL     1       2.487   4.281  20.078  0.00  0.00    +0.000 NA
BRANCH  21  23
ATOM     22  C   UNL     1       1.519   2.567  21.666  0.00  0.00    +0.000 C 
ATOM     23  C   UNL     1       1.286   3.778  20.767  0.00  0.00    +0.000 C 
ENDBRANCH  21  23
BRANCH  21  24
ATOM     24  C   UNL     1       2.648   3.774  18.704  0.00  0.00    +0.000 C 
ATOM     25  C   UNL     1       1.571   4.189  17.703  0.00  0.00    +0.000 C 
ENDBRANCH  21  24
ENDBRANCH  20  21
ENDBRANCH  19  20
ENDBRANCH  17  19
ENDBRANCH   1  17
BRANCH  13  26
ATOM     26  N   UNL     1      -3.413  13.612  20.142  0.00  0.00    +0.000 N 
ATOM     27  H   UNL     1      -2.914  14.508  20.060  0.00  0.00    +0.000 HD
BRANCH  26  28
ATOM     28  C   UNL     1      -4.882  13.736  20.281  0.00  0.00    +0.000 C 
BRANCH  28  29
ATOM     29  C   UNL     1      -5.760  13.022  19.232  0.00  0.00    +0.000 C 
BRANCH  29  30
ATOM     30  N   UNL     1      -5.698  11.529  19.354  0.00  0.00    +0.000 NA
BRANCH  30  31
ATOM     31  C   UNL     1      -7.002  10.886  19.603  0.00  0.00    +0.000 C 
ATOM     32  C   UNL     1      -7.018   9.361  19.565  0.00  0.00    +0.000 C 
ENDBRANCH  30  31
BRANCH  30  33
ATOM     33  C   UNL     1      -4.964  10.940  18.221  0.00  0.00    +0.000 C 
ATOM     34  C   UNL     1      -4.931  11.810  16.964  0.00  0.00    +0.000 C 
ENDBRANCH  30  33
ENDBRANCH  29  30
ENDBRANCH  28  29
ENDBRANCH  26  28
ENDBRANCH  13  26
TORSDOF 12
ENDMDL
