MODEL 1
REMARK VINA RESULT:      -7.9      0.000      0.000
REMARK  Name = 
REMARK  10 active torsions:
REMARK  status: ('A' for Active; 'I' for Inactive)
REMARK    1  A    between atoms: C_1  and  O_2
REMARK    2  A    between atoms: O_2  and  N_3
REMARK    3  A    between atoms: C_4  and  C_5
REMARK    4  A    between atoms: C_4  and  C_23
REMARK    5  A    between atoms: C_10  and  C_11
REMARK    6  A    between atoms: N_12  and  O_13
REMARK    7  A    between atoms: O_13  and  C_14
REMARK    8  A    between atoms: C_14  and  C_15
REMARK    9  A    between atoms: C_14  and  C_16
REMARK   10  A    between atoms: N_27  and  C_28
REMARK                            x       y       z     vdW  Elec       q    Type
REMARK                         _______ _______ _______ _____ _____    ______ ____
ROOT
ATOM      1  C   UNL     1      -0.355  10.842  20.634  0.00  0.00    +0.000 A 
ATOM      2  C   UNL     1      -1.055  11.493  21.672  0.00  0.00    +0.000 A 
ATOM      3  C   UNL     1      -1.077  10.980  22.967  0.00  0.00    +0.000 A 
ATOM      4  C   UNL     1      -0.429   9.785  23.240  0.00  0.00    +0.000 A 
ATOM      5  C   UNL     1       0.293   9.137  22.235  0.00  0.00    +0.000 A 
ATOM      6  C   UNL     1       0.369   9.678  20.939  0.00  0.00    +0.000 A 
ENDROOT
BRANCH   1   8
ATOM      7  N   UNL     1       0.281  12.289  18.703  0.00  0.00    +0.000 NA
ATOM      8  C   UNL     1      -0.515  11.411  19.253  0.00  0.00    +0.000 C 
BRANCH   8   9
ATOM      9  C   UNL     1      -1.551  10.833  18.398  0.00  0.00    +0.000 A 
ATOM     10  N   UNL     1      -1.309   9.959  17.429  0.00  0.00    +0.000 NA
ATOM     11  C   UNL     1      -2.471   9.846  16.710  0.00  0.00    +0.000 A 
ATOM     12  C   UNL     1      -3.452  10.638  17.254  0.00  0.00    +0.000 A 
ATOM     13  N   UNL     1      -2.872  11.225  18.347  0.00  0.00    +0.000 N 
ATOM     14  C   UNL     1      -3.511  12.207  19.191  0.00  0.00    +0.000 C 
ENDBRANCH   8   9
BRANCH   7  16
ATOM     15  C   UNL     1       2.474  12.966  18.615  0.00  0.00    +0.000 C 
ATOM     16  O   UNL     1       1.414  12.565  19.474  0.00  0.00    +0.000 OA
ENDBRANCH   7  16
ENDBRANCH   1   8
BRANCH   6  17
ATOM     17  C   UNL     1       1.245   8.999  19.960  0.00  0.00    +0.000 C 
ATOM     18  N   UNL     1       1.705   7.797  20.166  0.00  0.00    +0.000 NA
BRANCH  18  19
ATOM     19  O   UNL     1       2.446   7.382  19.049  0.00  0.00    +0.000 OA
BRANCH  19  20
ATOM     20  C   UNL     1       3.214   6.201  19.334  0.00  0.00    +0.000 C 
ATOM     21  C   UNL     1       2.403   5.037  19.912  0.00  0.00    +0.000 C 
BRANCH  20  22
ATOM     22  C   UNL     1       3.913   5.785  18.048  0.00  0.00    +0.000 A 
ATOM     23  C   UNL     1       4.531   6.745  17.231  0.00  0.00    +0.000 A 
ATOM     24  C   UNL     1       5.193   6.364  16.061  0.00  0.00    +0.000 A 
ATOM     25  C   UNL     1       5.244   5.021  15.699  0.00  0.00    +0.000 A 
ATOM     26 CL   UNL     1       6.069   4.552  14.262  0.00  0.00    +0.000 Cl
ATOM     27  C   UNL     1       4.633   4.053  16.494  0.00  0.00    +0.000 A 
ATOM     28  C   UNL     1       3.969   4.435  17.661  0.00  0.00    +0.000 A 
ENDBRANCH  20  22
ENDBRANCH  19  20
ENDBRANCH  18  19
ENDBRANCH   6  17
TORSDOF 7
ENDMDL
MODEL 2
REMARK VINA RESULT:      -7.7      3.350      8.006
REMARK  Name = 
REMARK  10 active torsions:
REMARK  status: ('A' for Active; 'I' for Inactive)
REMARK    1  A    between atoms: C_1  and  O_2
REMARK    2  A    between atoms: O_2  and  N_3
REMARK    3  A    between atoms: C_4  and  C_5
REMARK    4  A    between atoms: C_4  and  C_23
REMARK    5  A    between atoms: C_10  and  C_11
REMARK    6  A    between atoms: N_12  and  O_13
REMARK    7  A    between atoms: O_13  and  C_14
REMARK    8  A    between atoms: C_14  and  C_15
REMARK    9  A    between atoms: C_14  and  C_16
REMARK   10  A    between atoms: N_27  and  C_28
REMARK                            x       y       z     vdW  Elec       q    Type
REMARK                         _______ _______ _______ _____ _____    ______ ____
ROOT
ATOM      1  C   UNL     1       2.592   4.894  18.642  0.00  0.00    +0.000 A 
ATOM      2  C   UNL     1       2.351   3.733  17.878  0.00  0.00    +0.000 A 
ATOM      3  C   UNL     1       1.463   2.750  18.310  0.00  0.00    +0.000 A 
ATOM      4  C   UNL     1       0.828   2.893  19.535  0.00  0.00    +0.000 A 
ATOM      5  C   UNL     1       1.032   4.045  20.296  0.00  0.00    +0.000 A 
ATOM      6  C   UNL     1       1.881   5.069  19.841  0.00  0.00    +0.000 A 
ENDROOT
BRANCH   1   8
ATOM      7  N   UNL     1       3.469   7.009  17.650  0.00  0.00    +0.000 NA
ATOM      8  C   UNL     1       3.668   5.817  18.145  0.00  0.00    +0.000 C 
BRANCH   8   9
ATOM      9  C   UNL     1       5.058   5.417  18.366  0.00  0.00    +0.000 A 
ATOM     10  N   UNL     1       5.730   5.661  19.484  0.00  0.00    +0.000 NA
ATOM     11  C   UNL     1       7.041   5.363  19.221  0.00  0.00    +0.000 A 
ATOM     12  C   UNL     1       7.182   4.905  17.934  0.00  0.00    +0.000 A 
ATOM     13  N   UNL     1       5.914   4.903  17.416  0.00  0.00    +0.000 N 
ATOM     14  C   UNL     1       5.583   4.565  16.051  0.00  0.00    +0.000 C 
ENDBRANCH   8   9
BRANCH   7  16
ATOM     15  C   UNL     1       2.107   8.854  17.782  0.00  0.00    +0.000 C 
ATOM     16  O   UNL     1       2.140   7.433  17.751  0.00  0.00    +0.000 OA
ENDBRANCH   7  16
ENDBRANCH   1   8
BRANCH   6  17
ATOM     17  C   UNL     1       1.956   6.309  20.643  0.00  0.00    +0.000 C 
ATOM     18  N   UNL     1       0.954   7.138  20.725  0.00  0.00    +0.000 NA
BRANCH  18  19
ATOM     19  O   UNL     1       1.281   8.183  21.603  0.00  0.00    +0.000 OA
BRANCH  19  20
ATOM     20  C   UNL     1       0.127   8.970  21.939  0.00  0.00    +0.000 C 
ATOM     21  C   UNL     1       0.097   9.475  23.384  0.00  0.00    +0.000 C 
BRANCH  20  22
ATOM     22  C   UNL     1       0.064  10.135  20.960  0.00  0.00    +0.000 A 
ATOM     23  C   UNL     1      -0.796  10.086  19.851  0.00  0.00    +0.000 A 
ATOM     24  C   UNL     1      -0.873  11.162  18.963  0.00  0.00    +0.000 A 
ATOM     25  C   UNL     1      -0.092  12.295  19.176  0.00  0.00    +0.000 A 
ATOM     26 CL   UNL     1      -0.195  13.623  18.086  0.00  0.00    +0.000 Cl
ATOM     27  C   UNL     1       0.772  12.360  20.267  0.00  0.00    +0.000 A 
ATOM     28  C   UNL     1       0.851  11.283  21.153  0.00  0.00    +0.000 A 
ENDBRANCH  20  22
ENDBRANCH  19  20
ENDBRANCH  18  19
ENDBRANCH   6  17
TORSDOF 7
ENDMDL
MODEL 3
REMARK VINA RESULT:      -7.7      2.575      4.513
REMARK  Name = 
REMARK  10 active torsions:
REMARK  status: ('A' for Active; 'I' for Inactive)
REMARK    1  A    between atoms: C_1  and  O_2
REMARK    2  A    between atoms: O_2  and  N_3
REMARK    3  A    between atoms: C_4  and  C_5
REMARK    4  A    between atoms: C_4  and  C_23
REMARK    5  A    between atoms: C_10  and  C_11
REMARK    6  A    between atoms: N_12  and  O_13
REMARK    7  A    between atoms: O_13  and  C_14
REMARK    8  A    between atoms: C_14  and  C_15
REMARK    9  A    between atoms: C_14  and  C_16
REMARK   10  A    between atoms: N_27  and  C_28
REMARK                            x       y       z     vdW  Elec       q    Type
REMARK                         _______ _______ _______ _____ _____    ______ ____
ROOT
ATOM      1  C   UNL     1      -0.618  11.398  19.468  0.00  0.00    +0.000 A 
ATOM      2  C   UNL     1      -1.927  11.915  19.367  0.00  0.00    +0.000 A 
ATOM      3  C   UNL     1      -2.822  11.445  18.408  0.00  0.00    +0.000 A 
ATOM      4  C   UNL     1      -2.410  10.474  17.506  0.00  0.00    +0.000 A 
ATOM      5  C   UNL     1      -1.128   9.930  17.604  0.00  0.00    +0.000 A 
ATOM      6  C   UNL     1      -0.238  10.357  18.606  0.00  0.00    +0.000 A 
ENDROOT
BRANCH   1   8
ATOM      7  N   UNL     1       0.496  11.696  21.681  0.00  0.00    +0.000 NA
ATOM      8  C   UNL     1       0.300  12.075  20.446  0.00  0.00    +0.000 C 
BRANCH   8   9
ATOM      9  C   UNL     1       1.153  13.150  19.942  0.00  0.00    +0.000 A 
ATOM     10  N   UNL     1       2.342  12.953  19.385  0.00  0.00    +0.000 NA
ATOM     11  C   UNL     1       2.927  14.187  19.272  0.00  0.00    +0.000 A 
ATOM     12  C   UNL     1       2.082  15.164  19.739  0.00  0.00    +0.000 A 
ATOM     13  N   UNL     1       0.946  14.501  20.120  0.00  0.00    +0.000 N 
ATOM     14  C   UNL     1      -0.198  15.121  20.748  0.00  0.00    +0.000 C 
ENDBRANCH   8   9
BRANCH   7  16
ATOM     15  C   UNL     1      -1.021  10.689  23.081  0.00  0.00    +0.000 C 
ATOM     16  O   UNL     1      -0.130  10.485  21.992  0.00  0.00    +0.000 OA
ENDBRANCH   7  16
ENDBRANCH   1   8
BRANCH   6  17
ATOM     17  C   UNL     1       1.058   9.654  18.720  0.00  0.00    +0.000 C 
ATOM     18  N   UNL     1       1.521   8.905  17.760  0.00  0.00    +0.000 NA
BRANCH  18  19
ATOM     19  O   UNL     1       2.792   8.424  18.113  0.00  0.00    +0.000 OA
BRANCH  19  20
ATOM     20  C   UNL     1       3.071   7.161  17.487  0.00  0.00    +0.000 C 
ATOM     21  C   UNL     1       4.544   6.932  17.139  0.00  0.00    +0.000 C 
BRANCH  20  22
ATOM     22  C   UNL     1       2.560   6.065  18.412  0.00  0.00    +0.000 A 
ATOM     23  C   UNL     1       2.560   6.252  19.804  0.00  0.00    +0.000 A 
ATOM     24  C   UNL     1       2.071   5.257  20.655  0.00  0.00    +0.000 A 
ATOM     25  C   UNL     1       1.577   4.069  20.123  0.00  0.00    +0.000 A 
ATOM     26 CL   UNL     1       0.967   2.849  21.171  0.00  0.00    +0.000 Cl
ATOM     27  C   UNL     1       1.574   3.863  18.745  0.00  0.00    +0.000 A 
ATOM     28  C   UNL     1       2.066   4.856  17.895  0.00  0.00    +0.000 A 
ENDBRANCH  20  22
ENDBRANCH  19  20
ENDBRANCH  18  19
ENDBRANCH   6  17
TORSDOF 7
ENDMDL
MODEL 4
REMARK VINA RESULT:      -7.6      1.247      2.882
REMARK  Name = 
REMARK  10 active torsions:
REMARK  status: ('A' for Active; 'I' for Inactive)
REMARK    1  A    between atoms: C_1  and  O_2
REMARK    2  A    between atoms: O_2  and  N_3
REMARK    3  A    between atoms: C_4  and  C_5
REMARK    4  A    between atoms: C_4  and  C_23
REMARK    5  A    between atoms: C_10  and  C_11
REMARK    6  A    between atoms: N_12  and  O_13
REMARK    7  A    between atoms: O_13  and  C_14
REMARK    8  A    between atoms: C_14  and  C_15
REMARK    9  A    between atoms: C_14  and  C_16
REMARK   10  A    between atoms: N_27  and  C_28
REMARK                            x       y       z     vdW  Elec       q    Type
REMARK                         _______ _______ _______ _____ _____    ______ ____
ROOT
ATOM      1  C   UNL     1      -0.075  10.793  20.527  0.00  0.00    +0.000 A 
ATOM      2  C   UNL     1      -0.770  11.477  21.547  0.00  0.00    +0.000 A 
ATOM      3  C   UNL     1      -0.897  10.939  22.826  0.00  0.00    +0.000 A 
ATOM      4  C   UNL     1      -0.362   9.688  23.097  0.00  0.00    +0.000 A 
ATOM      5  C   UNL     1       0.351   9.005  22.110  0.00  0.00    +0.000 A 
ATOM      6  C   UNL     1       0.534   9.566  20.834  0.00  0.00    +0.000 A 
ENDROOT
BRANCH   1   8
ATOM      7  N   UNL     1      -1.018  11.140  18.242  0.00  0.00    +0.000 NA
ATOM      8  C   UNL     1      -0.121  11.404  19.155  0.00  0.00    +0.000 C 
BRANCH   8   9
ATOM      9  C   UNL     1       0.820  12.486  18.863  0.00  0.00    +0.000 A 
ATOM     10  N   UNL     1       2.093  12.293  18.542  0.00  0.00    +0.000 NA
ATOM     11  C   UNL     1       2.694  13.524  18.587  0.00  0.00    +0.000 A 
ATOM     12  C   UNL     1       1.779  14.495  18.914  0.00  0.00    +0.000 A 
ATOM     13  N   UNL     1       0.588  13.833  19.044  0.00  0.00    +0.000 N 
ATOM     14  C   UNL     1      -0.653  14.444  19.460  0.00  0.00    +0.000 C 
ENDBRANCH   8   9
BRANCH   7  16
ATOM     15  C   UNL     1      -2.969  10.086  17.645  0.00  0.00    +0.000 C 
ATOM     16  O   UNL     1      -2.052  10.322  18.706  0.00  0.00    +0.000 OA
ENDBRANCH   7  16
ENDBRANCH   1   8
BRANCH   6  17
ATOM     17  C   UNL     1       1.399   8.839  19.880  0.00  0.00    +0.000 C 
ATOM     18  N   UNL     1       1.892   7.664  20.156  0.00  0.00    +0.000 NA
BRANCH  18  19
ATOM     19  O   UNL     1       2.611   7.187  19.049  0.00  0.00    +0.000 OA
BRANCH  19  20
ATOM     20  C   UNL     1       3.296   5.961  19.353  0.00  0.00    +0.000 C 
ATOM     21  C   UNL     1       2.395   4.841  19.881  0.00  0.00    +0.000 C 
BRANCH  20  22
ATOM     22  C   UNL     1       4.027   5.517  18.094  0.00  0.00    +0.000 A 
ATOM     23  C   UNL     1       4.174   4.152  17.801  0.00  0.00    +0.000 A 
ATOM     24  C   UNL     1       4.825   3.741  16.635  0.00  0.00    +0.000 A 
ATOM     25  C   UNL     1       5.333   4.690  15.752  0.00  0.00    +0.000 A 
ATOM     26 CL   UNL     1       6.126   4.182  14.312  0.00  0.00    +0.000 Cl
ATOM     27  C   UNL     1       5.202   6.049  16.028  0.00  0.00    +0.000 A 
ATOM     28  C   UNL     1       4.554   6.460  17.195  0.00  0.00    +0.000 A 
ENDBRANCH  20  22
ENDBRANCH  19  20
ENDBRANCH  18  19
ENDBRANCH   6  17
TORSDOF 7
ENDMDL
MODEL 5
REMARK VINA RESULT:      -7.6      2.449      4.282
REMARK  Name = 
REMARK  10 active torsions:
REMARK  status: ('A' for Active; 'I' for Inactive)
REMARK    1  A    between atoms: C_1  and  O_2
REMARK    2  A    between atoms: O_2  and  N_3
REMARK    3  A    between atoms: C_4  and  C_5
REMARK    4  A    between atoms: C_4  and  C_23
REMARK    5  A    between atoms: C_10  and  C_11
REMARK    6  A    between atoms: N_12  and  O_13
REMARK    7  A    between atoms: O_13  and  C_14
REMARK    8  A    between atoms: C_14  and  C_15
REMARK    9  A    between atoms: C_14  and  C_16
REMARK   10  A    between atoms: N_27  and  C_28
REMARK                            x       y       z     vdW  Elec       q    Type
REMARK                         _______ _______ _______ _____ _____    ______ ____
ROOT
ATOM      1  C   UNL     1      -1.018  11.220  18.947  0.00  0.00    +0.000 A 
ATOM      2  C   UNL     1      -2.294  11.746  18.652  0.00  0.00    +0.000 A 
ATOM      3  C   UNL     1      -3.038  11.283  17.570  0.00  0.00    +0.000 A 
ATOM      4  C   UNL     1      -2.504  10.308  16.740  0.00  0.00    +0.000 A 
ATOM      5  C   UNL     1      -1.255   9.755  17.028  0.00  0.00    +0.000 A 
ATOM      6  C   UNL     1      -0.521  10.175  18.151  0.00  0.00    +0.000 A 
ENDROOT
BRANCH   1   8
ATOM      7  N   UNL     1       0.516  12.938  19.909  0.00  0.00    +0.000 NA
ATOM      8  C   UNL     1      -0.251  11.890  20.052  0.00  0.00    +0.000 C 
BRANCH   8   9
ATOM      9  C   UNL     1      -0.493  11.431  21.420  0.00  0.00    +0.000 A 
ATOM     10  N   UNL     1       0.062  10.346  21.945  0.00  0.00    +0.000 NA
ATOM     11  C   UNL     1      -0.587  10.115  23.130  0.00  0.00    +0.000 A 
ATOM     12  C   UNL     1      -1.535  11.082  23.356  0.00  0.00    +0.000 A 
ATOM     13  N   UNL     1      -1.437  11.934  22.289  0.00  0.00    +0.000 N 
ATOM     14  C   UNL     1      -2.301  13.069  22.059  0.00  0.00    +0.000 C 
ENDBRANCH   8   9
BRANCH   7  16
ATOM     15  C   UNL     1      -0.006  14.835  18.724  0.00  0.00    +0.000 C 
ATOM     16  O   UNL     1       0.456  13.494  18.627  0.00  0.00    +0.000 OA
ENDBRANCH   7  16
ENDBRANCH   1   8
BRANCH   6  17
ATOM     17  C   UNL     1       0.737   9.462  18.457  0.00  0.00    +0.000 C 
ATOM     18  N   UNL     1       1.589   9.139  17.526  0.00  0.00    +0.000 NA
BRANCH  18  19
ATOM     19  O   UNL     1       2.716   8.538  18.110  0.00  0.00    +0.000 OA
BRANCH  19  20
ATOM     20  C   UNL     1       3.017   7.275  17.495  0.00  0.00    +0.000 C 
ATOM     21  C   UNL     1       4.499   7.058  17.174  0.00  0.00    +0.000 C 
BRANCH  20  22
ATOM     22  C   UNL     1       2.499   6.179  18.416  0.00  0.00    +0.000 A 
ATOM     23  C   UNL     1       2.111   4.935  17.894  0.00  0.00    +0.000 A 
ATOM     24  C   UNL     1       1.657   3.919  18.739  0.00  0.00    +0.000 A 
ATOM     25  C   UNL     1       1.586   4.138  20.112  0.00  0.00    +0.000 A 
ATOM     26 CL   UNL     1       1.035   2.883  21.153  0.00  0.00    +0.000 Cl
ATOM     27  C   UNL     1       1.962   5.368  20.649  0.00  0.00    +0.000 A 
ATOM     28  C   UNL     1       2.414   6.384  19.804  0.00  0.00    +0.000 A 
ENDBRANCH  20  22
ENDBRANCH  19  20
ENDBRANCH  18  19
ENDBRANCH   6  17
TORSDOF 7
ENDMDL
MODEL 6
REMARK VINA RESULT:      -7.5      1.224      2.891
REMARK  Name = 
REMARK  10 active torsions:
REMARK  status: ('A' for Active; 'I' for Inactive)
REMARK    1  A    between atoms: C_1  and  O_2
REMARK    2  A    between atoms: O_2  and  N_3
REMARK    3  A    between atoms: C_4  and  C_5
REMARK    4  A    between atoms: C_4  and  C_23
REMARK    5  A    between atoms: C_10  and  C_11
REMARK    6  A    between atoms: N_12  and  O_13
REMARK    7  A    between atoms: O_13  and  C_14
REMARK    8  A    between atoms: C_14  and  C_15
REMARK    9  A    between atoms: C_14  and  C_16
REMARK   10  A    between atoms: N_27  and  C_28
REMARK                            x       y       z     vdW  Elec       q    Type
REMARK                         _______ _______ _______ _____ _____    ______ ____
ROOT
ATOM      1  C   UNL     1      -0.274  10.918  20.696  0.00  0.00    +0.000 A 
ATOM      2  C   UNL     1      -0.981  11.551  21.741  0.00  0.00    +0.000 A 
ATOM      3  C   UNL     1      -1.100  10.962  22.998  0.00  0.00    +0.000 A 
ATOM      4  C   UNL     1      -0.546   9.711  23.222  0.00  0.00    +0.000 A 
ATOM      5  C   UNL     1       0.180   9.078  22.211  0.00  0.00    +0.000 A 
ATOM      6  C   UNL     1       0.355   9.690  20.958  0.00  0.00    +0.000 A 
ENDROOT
BRANCH   1   8
ATOM      7  N   UNL     1      -1.029  11.158  18.330  0.00  0.00    +0.000 NA
ATOM      8  C   UNL     1      -0.328  11.580  19.348  0.00  0.00    +0.000 C 
BRANCH   8   9
ATOM      9  C   UNL     1       0.336  12.875  19.203  0.00  0.00    +0.000 A 
ATOM     10  N   UNL     1      -0.249  14.039  19.458  0.00  0.00    +0.000 NA
ATOM     11  C   UNL     1       0.592  15.008  18.976  0.00  0.00    +0.000 A 
ATOM     12  C   UNL     1       1.723  14.442  18.440  0.00  0.00    +0.000 A 
ATOM     13  N   UNL     1       1.570  13.094  18.628  0.00  0.00    +0.000 N 
ATOM     14  C   UNL     1       2.488  12.086  18.150  0.00  0.00    +0.000 C 
ENDBRANCH   8   9
BRANCH   7  16
ATOM     15  C   UNL     1      -2.832   9.931  17.612  0.00  0.00    +0.000 C 
ATOM     16  O   UNL     1      -1.867  10.084  18.644  0.00  0.00    +0.000 OA
ENDBRANCH   7  16
ENDBRANCH   1   8
BRANCH   6  17
ATOM     17  C   UNL     1       1.233   9.014  19.978  0.00  0.00    +0.000 C 
ATOM     18  N   UNL     1       1.729   7.830  20.202  0.00  0.00    +0.000 NA
BRANCH  18  19
ATOM     19  O   UNL     1       2.461   7.410  19.080  0.00  0.00    +0.000 OA
BRANCH  19  20
ATOM     20  C   UNL     1       3.083   6.134  19.304  0.00  0.00    +0.000 C 
ATOM     21  C   UNL     1       2.117   5.014  19.701  0.00  0.00    +0.000 C 
BRANCH  20  22
ATOM     22  C   UNL     1       3.845   5.765  18.038  0.00  0.00    +0.000 A 
ATOM     23  C   UNL     1       4.431   6.763  17.244  0.00  0.00    +0.000 A 
ATOM     24  C   UNL     1       5.150   6.427  16.094  0.00  0.00    +0.000 A 
ATOM     25  C   UNL     1       5.289   5.090  15.729  0.00  0.00    +0.000 A 
ATOM     26 CL   UNL     1       6.182   4.677  14.317  0.00  0.00    +0.000 Cl
ATOM     27  C   UNL     1       4.710   4.086  16.501  0.00  0.00    +0.000 A 
ATOM     28  C   UNL     1       3.989   4.422  17.649  0.00  0.00    +0.000 A 
ENDBRANCH  20  22
ENDBRANCH  19  20
ENDBRANCH  18  19
ENDBRANCH   6  17
TORSDOF 7
ENDMDL
MODEL 7
REMARK VINA RESULT:      -7.5      1.306      2.810
REMARK  Name = 
REMARK  10 active torsions:
REMARK  status: ('A' for Active; 'I' for Inactive)
REMARK    1  A    between atoms: C_1  and  O_2
REMARK    2  A    between atoms: O_2  and  N_3
REMARK    3  A    between atoms: C_4  and  C_5
REMARK    4  A    between atoms: C_4  and  C_23
REMARK    5  A    between atoms: C_10  and  C_11
REMARK    6  A    between atoms: N_12  and  O_13
REMARK    7  A    between atoms: O_13  and  C_14
REMARK    8  A    between atoms: C_14  and  C_15
REMARK    9  A    between atoms: C_14  and  C_16
REMARK   10  A    between atoms: N_27  and  C_28
REMARK                            x       y       z     vdW  Elec       q    Type
REMARK                         _______ _______ _______ _____ _____    ______ ____
ROOT
ATOM      1  C   UNL     1      -0.218  11.174  20.519  0.00  0.00    +0.000 A 
ATOM      2  C   UNL     1      -0.890  11.885  21.536  0.00  0.00    +0.000 A 
ATOM      3  C   UNL     1      -1.073  11.339  22.804  0.00  0.00    +0.000 A 
ATOM      4  C   UNL     1      -0.619  10.055  23.068  0.00  0.00    +0.000 A 
ATOM      5  C   UNL     1       0.071   9.344  22.085  0.00  0.00    +0.000 A 
ATOM      6  C   UNL     1       0.312   9.909  20.820  0.00  0.00    +0.000 A 
ENDROOT
BRANCH   1   8
ATOM      7  N   UNL     1      -1.130  11.660  18.246  0.00  0.00    +0.000 NA
ATOM      8  C   UNL     1      -0.201  11.804  19.155  0.00  0.00    +0.000 C 
BRANCH   8   9
ATOM      9  C   UNL     1       0.858  12.771  18.868  0.00  0.00    +0.000 A 
ATOM     10  N   UNL     1       2.109  12.435  18.578  0.00  0.00    +0.000 NA
ATOM     11  C   UNL     1       2.840  13.593  18.618  0.00  0.00    +0.000 A 
ATOM     12  C   UNL     1       2.031  14.664  18.910  0.00  0.00    +0.000 A 
ATOM     13  N   UNL     1       0.771  14.138  19.023  0.00  0.00    +0.000 N 
ATOM     14  C   UNL     1      -0.404  14.889  19.400  0.00  0.00    +0.000 C 
ENDBRANCH   8   9
BRANCH   7  16
ATOM     15  C   UNL     1      -3.402  11.423  18.016  0.00  0.00    +0.000 C 
ATOM     16  O   UNL     1      -2.250  10.963  18.710  0.00  0.00    +0.000 OA
ENDBRANCH   7  16
ENDBRANCH   1   8
BRANCH   6  17
ATOM     17  C   UNL     1       1.149   9.144  19.872  0.00  0.00    +0.000 C 
ATOM     18  N   UNL     1       1.657   7.985  20.183  0.00  0.00    +0.000 NA
BRANCH  18  19
ATOM     19  O   UNL     1       2.343   7.462  19.075  0.00  0.00    +0.000 OA
BRANCH  19  20
ATOM     20  C   UNL     1       3.025   6.241  19.406  0.00  0.00    +0.000 C 
ATOM     21  C   UNL     1       2.123   5.137  19.963  0.00  0.00    +0.000 C 
BRANCH  20  22
ATOM     22  C   UNL     1       3.749   5.765  18.154  0.00  0.00    +0.000 A 
ATOM     23  C   UNL     1       4.458   6.674  17.353  0.00  0.00    +0.000 A 
ATOM     24  C   UNL     1       5.142   6.237  16.216  0.00  0.00    +0.000 A 
ATOM     25  C   UNL     1       5.125   4.888  15.871  0.00  0.00    +0.000 A 
ATOM     26 CL   UNL     1       5.976   4.350  14.475  0.00  0.00    +0.000 Cl
ATOM     27  C   UNL     1       4.423   3.971  16.651  0.00  0.00    +0.000 A 
ATOM     28  C   UNL     1       3.736   4.409  17.785  0.00  0.00    +0.000 A 
ENDBRANCH  20  22
ENDBRANCH  19  20
ENDBRANCH  18  19
ENDBRANCH   6  17
TORSDOF 7
ENDMDL
MODEL 8
REMARK VINA RESULT:      -7.5      2.422      4.222
REMARK  Name = 
REMARK  10 active torsions:
REMARK  status: ('A' for Active; 'I' for Inactive)
REMARK    1  A    between atoms: C_1  and  O_2
REMARK    2  A    between atoms: O_2  and  N_3
REMARK    3  A    between atoms: C_4  and  C_5
REMARK    4  A    between atoms: C_4  and  C_23
REMARK    5  A    between atoms: C_10  and  C_11
REMARK    6  A    between atoms: N_12  and  O_13
REMARK    7  A    between atoms: O_13  and  C_14
REMARK    8  A    between atoms: C_14  and  C_15
REMARK    9  A    between atoms: C_14  and  C_16
REMARK   10  A    between atoms: N_27  and  C_28
REMARK                            x       y       z     vdW  Elec       q    Type
REMARK                         _______ _______ _______ _____ _____    ______ ____
ROOT
ATOM      1  C   UNL     1      -0.756  10.953  19.042  0.00  0.00    +0.000 A 
ATOM      2  C   UNL     1      -2.087  11.364  18.822  0.00  0.00    +0.000 A 
ATOM      3  C   UNL     1      -2.830  10.877  17.748  0.00  0.00    +0.000 A 
ATOM      4  C   UNL     1      -2.240   9.997  16.853  0.00  0.00    +0.000 A 
ATOM      5  C   UNL     1      -0.933   9.557  17.066  0.00  0.00    +0.000 A 
ATOM      6  C   UNL     1      -0.195   9.998  18.179  0.00  0.00    +0.000 A 
ENDROOT
BRANCH   1   8
ATOM      7  N   UNL     1       0.572  12.812  20.048  0.00  0.00    +0.000 NA
ATOM      8  C   UNL     1      -0.011  11.646  20.148  0.00  0.00    +0.000 C 
BRANCH   8   9
ATOM      9  C   UNL     1      -0.062  11.045  21.480  0.00  0.00    +0.000 A 
ATOM     10  N   UNL     1       0.765  10.094  21.896  0.00  0.00    +0.000 NA
ATOM     11  C   UNL     1       0.254   9.627  23.079  0.00  0.00    +0.000 A 
ATOM     12  C   UNL     1      -0.886  10.314  23.416  0.00  0.00    +0.000 A 
ATOM     13  N   UNL     1      -1.053  11.238  22.419  0.00  0.00    +0.000 N 
ATOM     14  C   UNL     1      -2.176  12.141  22.312  0.00  0.00    +0.000 C 
ENDBRANCH   8   9
BRANCH   7  16
ATOM     15  C   UNL     1      -0.143  14.772  19.089  0.00  0.00    +0.000 C 
ATOM     16  O   UNL     1       0.318  13.452  18.832  0.00  0.00    +0.000 OA
ENDBRANCH   7  16
ENDBRANCH   1   8
BRANCH   6  17
ATOM     17  C   UNL     1       1.138   9.399  18.402  0.00  0.00    +0.000 C 
ATOM     18  N   UNL     1       1.720   8.660  17.501  0.00  0.00    +0.000 NA
BRANCH  18  19
ATOM     19  O   UNL     1       2.996   8.288  17.953  0.00  0.00    +0.000 OA
BRANCH  19  20
ATOM     20  C   UNL     1       3.386   7.006  17.434  0.00  0.00    +0.000 C 
ATOM     21  C   UNL     1       4.898   6.814  17.279  0.00  0.00    +0.000 C 
BRANCH  20  22
ATOM     22  C   UNL     1       2.799   5.940  18.348  0.00  0.00    +0.000 A 
ATOM     23  C   UNL     1       2.936   6.043  19.741  0.00  0.00    +0.000 A 
ATOM     24  C   UNL     1       2.378   5.079  20.584  0.00  0.00    +0.000 A 
ATOM     25  C   UNL     1       1.679   4.004  20.042  0.00  0.00    +0.000 A 
ATOM     26 CL   UNL     1       0.985   2.821  21.082  0.00  0.00    +0.000 Cl
ATOM     27  C   UNL     1       1.536   3.881  18.661  0.00  0.00    +0.000 A 
ATOM     28  C   UNL     1       2.096   4.844  17.819  0.00  0.00    +0.000 A 
ENDBRANCH  20  22
ENDBRANCH  19  20
ENDBRANCH  18  19
ENDBRANCH   6  17
TORSDOF 7
ENDMDL
MODEL 9
REMARK VINA RESULT:      -7.4      1.260      3.144
REMARK  Name = 
REMARK  10 active torsions:
REMARK  status: ('A' for Active; 'I' for Inactive)
REMARK    1  A    between atoms: C_1  and  O_2
REMARK    2  A    between atoms: O_2  and  N_3
REMARK    3  A    between atoms: C_4  and  C_5
REMARK    4  A    between atoms: C_4  and  C_23
REMARK    5  A    between atoms: C_10  and  C_11
REMARK    6  A    between atoms: N_12  and  O_13
REMARK    7  A    between atoms: O_13  and  C_14
REMARK    8  A    between atoms: C_14  and  C_15
REMARK    9  A    between atoms: C_14  and  C_16
REMARK   10  A    between atoms: N_27  and  C_28
REMARK                            x       y       z     vdW  Elec       q    Type
REMARK                         _______ _______ _______ _____ _____    ______ ____
ROOT
ATOM      1  C   UNL     1      -0.263  11.278  20.664  0.00  0.00    +0.000 A 
ATOM      2  C   UNL     1      -0.951  11.967  21.686  0.00  0.00    +0.000 A 
ATOM      3  C   UNL     1      -1.181  11.381  22.929  0.00  0.00    +0.000 A 
ATOM      4  C   UNL     1      -0.759  10.080  23.160  0.00  0.00    +0.000 A 
ATOM      5  C   UNL     1      -0.053   9.390  22.173  0.00  0.00    +0.000 A 
ATOM      6  C   UNL     1       0.234   9.993  20.936  0.00  0.00    +0.000 A 
ENDROOT
BRANCH   1   8
ATOM      7  N   UNL     1      -1.000  11.722  18.321  0.00  0.00    +0.000 NA
ATOM      8  C   UNL     1      -0.195  11.954  19.324  0.00  0.00    +0.000 C 
BRANCH   8   9
ATOM      9  C   UNL     1       0.747  13.063  19.171  0.00  0.00    +0.000 A 
ATOM     10  N   UNL     1       0.461  14.324  19.470  0.00  0.00    +0.000 NA
ATOM     11  C   UNL     1       1.486  15.083  18.969  0.00  0.00    +0.000 A 
ATOM     12  C   UNL     1       2.432  14.283  18.376  0.00  0.00    +0.000 A 
ATOM     13  N   UNL     1       1.975  13.003  18.548  0.00  0.00    +0.000 N 
ATOM     14  C   UNL     1       2.614  11.822  18.015  0.00  0.00    +0.000 C 
ENDBRANCH   8   9
BRANCH   7  16
ATOM     15  C   UNL     1      -2.227   9.919  17.603  0.00  0.00    +0.000 C 
ATOM     16  O   UNL     1      -2.056  10.866  18.649  0.00  0.00    +0.000 OA
ENDBRANCH   7  16
ENDBRANCH   1   8
BRANCH   6  17
ATOM     17  C   UNL     1       1.084   9.245  19.986  0.00  0.00    +0.000 C 
ATOM     18  N   UNL     1       1.541   8.056  20.260  0.00  0.00    +0.000 NA
BRANCH  18  19
ATOM     19  O   UNL     1       2.255   7.562  19.157  0.00  0.00    +0.000 OA
BRANCH  19  20
ATOM     20  C   UNL     1       2.868   6.296  19.449  0.00  0.00    +0.000 C 
ATOM     21  C   UNL     1       1.893   5.203  19.897  0.00  0.00    +0.000 C 
BRANCH  20  22
ATOM     22  C   UNL     1       3.635   5.859  18.209  0.00  0.00    +0.000 A 
ATOM     23  C   UNL     1       3.677   4.505  17.839  0.00  0.00    +0.000 A 
ATOM     24  C   UNL     1       4.362   4.103  16.689  0.00  0.00    +0.000 A 
ATOM     25  C   UNL     1       5.010   5.050  15.900  0.00  0.00    +0.000 A 
ATOM     26 CL   UNL     1       5.845   4.554  14.480  0.00  0.00    +0.000 Cl
ATOM     27  C   UNL     1       4.985   6.397  16.254  0.00  0.00    +0.000 A 
ATOM     28  C   UNL     1       4.303   6.798  17.405  0.00  0.00    +0.000 A 
ENDBRANCH  20  22
ENDBRANCH  19  20
ENDBRANCH  18  19
ENDBRANCH   6  17
TORSDOF 7
ENDMDL
