MODEL 1
REMARK VINA RESULT:      -8.0      0.000      0.000
REMARK  Name = 
REMARK  2 active torsions:
REMARK  status: ('A' for Active; 'I' for Inactive)
REMARK    1  A    between atoms: C_7  and  C_8
REMARK    2  A    between atoms: C_17  and  C_18
REMARK                            x       y       z     vdW  Elec       q    Type
REMARK                         _______ _______ _______ _____ _____    ______ ____
ROOT
ATOM      1  O   UNL     1       7.814   4.407  16.525  0.00  0.00    +0.000 OA
ATOM      2  C   UNL     1       6.627   4.592  16.719  0.00  0.00    +0.000 C 
ATOM      3  N   UNL     1       5.763   3.883  17.530  0.00  0.00    +0.000 N 
ATOM      4  C   UNL     1       4.647   4.653  17.821  0.00  0.00    +0.000 A 
ATOM      5  C   UNL     1       3.654   4.357  18.702  0.00  0.00    +0.000 A 
ATOM      6  N   UNL     1       2.820   5.320  19.125  0.00  0.00    +0.000 NA
ATOM      7  C   UNL     1       2.991   6.612  18.693  0.00  0.00    +0.000 A 
ATOM      8  C   UNL     1       3.914   6.933  17.679  0.00  0.00    +0.000 A 
ATOM      9  C   UNL     1       4.703   5.897  17.195  0.00  0.00    +0.000 A 
ATOM     10  C   UNL     1       5.764   5.697  16.183  0.00  0.00    +0.000 C 
ATOM     11  C   UNL     1       5.515   5.787  14.849  0.00  0.00    +0.000 C 
ATOM     12  H   UNL     1       6.040   3.051  18.027  0.00  0.00    +0.000 HD
ENDROOT
BRANCH   7  13
ATOM     13  C   UNL     1       2.143   7.574  19.443  0.00  0.00    +0.000 A 
ATOM     14  C   UNL     1       1.634   7.370  20.731  0.00  0.00    +0.000 A 
ATOM     15  C   UNL     1       0.813   8.333  21.335  0.00  0.00    +0.000 A 
ATOM     16  C   UNL     1       0.506   9.489  20.633  0.00  0.00    +0.000 A 
ATOM     17  N   UNL     1       0.951   9.733  19.391  0.00  0.00    +0.000 NA
ATOM     18  C   UNL     1       1.741   8.776  18.834  0.00  0.00    +0.000 A 
ENDBRANCH   7  13
BRANCH  11  19
ATOM     19  C   UNL     1       6.083   4.879  13.888  0.00  0.00    +0.000 A 
ATOM     20  C   UNL     1       7.265   4.913  13.163  0.00  0.00    +0.000 A 
ATOM     21  C   UNL     1       7.223   3.874  12.195  0.00  0.00    +0.000 A 
ATOM     22  C   UNL     1       6.044   3.196  12.382  0.00  0.00    +0.000 A 
ATOM     23  N   UNL     1       5.407   3.751  13.463  0.00  0.00    +0.000 N 
ATOM     24  H   UNL     1       4.478   3.484  13.769  0.00  0.00    +0.000 HD
ENDBRANCH  11  19
TORSDOF 2
ENDMDL
MODEL 2
REMARK VINA RESULT:      -7.8      0.602      1.023
REMARK  Name = 
REMARK  2 active torsions:
REMARK  status: ('A' for Active; 'I' for Inactive)
REMARK    1  A    between atoms: C_7  and  C_8
REMARK    2  A    between atoms: C_17  and  C_18
REMARK                            x       y       z     vdW  Elec       q    Type
REMARK                         _______ _______ _______ _____ _____    ______ ____
ROOT
ATOM      1  O   UNL     1       7.776   4.366  16.547  0.00  0.00    +0.000 OA
ATOM      2  C   UNL     1       6.589   4.585  16.701  0.00  0.00    +0.000 C 
ATOM      3  N   UNL     1       5.679   3.905  17.485  0.00  0.00    +0.000 N 
ATOM      4  C   UNL     1       4.576   4.708  17.737  0.00  0.00    +0.000 A 
ATOM      5  C   UNL     1       3.548   4.444  18.586  0.00  0.00    +0.000 A 
ATOM      6  N   UNL     1       2.728   5.431  18.977  0.00  0.00    +0.000 NA
ATOM      7  C   UNL     1       2.950   6.716  18.548  0.00  0.00    +0.000 A 
ATOM      8  C   UNL     1       3.915   7.007  17.564  0.00  0.00    +0.000 A 
ATOM      9  C   UNL     1       4.689   5.947  17.109  0.00  0.00    +0.000 A 
ATOM     10  C   UNL     1       5.777   5.712  16.133  0.00  0.00    +0.000 C 
ATOM     11  C   UNL     1       5.575   5.803  14.792  0.00  0.00    +0.000 C 
ATOM     12  H   UNL     1       5.916   3.067  17.994  0.00  0.00    +0.000 HD
ENDROOT
BRANCH   7  13
ATOM     13  C   UNL     1       2.106   7.706  19.266  0.00  0.00    +0.000 A 
ATOM     14  C   UNL     1       1.645   8.914  18.731  0.00  0.00    +0.000 A 
ATOM     15  C   UNL     1       0.880   9.795  19.511  0.00  0.00    +0.000 A 
ATOM     16  C   UNL     1       0.594   9.452  20.824  0.00  0.00    +0.000 A 
ATOM     17  N   UNL     1       1.022   8.317  21.396  0.00  0.00    +0.000 NA
ATOM     18  C   UNL     1       1.764   7.488  20.613  0.00  0.00    +0.000 A 
ENDBRANCH   7  13
BRANCH  11  19
ATOM     19  C   UNL     1       6.147   4.876  13.853  0.00  0.00    +0.000 A 
ATOM     20  C   UNL     1       7.329   4.900  13.126  0.00  0.00    +0.000 A 
ATOM     21  C   UNL     1       7.293   3.836  12.184  0.00  0.00    +0.000 A 
ATOM     22  C   UNL     1       6.119   3.155  12.390  0.00  0.00    +0.000 A 
ATOM     23  N   UNL     1       5.479   3.733  13.458  0.00  0.00    +0.000 N 
ATOM     24  H   UNL     1       4.552   3.466  13.772  0.00  0.00    +0.000 HD
ENDBRANCH  11  19
TORSDOF 2
ENDMDL
MODEL 3
REMARK VINA RESULT:      -7.5      0.896      1.083
REMARK  Name = 
REMARK  2 active torsions:
REMARK  status: ('A' for Active; 'I' for Inactive)
REMARK    1  A    between atoms: C_7  and  C_8
REMARK    2  A    between atoms: C_17  and  C_18
REMARK                            x       y       z     vdW  Elec       q    Type
REMARK                         _______ _______ _______ _____ _____    ______ ____
ROOT
ATOM      1  O   UNL     1       7.287   4.436  17.132  0.00  0.00    +0.000 OA
ATOM      2  C   UNL     1       6.112   4.724  17.259  0.00  0.00    +0.000 C 
ATOM      3  N   UNL     1       5.130   4.058  17.965  0.00  0.00    +0.000 N 
ATOM      4  C   UNL     1       4.073   4.916  18.232  0.00  0.00    +0.000 A 
ATOM      5  C   UNL     1       2.997   4.668  19.026  0.00  0.00    +0.000 A 
ATOM      6  N   UNL     1       2.229   5.682  19.454  0.00  0.00    +0.000 NA
ATOM      7  C   UNL     1       2.550   6.974  19.118  0.00  0.00    +0.000 A 
ATOM      8  C   UNL     1       3.570   7.261  18.189  0.00  0.00    +0.000 A 
ATOM      9  C   UNL     1       4.290   6.182  17.692  0.00  0.00    +0.000 A 
ATOM     10  C   UNL     1       5.397   5.938  16.740  0.00  0.00    +0.000 C 
ATOM     11  C   UNL     1       5.253   6.127  15.401  0.00  0.00    +0.000 C 
ATOM     12  H   UNL     1       5.292   3.176  18.425  0.00  0.00    +0.000 HD
ENDROOT
BRANCH   7  13
ATOM     13  C   UNL     1       1.746   7.970  19.871  0.00  0.00    +0.000 A 
ATOM     14  C   UNL     1       1.290   7.814  21.185  0.00  0.00    +0.000 A 
ATOM     15  C   UNL     1       0.505   8.806  21.791  0.00  0.00    +0.000 A 
ATOM     16  C   UNL     1       0.180   9.941  21.065  0.00  0.00    +0.000 A 
ATOM     17  N   UNL     1       0.573  10.139  19.797  0.00  0.00    +0.000 NA
ATOM     18  C   UNL     1       1.329   9.156  19.239  0.00  0.00    +0.000 A 
ENDBRANCH   7  13
BRANCH  11  19
ATOM     19  C   UNL     1       5.800   5.225  14.423  0.00  0.00    +0.000 A 
ATOM     20  C   UNL     1       5.274   4.105  13.796  0.00  0.00    +0.000 A 
ATOM     21  C   UNL     1       6.321   3.462  13.083  0.00  0.00    +0.000 A 
ATOM     22  C   UNL     1       7.448   4.228  13.244  0.00  0.00    +0.000 A 
ATOM     23  N   UNL     1       7.102   5.336  13.976  0.00  0.00    +0.000 N 
ATOM     24  H   UNL     1       7.768   6.029  14.301  0.00  0.00    +0.000 HD
ENDBRANCH  11  19
TORSDOF 2
ENDMDL
MODEL 4
REMARK VINA RESULT:      -7.4      3.715      5.091
REMARK  Name = 
REMARK  2 active torsions:
REMARK  status: ('A' for Active; 'I' for Inactive)
REMARK    1  A    between atoms: C_7  and  C_8
REMARK    2  A    between atoms: C_17  and  C_18
REMARK                            x       y       z     vdW  Elec       q    Type
REMARK                         _______ _______ _______ _____ _____    ______ ____
ROOT
ATOM      1  O   UNL     1       4.395   5.069  19.683  0.00  0.00    +0.000 OA
ATOM      2  C   UNL     1       3.398   5.767  19.659  0.00  0.00    +0.000 C 
ATOM      3  N   UNL     1       2.707   6.323  20.716  0.00  0.00    +0.000 N 
ATOM      4  C   UNL     1       1.931   7.384  20.270  0.00  0.00    +0.000 A 
ATOM      5  C   UNL     1       1.231   8.264  21.033  0.00  0.00    +0.000 A 
ATOM      6  N   UNL     1       0.798   9.419  20.503  0.00  0.00    +0.000 NA
ATOM      7  C   UNL     1       1.094   9.726  19.198  0.00  0.00    +0.000 A 
ATOM      8  C   UNL     1       1.694   8.785  18.338  0.00  0.00    +0.000 A 
ATOM      9  C   UNL     1       2.049   7.562  18.893  0.00  0.00    +0.000 A 
ATOM     10  C   UNL     1       2.666   6.289  18.457  0.00  0.00    +0.000 C 
ATOM     11  C   UNL     1       2.032   5.431  17.615  0.00  0.00    +0.000 C 
ATOM     12  H   UNL     1       2.944   6.143  21.679  0.00  0.00    +0.000 HD
ENDROOT
BRANCH   7  13
ATOM     13  C   UNL     1       0.753  11.131  18.857  0.00  0.00    +0.000 A 
ATOM     14  C   UNL     1       1.670  12.184  18.759  0.00  0.00    +0.000 A 
ATOM     15  C   UNL     1       1.235  13.485  18.464  0.00  0.00    +0.000 A 
ATOM     16  C   UNL     1      -0.120  13.713  18.280  0.00  0.00    +0.000 A 
ATOM     17  N   UNL     1      -1.047  12.748  18.377  0.00  0.00    +0.000 NA
ATOM     18  C   UNL     1      -0.591  11.500  18.668  0.00  0.00    +0.000 A 
ENDBRANCH   7  13
BRANCH  11  19
ATOM     19  C   UNL     1       2.058   4.003  17.791  0.00  0.00    +0.000 A 
ATOM     20  C   UNL     1       1.193   3.130  18.435  0.00  0.00    +0.000 A 
ATOM     21  C   UNL     1       1.813   1.853  18.494  0.00  0.00    +0.000 A 
ATOM     22  C   UNL     1       3.016   1.958  17.841  0.00  0.00    +0.000 A 
ATOM     23  N   UNL     1       3.113   3.233  17.342  0.00  0.00    +0.000 N 
ATOM     24  H   UNL     1       3.940   3.596  16.880  0.00  0.00    +0.000 HD
ENDBRANCH  11  19
TORSDOF 2
ENDMDL
MODEL 5
REMARK VINA RESULT:      -7.3      2.283      7.766
REMARK  Name = 
REMARK  2 active torsions:
REMARK  status: ('A' for Active; 'I' for Inactive)
REMARK    1  A    between atoms: C_7  and  C_8
REMARK    2  A    between atoms: C_17  and  C_18
REMARK                            x       y       z     vdW  Elec       q    Type
REMARK                         _______ _______ _______ _____ _____    ______ ____
ROOT
ATOM      1  O   UNL     1       0.740   5.065  20.828  0.00  0.00    +0.000 OA
ATOM      2  C   UNL     1       1.816   5.364  20.343  0.00  0.00    +0.000 C 
ATOM      3  N   UNL     1       3.063   4.839  20.615  0.00  0.00    +0.000 N 
ATOM      4  C   UNL     1       3.932   5.113  19.569  0.00  0.00    +0.000 A 
ATOM      5  C   UNL     1       5.194   4.636  19.406  0.00  0.00    +0.000 A 
ATOM      6  N   UNL     1       5.795   4.714  18.208  0.00  0.00    +0.000 NA
ATOM      7  C   UNL     1       5.118   5.244  17.137  0.00  0.00    +0.000 A 
ATOM      8  C   UNL     1       3.867   5.872  17.294  0.00  0.00    +0.000 A 
ATOM      9  C   UNL     1       3.310   5.856  18.567  0.00  0.00    +0.000 A 
ATOM     10  C   UNL     1       2.091   6.350  19.245  0.00  0.00    +0.000 C 
ATOM     11  C   UNL     1       1.861   7.675  19.441  0.00  0.00    +0.000 C 
ATOM     12  H   UNL     1       3.220   4.151  21.335  0.00  0.00    +0.000 HD
ENDROOT
BRANCH   7  13
ATOM     13  C   UNL     1       5.835   5.028  15.854  0.00  0.00    +0.000 A 
ATOM     14  C   UNL     1       5.415   4.175  14.827  0.00  0.00    +0.000 A 
ATOM     15  C   UNL     1       6.188   4.018  13.667  0.00  0.00    +0.000 A 
ATOM     16  C   UNL     1       7.381   4.716  13.557  0.00  0.00    +0.000 A 
ATOM     17  N   UNL     1       7.844   5.534  14.515  0.00  0.00    +0.000 NA
ATOM     18  C   UNL     1       7.071   5.660  15.627  0.00  0.00    +0.000 A 
ENDBRANCH   7  13
BRANCH  11  19
ATOM     19  C   UNL     1       1.312   8.199  20.663  0.00  0.00    +0.000 A 
ATOM     20  C   UNL     1       0.012   8.495  21.047  0.00  0.00    +0.000 A 
ATOM     21  C   UNL     1       0.061   9.195  22.282  0.00  0.00    +0.000 A 
ATOM     22  C   UNL     1       1.380   9.264  22.654  0.00  0.00    +0.000 A 
ATOM     23  N   UNL     1       2.117   8.581  21.719  0.00  0.00    +0.000 N 
ATOM     24  H   UNL     1       3.131   8.544  21.717  0.00  0.00    +0.000 HD
ENDBRANCH  11  19
TORSDOF 2
ENDMDL
MODEL 6
REMARK VINA RESULT:      -7.3      3.710      5.075
REMARK  Name = 
REMARK  2 active torsions:
REMARK  status: ('A' for Active; 'I' for Inactive)
REMARK    1  A    between atoms: C_7  and  C_8
REMARK    2  A    between atoms: C_17  and  C_18
REMARK                            x       y       z     vdW  Elec       q    Type
REMARK                         _______ _______ _______ _____ _____    ______ ____
ROOT
ATOM      1  O   UNL     1       4.396   5.095  19.669  0.00  0.00    +0.000 OA
ATOM      2  C   UNL     1       3.389   5.780  19.665  0.00  0.00    +0.000 C 
ATOM      3  N   UNL     1       2.700   6.310  20.738  0.00  0.00    +0.000 N 
ATOM      4  C   UNL     1       1.906   7.366  20.315  0.00  0.00    +0.000 A 
ATOM      5  C   UNL     1       1.201   8.225  21.099  0.00  0.00    +0.000 A 
ATOM      6  N   UNL     1       0.748   9.382  20.591  0.00  0.00    +0.000 NA
ATOM      7  C   UNL     1       1.028   9.714  19.289  0.00  0.00    +0.000 A 
ATOM      8  C   UNL     1       1.633   8.796  18.409  0.00  0.00    +0.000 A 
ATOM      9  C   UNL     1       2.010   7.569  18.940  0.00  0.00    +0.000 A 
ATOM     10  C   UNL     1       2.639   6.312  18.479  0.00  0.00    +0.000 C 
ATOM     11  C   UNL     1       2.010   5.459  17.628  0.00  0.00    +0.000 C 
ATOM     12  H   UNL     1       2.948   6.117  21.695  0.00  0.00    +0.000 HD
ENDROOT
BRANCH   7  13
ATOM     13  C   UNL     1       0.665  11.120  18.975  0.00  0.00    +0.000 A 
ATOM     14  C   UNL     1      -0.608  11.561  18.596  0.00  0.00    +0.000 A 
ATOM     15  C   UNL     1      -0.834  12.911  18.288  0.00  0.00    +0.000 A 
ATOM     16  C   UNL     1       0.226  13.801  18.355  0.00  0.00    +0.000 A 
ATOM     17  N   UNL     1       1.472  13.434  18.695  0.00  0.00    +0.000 NA
ATOM     18  C   UNL     1       1.656  12.118  18.984  0.00  0.00    +0.000 A 
ENDBRANCH   7  13
BRANCH  11  19
ATOM     19  C   UNL     1       2.057   4.029  17.781  0.00  0.00    +0.000 A 
ATOM     20  C   UNL     1       1.214   3.135  18.425  0.00  0.00    +0.000 A 
ATOM     21  C   UNL     1       1.850   1.865  18.453  0.00  0.00    +0.000 A 
ATOM     22  C   UNL     1       3.040   1.996  17.781  0.00  0.00    +0.000 A 
ATOM     23  N   UNL     1       3.113   3.279  17.300  0.00  0.00    +0.000 N 
ATOM     24  H   UNL     1       3.927   3.660  16.829  0.00  0.00    +0.000 HD
ENDBRANCH  11  19
TORSDOF 2
ENDMDL
MODEL 7
REMARK VINA RESULT:      -7.2      1.466      1.979
REMARK  Name = 
REMARK  2 active torsions:
REMARK  status: ('A' for Active; 'I' for Inactive)
REMARK    1  A    between atoms: C_7  and  C_8
REMARK    2  A    between atoms: C_17  and  C_18
REMARK                            x       y       z     vdW  Elec       q    Type
REMARK                         _______ _______ _______ _____ _____    ______ ____
ROOT
ATOM      1  O   UNL     1       7.129   5.114  17.832  0.00  0.00    +0.000 OA
ATOM      2  C   UNL     1       5.934   5.316  17.937  0.00  0.00    +0.000 C 
ATOM      3  N   UNL     1       5.009   4.648  18.715  0.00  0.00    +0.000 N 
ATOM      4  C   UNL     1       3.885   5.439  18.900  0.00  0.00    +0.000 A 
ATOM      5  C   UNL     1       2.832   5.186  19.722  0.00  0.00    +0.000 A 
ATOM      6  N   UNL     1       1.982   6.172  20.049  0.00  0.00    +0.000 NA
ATOM      7  C   UNL     1       2.196   7.444  19.580  0.00  0.00    +0.000 A 
ATOM      8  C   UNL     1       3.189   7.717  18.620  0.00  0.00    +0.000 A 
ATOM      9  C   UNL     1       3.998   6.656  18.231  0.00  0.00    +0.000 A 
ATOM     10  C   UNL     1       5.122   6.407  17.301  0.00  0.00    +0.000 C 
ATOM     11  C   UNL     1       4.965   6.446  15.951  0.00  0.00    +0.000 C 
ATOM     12  H   UNL     1       5.243   3.834  19.262  0.00  0.00    +0.000 HD
ENDROOT
BRANCH   7  13
ATOM     13  C   UNL     1       1.311   8.443  20.233  0.00  0.00    +0.000 A 
ATOM     14  C   UNL     1       0.702   9.527  19.589  0.00  0.00    +0.000 A 
ATOM     15  C   UNL     1      -0.090  10.432  20.310  0.00  0.00    +0.000 A 
ATOM     16  C   UNL     1      -0.255  10.242  21.673  0.00  0.00    +0.000 A 
ATOM     17  N   UNL     1       0.317   9.233  22.347  0.00  0.00    +0.000 NA
ATOM     18  C   UNL     1       1.081   8.376  21.619  0.00  0.00    +0.000 A 
ENDBRANCH   7  13
BRANCH  11  19
ATOM     19  C   UNL     1       5.586   5.496  15.067  0.00  0.00    +0.000 A 
ATOM     20  C   UNL     1       5.116   4.332  14.476  0.00  0.00    +0.000 A 
ATOM     21  C   UNL     1       6.215   3.664  13.873  0.00  0.00    +0.000 A 
ATOM     22  C   UNL     1       7.320   4.457  14.061  0.00  0.00    +0.000 A 
ATOM     23  N   UNL     1       6.913   5.601  14.700  0.00  0.00    +0.000 N 
ATOM     24  H   UNL     1       7.549   6.322  15.025  0.00  0.00    +0.000 HD
ENDBRANCH  11  19
TORSDOF 2
ENDMDL
MODEL 8
REMARK VINA RESULT:      -7.1      1.586      2.205
REMARK  Name = 
REMARK  2 active torsions:
REMARK  status: ('A' for Active; 'I' for Inactive)
REMARK    1  A    between atoms: C_7  and  C_8
REMARK    2  A    between atoms: C_17  and  C_18
REMARK                            x       y       z     vdW  Elec       q    Type
REMARK                         _______ _______ _______ _____ _____    ______ ____
ROOT
ATOM      1  O   UNL     1       6.716   4.763  18.541  0.00  0.00    +0.000 OA
ATOM      2  C   UNL     1       5.538   5.066  18.574  0.00  0.00    +0.000 C 
ATOM      3  N   UNL     1       4.498   4.424  19.217  0.00  0.00    +0.000 N 
ATOM      4  C   UNL     1       3.435   5.299  19.388  0.00  0.00    +0.000 A 
ATOM      5  C   UNL     1       2.300   5.078  20.103  0.00  0.00    +0.000 A 
ATOM      6  N   UNL     1       1.514   6.108  20.454  0.00  0.00    +0.000 NA
ATOM      7  C   UNL     1       1.876   7.389  20.120  0.00  0.00    +0.000 A 
ATOM      8  C   UNL     1       2.965   7.648  19.265  0.00  0.00    +0.000 A 
ATOM      9  C   UNL     1       3.708   6.552  18.843  0.00  0.00    +0.000 A 
ATOM     10  C   UNL     1       4.879   6.277  17.981  0.00  0.00    +0.000 C 
ATOM     11  C   UNL     1       4.838   6.444  16.633  0.00  0.00    +0.000 C 
ATOM     12  H   UNL     1       4.614   3.549  19.703  0.00  0.00    +0.000 HD
ENDROOT
BRANCH   7  13
ATOM     13  C   UNL     1       1.029   8.408  20.793  0.00  0.00    +0.000 A 
ATOM     14  C   UNL     1       0.405   8.248  22.036  0.00  0.00    +0.000 A 
ATOM     15  C   UNL     1      -0.403   9.265  22.565  0.00  0.00    +0.000 A 
ATOM     16  C   UNL     1      -0.582  10.429  21.834  0.00  0.00    +0.000 A 
ATOM     17  N   UNL     1      -0.024  10.633  20.631  0.00  0.00    +0.000 NA
ATOM     18  C   UNL     1       0.751   9.626  20.146  0.00  0.00    +0.000 A 
ENDBRANCH   7  13
BRANCH  11  19
ATOM     19  C   UNL     1       5.445   5.517  15.714  0.00  0.00    +0.000 A 
ATOM     20  C   UNL     1       4.995   4.327  15.162  0.00  0.00    +0.000 A 
ATOM     21  C   UNL     1       6.084   3.708  14.491  0.00  0.00    +0.000 A 
ATOM     22  C   UNL     1       7.159   4.555  14.601  0.00  0.00    +0.000 A 
ATOM     23  N   UNL     1       6.739   5.683  15.260  0.00  0.00    +0.000 N 
ATOM     24  H   UNL     1       7.358   6.437  15.539  0.00  0.00    +0.000 HD
ENDBRANCH  11  19
TORSDOF 2
ENDMDL
MODEL 9
REMARK VINA RESULT:      -7.1      3.645      8.426
REMARK  Name = 
REMARK  2 active torsions:
REMARK  status: ('A' for Active; 'I' for Inactive)
REMARK    1  A    between atoms: C_7  and  C_8
REMARK    2  A    between atoms: C_17  and  C_18
REMARK                            x       y       z     vdW  Elec       q    Type
REMARK                         _______ _______ _______ _____ _____    ______ ____
ROOT
ATOM      1  O   UNL     1      -1.136  11.563  19.453  0.00  0.00    +0.000 OA
ATOM      2  C   UNL     1      -0.162  10.844  19.574  0.00  0.00    +0.000 C 
ATOM      3  N   UNL     1       0.108   9.912  20.557  0.00  0.00    +0.000 N 
ATOM      4  C   UNL     1       1.063   9.012  20.107  0.00  0.00    +0.000 A 
ATOM      5  C   UNL     1       1.475   7.876  20.730  0.00  0.00    +0.000 A 
ATOM      6  N   UNL     1       2.153   6.941  20.046  0.00  0.00    +0.000 NA
ATOM      7  C   UNL     1       2.399   7.117  18.707  0.00  0.00    +0.000 A 
ATOM      8  C   UNL     1       2.113   8.335  18.059  0.00  0.00    +0.000 A 
ATOM      9  C   UNL     1       1.492   9.320  18.817  0.00  0.00    +0.000 A 
ATOM     10  C   UNL     1       1.007  10.707  18.642  0.00  0.00    +0.000 C 
ATOM     11  C   UNL     1       1.856  11.751  18.452  0.00  0.00    +0.000 C 
ATOM     12  H   UNL     1      -0.491   9.773  21.356  0.00  0.00    +0.000 HD
ENDROOT
BRANCH   7  13
ATOM     13  C   UNL     1       2.936   5.890  18.065  0.00  0.00    +0.000 A 
ATOM     14  C   UNL     1       2.225   4.698  17.878  0.00  0.00    +0.000 A 
ATOM     15  C   UNL     1       2.842   3.584  17.290  0.00  0.00    +0.000 A 
ATOM     16  C   UNL     1       4.169   3.678  16.904  0.00  0.00    +0.000 A 
ATOM     17  N   UNL     1       4.906   4.787  17.072  0.00  0.00    +0.000 NA
ATOM     18  C   UNL     1       4.279   5.847  17.649  0.00  0.00    +0.000 A 
ENDBRANCH   7  13
BRANCH  11  19
ATOM     19  C   UNL     1       1.671  13.032  19.080  0.00  0.00    +0.000 A 
ATOM     20  C   UNL     1       2.212  13.592  20.228  0.00  0.00    +0.000 A 
ATOM     21  C   UNL     1       1.516  14.799  20.505  0.00  0.00    +0.000 A 
ATOM     22  C   UNL     1       0.604  14.979  19.495  0.00  0.00    +0.000 A 
ATOM     23  N   UNL     1       0.768  13.958  18.593  0.00  0.00    +0.000 N 
ATOM     24  H   UNL     1       0.166  13.813  17.789  0.00  0.00    +0.000 HD
ENDBRANCH  11  19
TORSDOF 2
ENDMDL
