MODEL 1
REMARK VINA RESULT:      -8.3      0.000      0.000
REMARK  Name = 
REMARK  6 active torsions:
REMARK  status: ('A' for Active; 'I' for Inactive)
REMARK    1  A    between atoms: C_1  and  O_2
REMARK    2  A    between atoms: O_2  and  C_3
REMARK    3  A    between atoms: C_6  and  O_7
REMARK    4  A    between atoms: O_7  and  C_8
REMARK    5  A    between atoms: C_9  and  C_10
REMARK    6  A    between atoms: C_14  and  C_15
REMARK                            x       y       z     vdW  Elec       q    Type
REMARK                         _______ _______ _______ _____ _____    ______ ____
ROOT
ATOM      1  C   UNL     1       2.436   7.474  18.539  0.00  0.00    +0.000 A 
ATOM      2  C   UNL     1       2.023   8.609  17.843  0.00  0.00    +0.000 A 
ATOM      3  N   UNL     1       1.349   9.363  18.769  0.00  0.00    +0.000 N 
ATOM      4  N   UNL     1       0.622  10.492  18.649  0.00  0.00    +0.000 NA
ATOM      5  C   UNL     1       0.072  10.713  19.819  0.00  0.00    +0.000 A 
ATOM      6  S   UNL     1       0.453   9.588  21.120  0.00  0.00    +0.000 S 
ATOM      7  C   UNL     1       1.403   8.725  19.958  0.00  0.00    +0.000 A 
ATOM      8  N   UNL     1       2.042   7.585  19.893  0.00  0.00    +0.000 NA
ENDROOT
BRANCH   5   9
ATOM      9  C   UNL     1      -0.737  11.926  19.985  0.00  0.00    +0.000 A 
ATOM     10  C   UNL     1      -0.878  12.752  18.879  0.00  0.00    +0.000 A 
ATOM     11  N   UNL     1      -1.257  13.978  19.315  0.00  0.00    +0.000 N 
ATOM     12  C   UNL     1      -1.992  13.799  20.452  0.00  0.00    +0.000 A 
ATOM     13  C   UNL     1      -2.942  14.661  21.006  0.00  0.00    +0.000 A 
ATOM     14  C   UNL     1      -3.579  14.253  22.168  0.00  0.00    +0.000 A 
ATOM     15  C   UNL     1      -3.182  13.066  22.786  0.00  0.00    +0.000 A 
ATOM     16 BR   UNL     1      -4.086  12.561  24.375  0.00  0.00    +0.000 Br
ATOM     17  C   UNL     1      -2.184  12.224  22.241  0.00  0.00    +0.000 A 
ATOM     18  C   UNL     1      -1.612  12.550  20.983  0.00  0.00    +0.000 A 
ATOM     19  H   UNL     1      -1.182  14.843  18.799  0.00  0.00    +0.000 HD
ENDBRANCH   5   9
BRANCH   1  24
ATOM     20  C   UNL     1       2.656   3.851  17.517  0.00  0.00    +0.000 A 
ATOM     21  C   UNL     1       3.884   3.766  16.879  0.00  0.00    +0.000 A 
ATOM     22  C   UNL     1       4.714   4.882  16.813  0.00  0.00    +0.000 A 
ATOM     23  C   UNL     1       4.340   6.112  17.400  0.00  0.00    +0.000 A 
ATOM     24  C   UNL     1       3.056   6.242  17.995  0.00  0.00    +0.000 A 
ATOM     25  C   UNL     1       2.248   5.079  18.053  0.00  0.00    +0.000 A 
BRANCH  20  27
ATOM     26  C   UNL     1       1.252   2.380  18.725  0.00  0.00    +0.000 C 
ATOM     27  O   UNL     1       1.945   2.685  17.539  0.00  0.00    +0.000 OA
ENDBRANCH  20  27
BRANCH  23  28
ATOM     28  O   UNL     1       5.205   7.182  17.383  0.00  0.00    +0.000 OA
ATOM     29  C   UNL     1       6.598   6.839  17.321  0.00  0.00    +0.000 C 
ENDBRANCH  23  28
ENDBRANCH   1  24
TORSDOF 4
ENDMDL
MODEL 2
REMARK VINA RESULT:      -8.1      2.616      3.671
REMARK  Name = 
REMARK  6 active torsions:
REMARK  status: ('A' for Active; 'I' for Inactive)
REMARK    1  A    between atoms: C_1  and  O_2
REMARK    2  A    between atoms: O_2  and  C_3
REMARK    3  A    between atoms: C_6  and  O_7
REMARK    4  A    between atoms: O_7  and  C_8
REMARK    5  A    between atoms: C_9  and  C_10
REMARK    6  A    between atoms: C_14  and  C_15
REMARK                            x       y       z     vdW  Elec       q    Type
REMARK                         _______ _______ _______ _____ _____    ______ ____
ROOT
ATOM      1  C   UNL     1       3.895   6.249  17.943  0.00  0.00    +0.000 A 
ATOM      2  C   UNL     1       3.376   6.081  19.225  0.00  0.00    +0.000 A 
ATOM      3  N   UNL     1       2.542   7.154  19.410  0.00  0.00    +0.000 N 
ATOM      4  N   UNL     1       1.872   7.591  20.495  0.00  0.00    +0.000 NA
ATOM      5  C   UNL     1       1.339   8.746  20.169  0.00  0.00    +0.000 A 
ATOM      6  S   UNL     1       1.593   9.320  18.523  0.00  0.00    +0.000 S 
ATOM      7  C   UNL     1       2.537   7.888  18.278  0.00  0.00    +0.000 A 
ATOM      8  N   UNL     1       3.326   7.403  17.354  0.00  0.00    +0.000 NA
ENDROOT
BRANCH   5   9
ATOM      9  C   UNL     1       0.497   9.424  21.160  0.00  0.00    +0.000 A 
ATOM     10  C   UNL     1       0.417   8.853  22.423  0.00  0.00    +0.000 A 
ATOM     11  N   UNL     1      -0.695   9.334  23.032  0.00  0.00    +0.000 N 
ATOM     12  C   UNL     1      -0.907  10.596  22.558  0.00  0.00    +0.000 A 
ATOM     13  C   UNL     1      -1.616  11.635  23.168  0.00  0.00    +0.000 A 
ATOM     14  C   UNL     1      -1.683  12.847  22.497  0.00  0.00    +0.000 A 
ATOM     15  C   UNL     1      -1.135  12.953  21.217  0.00  0.00    +0.000 A 
ATOM     16 BR   UNL     1      -1.259  14.633  20.348  0.00  0.00    +0.000 Br
ATOM     17  C   UNL     1      -0.460  11.879  20.590  0.00  0.00    +0.000 A 
ATOM     18  C   UNL     1      -0.261  10.670  21.308  0.00  0.00    +0.000 A 
ATOM     19  H   UNL     1      -1.164   8.921  23.825  0.00  0.00    +0.000 HD
ENDBRANCH   5   9
BRANCH   1  24
ATOM     20  C   UNL     1       5.669   4.420  15.162  0.00  0.00    +0.000 A 
ATOM     21  C   UNL     1       6.919   4.149  15.696  0.00  0.00    +0.000 A 
ATOM     22  C   UNL     1       7.207   4.503  17.011  0.00  0.00    +0.000 A 
ATOM     23  C   UNL     1       6.242   5.126  17.834  0.00  0.00    +0.000 A 
ATOM     24  C   UNL     1       4.979   5.480  17.286  0.00  0.00    +0.000 A 
ATOM     25  C   UNL     1       4.721   5.090  15.948  0.00  0.00    +0.000 A 
BRANCH  20  27
ATOM     26  C   UNL     1       6.631   4.012  13.040  0.00  0.00    +0.000 C 
ATOM     27  O   UNL     1       5.497   4.003  13.873  0.00  0.00    +0.000 OA
ENDBRANCH  20  27
BRANCH  23  28
ATOM     28  O   UNL     1       6.525   5.404  19.151  0.00  0.00    +0.000 OA
ATOM     29  C   UNL     1       7.839   5.930  19.394  0.00  0.00    +0.000 C 
ENDBRANCH  23  28
ENDBRANCH   1  24
TORSDOF 4
ENDMDL
MODEL 3
REMARK VINA RESULT:      -8.0      0.933      2.455
REMARK  Name = 
REMARK  6 active torsions:
REMARK  status: ('A' for Active; 'I' for Inactive)
REMARK    1  A    between atoms: C_1  and  O_2
REMARK    2  A    between atoms: O_2  and  C_3
REMARK    3  A    between atoms: C_6  and  O_7
REMARK    4  A    between atoms: O_7  and  C_8
REMARK    5  A    between atoms: C_9  and  C_10
REMARK    6  A    between atoms: C_14  and  C_15
REMARK                            x       y       z     vdW  Elec       q    Type
REMARK                         _______ _______ _______ _____ _____    ______ ____
ROOT
ATOM      1  C   UNL     1       2.593   7.290  18.559  0.00  0.00    +0.000 A 
ATOM      2  C   UNL     1       2.186   8.417  17.848  0.00  0.00    +0.000 A 
ATOM      3  N   UNL     1       1.485   9.170  18.755  0.00  0.00    +0.000 N 
ATOM      4  N   UNL     1       0.751  10.292  18.611  0.00  0.00    +0.000 NA
ATOM      5  C   UNL     1       0.174  10.515  19.768  0.00  0.00    +0.000 A 
ATOM      6  S   UNL     1       0.536   9.401  21.084  0.00  0.00    +0.000 S 
ATOM      7  C   UNL     1       1.519   8.539  19.948  0.00  0.00    +0.000 A 
ATOM      8  N   UNL     1       2.169   7.405  19.904  0.00  0.00    +0.000 NA
ENDROOT
BRANCH   5   9
ATOM      9  C   UNL     1      -0.649  11.721  19.910  0.00  0.00    +0.000 A 
ATOM     10  C   UNL     1      -0.809  12.517  18.784  0.00  0.00    +0.000 A 
ATOM     11  N   UNL     1      -1.200  13.749  19.192  0.00  0.00    +0.000 N 
ATOM     12  C   UNL     1      -1.924  13.590  20.337  0.00  0.00    +0.000 A 
ATOM     13  C   UNL     1      -2.881  14.454  20.876  0.00  0.00    +0.000 A 
ATOM     14  C   UNL     1      -3.505  14.068  22.054  0.00  0.00    +0.000 A 
ATOM     15  C   UNL     1      -3.089  12.902  22.698  0.00  0.00    +0.000 A 
ATOM     16 BR   UNL     1      -3.975  12.426  24.306  0.00  0.00    +0.000 Br
ATOM     17  C   UNL     1      -2.084  12.059  22.167  0.00  0.00    +0.000 A 
ATOM     18  C   UNL     1      -1.525  12.360  20.897  0.00  0.00    +0.000 A 
ATOM     19  H   UNL     1      -1.140  14.601  18.653  0.00  0.00    +0.000 HD
ENDBRANCH   5   9
BRANCH   1  24
ATOM     20  C   UNL     1       5.328   5.154  17.082  0.00  0.00    +0.000 A 
ATOM     21  C   UNL     1       4.803   3.872  17.129  0.00  0.00    +0.000 A 
ATOM     22  C   UNL     1       3.506   3.667  17.593  0.00  0.00    +0.000 A 
ATOM     23  C   UNL     1       2.694   4.747  18.008  0.00  0.00    +0.000 A 
ATOM     24  C   UNL     1       3.236   6.060  18.036  0.00  0.00    +0.000 A 
ATOM     25  C   UNL     1       4.555   6.228  17.544  0.00  0.00    +0.000 A 
BRANCH  20  27
ATOM     26  C   UNL     1       6.827   4.659  15.320  0.00  0.00    +0.000 C 
ATOM     27  O   UNL     1       6.598   5.231  16.585  0.00  0.00    +0.000 OA
ENDBRANCH  20  27
BRANCH  23  28
ATOM     28  O   UNL     1       1.392   4.529  18.396  0.00  0.00    +0.000 OA
ATOM     29  C   UNL     1       1.235   3.918  19.686  0.00  0.00    +0.000 C 
ENDBRANCH  23  28
ENDBRANCH   1  24
TORSDOF 4
ENDMDL
MODEL 4
REMARK VINA RESULT:      -7.9      2.291      3.650
REMARK  Name = 
REMARK  6 active torsions:
REMARK  status: ('A' for Active; 'I' for Inactive)
REMARK    1  A    between atoms: C_1  and  O_2
REMARK    2  A    between atoms: O_2  and  C_3
REMARK    3  A    between atoms: C_6  and  O_7
REMARK    4  A    between atoms: O_7  and  C_8
REMARK    5  A    between atoms: C_9  and  C_10
REMARK    6  A    between atoms: C_14  and  C_15
REMARK                            x       y       z     vdW  Elec       q    Type
REMARK                         _______ _______ _______ _____ _____    ______ ____
ROOT
ATOM      1  C   UNL     1       2.768   7.056  18.440  0.00  0.00    +0.000 A 
ATOM      2  C   UNL     1       2.280   7.052  19.745  0.00  0.00    +0.000 A 
ATOM      3  N   UNL     1       1.619   8.246  19.876  0.00  0.00    +0.000 N 
ATOM      4  N   UNL     1       1.061   8.850  20.945  0.00  0.00    +0.000 NA
ATOM      5  C   UNL     1       0.690  10.045  20.552  0.00  0.00    +0.000 A 
ATOM      6  S   UNL     1       0.960  10.464  18.862  0.00  0.00    +0.000 S 
ATOM      7  C   UNL     1       1.677   8.896  18.694  0.00  0.00    +0.000 A 
ATOM      8  N   UNL     1       2.351   8.238  17.785  0.00  0.00    +0.000 NA
ENDROOT
BRANCH   5   9
ATOM      9  C   UNL     1      -0.006  10.905  21.515  0.00  0.00    +0.000 A 
ATOM     10  C   UNL     1      -0.562  10.291  22.629  0.00  0.00    +0.000 A 
ATOM     11  N   UNL     1      -1.498  11.125  23.146  0.00  0.00    +0.000 N 
ATOM     12  C   UNL     1      -1.098  12.403  22.882  0.00  0.00    +0.000 A 
ATOM     13  C   UNL     1      -1.455  13.572  23.558  0.00  0.00    +0.000 A 
ATOM     14  C   UNL     1      -0.903  14.765  23.114  0.00  0.00    +0.000 A 
ATOM     15  C   UNL     1      -0.106  14.766  21.968  0.00  0.00    +0.000 A 
ATOM     16 BR   UNL     1       0.618  16.426  21.406  0.00  0.00    +0.000 Br
ATOM     17  C   UNL     1       0.210  13.581  21.263  0.00  0.00    +0.000 A 
ATOM     18  C   UNL     1      -0.231  12.331  21.772  0.00  0.00    +0.000 A 
ATOM     19  H   UNL     1      -2.244  10.865  23.774  0.00  0.00    +0.000 HD
ENDBRANCH   5   9
BRANCH   1  24
ATOM     20  C   UNL     1       6.043   5.767  17.083  0.00  0.00    +0.000 A 
ATOM     21  C   UNL     1       5.773   4.440  16.786  0.00  0.00    +0.000 A 
ATOM     22  C   UNL     1       4.489   3.933  16.963  0.00  0.00    +0.000 A 
ATOM     23  C   UNL     1       3.433   4.750  17.429  0.00  0.00    +0.000 A 
ATOM     24  C   UNL     1       3.703   6.092  17.809  0.00  0.00    +0.000 A 
ATOM     25  C   UNL     1       5.020   6.573  17.601  0.00  0.00    +0.000 A 
BRANCH  20  27
ATOM     26  C   UNL     1       7.775   7.330  17.475  0.00  0.00    +0.000 C 
ATOM     27  O   UNL     1       7.331   6.153  16.843  0.00  0.00    +0.000 OA
ENDBRANCH  20  27
BRANCH  23  28
ATOM     28  O   UNL     1       2.157   4.247  17.531  0.00  0.00    +0.000 OA
ATOM     29  C   UNL     1       2.045   3.009  18.251  0.00  0.00    +0.000 C 
ENDBRANCH  23  28
ENDBRANCH   1  24
TORSDOF 4
ENDMDL
MODEL 5
REMARK VINA RESULT:      -7.9      2.616      3.201
REMARK  Name = 
REMARK  6 active torsions:
REMARK  status: ('A' for Active; 'I' for Inactive)
REMARK    1  A    between atoms: C_1  and  O_2
REMARK    2  A    between atoms: O_2  and  C_3
REMARK    3  A    between atoms: C_6  and  O_7
REMARK    4  A    between atoms: O_7  and  C_8
REMARK    5  A    between atoms: C_9  and  C_10
REMARK    6  A    between atoms: C_14  and  C_15
REMARK                            x       y       z     vdW  Elec       q    Type
REMARK                         _______ _______ _______ _____ _____    ______ ____
ROOT
ATOM      1  C   UNL     1       2.772   7.027  18.578  0.00  0.00    +0.000 A 
ATOM      2  C   UNL     1       2.814   8.164  17.775  0.00  0.00    +0.000 A 
ATOM      3  N   UNL     1       2.111   9.113  18.473  0.00  0.00    +0.000 N 
ATOM      4  N   UNL     1       1.710  10.356  18.139  0.00  0.00    +0.000 NA
ATOM      5  C   UNL     1       0.943  10.780  19.117  0.00  0.00    +0.000 A 
ATOM      6  S   UNL     1       0.720   9.706  20.495  0.00  0.00    +0.000 S 
ATOM      7  C   UNL     1       1.718   8.573  19.646  0.00  0.00    +0.000 A 
ATOM      8  N   UNL     1       2.081   7.323  19.777  0.00  0.00    +0.000 NA
ENDROOT
BRANCH   5   9
ATOM      9  C   UNL     1       0.411  12.144  19.037  0.00  0.00    +0.000 A 
ATOM     10  C   UNL     1      -0.907  12.335  19.428  0.00  0.00    +0.000 A 
ATOM     11  N   UNL     1      -1.339  13.503  18.891  0.00  0.00    +0.000 N 
ATOM     12  C   UNL     1      -0.260  14.333  18.795  0.00  0.00    +0.000 A 
ATOM     13  C   UNL     1      -0.252  15.729  18.735  0.00  0.00    +0.000 A 
ATOM     14  C   UNL     1       0.979  16.362  18.657  0.00  0.00    +0.000 A 
ATOM     15  C   UNL     1       2.138  15.592  18.541  0.00  0.00    +0.000 A 
ATOM     16 BR   UNL     1       3.793  16.512  18.434  0.00  0.00    +0.000 Br
ATOM     17  C   UNL     1       2.114  14.178  18.555  0.00  0.00    +0.000 A 
ATOM     18  C   UNL     1       0.881  13.507  18.768  0.00  0.00    +0.000 A 
ATOM     19  H   UNL     1      -2.302  13.781  18.768  0.00  0.00    +0.000 HD
ENDBRANCH   5   9
BRANCH   1  24
ATOM     20  C   UNL     1       2.442   3.340  17.857  0.00  0.00    +0.000 A 
ATOM     21  C   UNL     1       3.720   2.967  17.471  0.00  0.00    +0.000 A 
ATOM     22  C   UNL     1       4.754   3.899  17.491  0.00  0.00    +0.000 A 
ATOM     23  C   UNL     1       4.536   5.230  17.915  0.00  0.00    +0.000 A 
ATOM     24  C   UNL     1       3.220   5.653  18.245  0.00  0.00    +0.000 A 
ATOM     25  C   UNL     1       2.199   4.670  18.224  0.00  0.00    +0.000 A 
BRANCH  20  27
ATOM     26  C   UNL     1       0.648   2.221  18.919  0.00  0.00    +0.000 C 
ATOM     27  O   UNL     1       1.519   2.333  17.820  0.00  0.00    +0.000 OA
ENDBRANCH  20  27
BRANCH  23  28
ATOM     28  O   UNL     1       5.586   6.116  17.993  0.00  0.00    +0.000 OA
ATOM     29  C   UNL     1       6.298   6.327  16.764  0.00  0.00    +0.000 C 
ENDBRANCH  23  28
ENDBRANCH   1  24
TORSDOF 4
ENDMDL
MODEL 6
REMARK VINA RESULT:      -7.9      2.782      3.987
REMARK  Name = 
REMARK  6 active torsions:
REMARK  status: ('A' for Active; 'I' for Inactive)
REMARK    1  A    between atoms: C_1  and  O_2
REMARK    2  A    between atoms: O_2  and  C_3
REMARK    3  A    between atoms: C_6  and  O_7
REMARK    4  A    between atoms: O_7  and  C_8
REMARK    5  A    between atoms: C_9  and  C_10
REMARK    6  A    between atoms: C_14  and  C_15
REMARK                            x       y       z     vdW  Elec       q    Type
REMARK                         _______ _______ _______ _____ _____    ______ ____
ROOT
ATOM      1  C   UNL     1       2.605   6.866  18.540  0.00  0.00    +0.000 A 
ATOM      2  C   UNL     1       2.594   7.982  17.705  0.00  0.00    +0.000 A 
ATOM      3  N   UNL     1       1.985   8.966  18.442  0.00  0.00    +0.000 N 
ATOM      4  N   UNL     1       1.582  10.210  18.115  0.00  0.00    +0.000 NA
ATOM      5  C   UNL     1       0.925  10.677  19.151  0.00  0.00    +0.000 A 
ATOM      6  S   UNL     1       0.813   9.645  20.573  0.00  0.00    +0.000 S 
ATOM      7  C   UNL     1       1.697   8.466  19.662  0.00  0.00    +0.000 A 
ATOM      8  N   UNL     1       2.042   7.211  19.792  0.00  0.00    +0.000 NA
ENDROOT
BRANCH   5   9
ATOM      9  C   UNL     1       0.419  12.053  19.086  0.00  0.00    +0.000 A 
ATOM     10  C   UNL     1      -0.880  12.273  19.523  0.00  0.00    +0.000 A 
ATOM     11  N   UNL     1      -1.306  13.449  18.998  0.00  0.00    +0.000 N 
ATOM     12  C   UNL     1      -0.214  14.255  18.860  0.00  0.00    +0.000 A 
ATOM     13  C   UNL     1      -0.178  15.650  18.796  0.00  0.00    +0.000 A 
ATOM     14  C   UNL     1       1.063  16.256  18.671  0.00  0.00    +0.000 A 
ATOM     15  C   UNL     1       2.200  15.462  18.515  0.00  0.00    +0.000 A 
ATOM     16 BR   UNL     1       3.869  16.346  18.345  0.00  0.00    +0.000 Br
ATOM     17  C   UNL     1       2.146  14.049  18.535  0.00  0.00    +0.000 A 
ATOM     18  C   UNL     1       0.908  13.404  18.795  0.00  0.00    +0.000 A 
ATOM     19  H   UNL     1      -2.267  13.746  18.909  0.00  0.00    +0.000 HD
ENDBRANCH   5   9
BRANCH   1  24
ATOM     20  C   UNL     1       4.681   4.093  17.048  0.00  0.00    +0.000 A 
ATOM     21  C   UNL     1       4.077   2.941  17.527  0.00  0.00    +0.000 A 
ATOM     22  C   UNL     1       2.929   3.028  18.309  0.00  0.00    +0.000 A 
ATOM     23  C   UNL     1       2.344   4.277  18.621  0.00  0.00    +0.000 A 
ATOM     24  C   UNL     1       2.986   5.474  18.202  0.00  0.00    +0.000 A 
ATOM     25  C   UNL     1       4.145   5.341  17.397  0.00  0.00    +0.000 A 
BRANCH  20  27
ATOM     26  C   UNL     1       6.964   4.553  16.635  0.00  0.00    +0.000 C 
ATOM     27  O   UNL     1       5.783   3.878  16.272  0.00  0.00    +0.000 OA
ENDBRANCH  20  27
BRANCH  23  28
ATOM     28  O   UNL     1       1.171   4.336  19.337  0.00  0.00    +0.000 OA
ATOM     29  C   UNL     1       1.225   3.748  20.645  0.00  0.00    +0.000 C 
ENDBRANCH  23  28
ENDBRANCH   1  24
TORSDOF 4
ENDMDL
MODEL 7
REMARK VINA RESULT:      -7.7      1.422      2.794
REMARK  Name = 
REMARK  6 active torsions:
REMARK  status: ('A' for Active; 'I' for Inactive)
REMARK    1  A    between atoms: C_1  and  O_2
REMARK    2  A    between atoms: O_2  and  C_3
REMARK    3  A    between atoms: C_6  and  O_7
REMARK    4  A    between atoms: O_7  and  C_8
REMARK    5  A    between atoms: C_9  and  C_10
REMARK    6  A    between atoms: C_14  and  C_15
REMARK                            x       y       z     vdW  Elec       q    Type
REMARK                         _______ _______ _______ _____ _____    ______ ____
ROOT
ATOM      1  C   UNL     1       2.418   6.734  19.778  0.00  0.00    +0.000 A 
ATOM      2  C   UNL     1       2.218   7.860  18.983  0.00  0.00    +0.000 A 
ATOM      3  N   UNL     1       1.361   8.651  19.705  0.00  0.00    +0.000 N 
ATOM      4  N   UNL     1       0.716   9.793  19.391  0.00  0.00    +0.000 NA
ATOM      5  C   UNL     1      -0.094  10.056  20.389  0.00  0.00    +0.000 A 
ATOM      6  S   UNL     1      -0.070   8.954  21.764  0.00  0.00    +0.000 S 
ATOM      7  C   UNL     1       1.109   8.041  20.883  0.00  0.00    +0.000 A 
ATOM      8  N   UNL     1       1.712   6.886  20.995  0.00  0.00    +0.000 NA
ENDROOT
BRANCH   5   9
ATOM      9  C   UNL     1      -0.884  11.290  20.333  0.00  0.00    +0.000 A 
ATOM     10  C   UNL     1      -1.010  11.908  19.097  0.00  0.00    +0.000 A 
ATOM     11  N   UNL     1      -1.372  13.198  19.306  0.00  0.00    +0.000 N 
ATOM     12  C   UNL     1      -2.112  13.234  20.452  0.00  0.00    +0.000 A 
ATOM     13  C   UNL     1      -3.051  14.194  20.839  0.00  0.00    +0.000 A 
ATOM     14  C   UNL     1      -3.697  14.009  22.052  0.00  0.00    +0.000 A 
ATOM     15  C   UNL     1      -3.320  12.945  22.873  0.00  0.00    +0.000 A 
ATOM     16 BR   UNL     1      -4.235  12.743  24.521  0.00  0.00    +0.000 Br
ATOM     17  C   UNL     1      -2.334  12.005  22.492  0.00  0.00    +0.000 A 
ATOM     18  C   UNL     1      -1.753  12.094  21.199  0.00  0.00    +0.000 A 
ATOM     19  H   UNL     1      -1.282  13.955  18.645  0.00  0.00    +0.000 HD
ENDBRANCH   5   9
BRANCH   1  24
ATOM     20  C   UNL     1       5.335   4.486  18.963  0.00  0.00    +0.000 A 
ATOM     21  C   UNL     1       4.768   3.223  18.908  0.00  0.00    +0.000 A 
ATOM     22  C   UNL     1       3.395   3.067  19.075  0.00  0.00    +0.000 A 
ATOM     23  C   UNL     1       2.549   4.180  19.289  0.00  0.00    +0.000 A 
ATOM     24  C   UNL     1       3.117   5.475  19.423  0.00  0.00    +0.000 A 
ATOM     25  C   UNL     1       4.517   5.592  19.233  0.00  0.00    +0.000 A 
BRANCH  20  27
ATOM     26  C   UNL     1       7.296   5.779  18.676  0.00  0.00    +0.000 C 
ATOM     27  O   UNL     1       6.685   4.514  18.758  0.00  0.00    +0.000 OA
ENDBRANCH  20  27
BRANCH  23  28
ATOM     28  O   UNL     1       1.187   4.010  19.383  0.00  0.00    +0.000 OA
ATOM     29  C   UNL     1       0.679   2.811  18.779  0.00  0.00    +0.000 C 
ENDBRANCH  23  28
ENDBRANCH   1  24
TORSDOF 4
ENDMDL
MODEL 8
REMARK VINA RESULT:      -7.7      2.016      3.316
REMARK  Name = 
REMARK  6 active torsions:
REMARK  status: ('A' for Active; 'I' for Inactive)
REMARK    1  A    between atoms: C_1  and  O_2
REMARK    2  A    between atoms: O_2  and  C_3
REMARK    3  A    between atoms: C_6  and  O_7
REMARK    4  A    between atoms: O_7  and  C_8
REMARK    5  A    between atoms: C_9  and  C_10
REMARK    6  A    between atoms: C_14  and  C_15
REMARK                            x       y       z     vdW  Elec       q    Type
REMARK                         _______ _______ _______ _____ _____    ______ ____
ROOT
ATOM      1  C   UNL     1       2.564   7.223  18.754  0.00  0.00    +0.000 A 
ATOM      2  C   UNL     1       2.095   8.464  18.328  0.00  0.00    +0.000 A 
ATOM      3  N   UNL     1       1.485   9.006  19.430  0.00  0.00    +0.000 N 
ATOM      4  N   UNL     1       0.744  10.122  19.586  0.00  0.00    +0.000 NA
ATOM      5  C   UNL     1       0.279  10.097  20.813  0.00  0.00    +0.000 A 
ATOM      6  S   UNL     1       0.760   8.745  21.836  0.00  0.00    +0.000 S 
ATOM      7  C   UNL     1       1.629   8.147  20.462  0.00  0.00    +0.000 A 
ATOM      8  N   UNL     1       2.269   7.056  20.128  0.00  0.00    +0.000 NA
ENDROOT
BRANCH   5   9
ATOM      9  C   UNL     1      -0.522  11.236  21.273  0.00  0.00    +0.000 A 
ATOM     10  C   UNL     1      -1.100  11.140  22.531  0.00  0.00    +0.000 A 
ATOM     11  N   UNL     1      -2.114  12.038  22.598  0.00  0.00    +0.000 N 
ATOM     12  C   UNL     1      -1.780  13.092  21.798  0.00  0.00    +0.000 A 
ATOM     13  C   UNL     1      -2.246  14.407  21.869  0.00  0.00    +0.000 A 
ATOM     14  C   UNL     1      -1.746  15.317  20.950  0.00  0.00    +0.000 A 
ATOM     15  C   UNL     1      -0.888  14.872  19.943  0.00  0.00    +0.000 A 
ATOM     16 BR   UNL     1      -0.238  16.161  18.713  0.00  0.00    +0.000 Br
ATOM     17  C   UNL     1      -0.459  13.527  19.852  0.00  0.00    +0.000 A 
ATOM     18  C   UNL     1      -0.849  12.604  20.858  0.00  0.00    +0.000 A 
ATOM     19  H   UNL     1      -2.876  12.027  23.260  0.00  0.00    +0.000 HD
ENDBRANCH   5   9
BRANCH   1  24
ATOM     20  C   UNL     1       5.024   5.562  16.428  0.00  0.00    +0.000 A 
ATOM     21  C   UNL     1       4.611   4.238  16.407  0.00  0.00    +0.000 A 
ATOM     22  C   UNL     1       3.472   3.853  17.109  0.00  0.00    +0.000 A 
ATOM     23  C   UNL     1       2.706   4.789  17.839  0.00  0.00    +0.000 A 
ATOM     24  C   UNL     1       3.150   6.135  17.935  0.00  0.00    +0.000 A 
ATOM     25  C   UNL     1       4.307   6.490  17.195  0.00  0.00    +0.000 A 
BRANCH  20  27
ATOM     26  C   UNL     1       7.083   4.788  15.558  0.00  0.00    +0.000 C 
ATOM     27  O   UNL     1       6.138   5.822  15.682  0.00  0.00    +0.000 OA
ENDBRANCH  20  27
BRANCH  23  28
ATOM     28  O   UNL     1       1.545   4.399  18.468  0.00  0.00    +0.000 OA
ATOM     29  C   UNL     1       1.401   2.983  18.658  0.00  0.00    +0.000 C 
ENDBRANCH  23  28
ENDBRANCH   1  24
TORSDOF 4
ENDMDL
MODEL 9
REMARK VINA RESULT:      -7.6      2.305      3.545
REMARK  Name = 
REMARK  6 active torsions:
REMARK  status: ('A' for Active; 'I' for Inactive)
REMARK    1  A    between atoms: C_1  and  O_2
REMARK    2  A    between atoms: O_2  and  C_3
REMARK    3  A    between atoms: C_6  and  O_7
REMARK    4  A    between atoms: O_7  and  C_8
REMARK    5  A    between atoms: C_9  and  C_10
REMARK    6  A    between atoms: C_14  and  C_15
REMARK                            x       y       z     vdW  Elec       q    Type
REMARK                         _______ _______ _______ _____ _____    ______ ____
ROOT
ATOM      1  C   UNL     1       3.184   6.642  18.486  0.00  0.00    +0.000 A 
ATOM      2  C   UNL     1       2.630   6.578  19.763  0.00  0.00    +0.000 A 
ATOM      3  N   UNL     1       1.883   7.722  19.880  0.00  0.00    +0.000 N 
ATOM      4  N   UNL     1       1.231   8.264  20.928  0.00  0.00    +0.000 NA
ATOM      5  C   UNL     1       0.801   9.440  20.538  0.00  0.00    +0.000 A 
ATOM      6  S   UNL     1       1.130   9.913  18.873  0.00  0.00    +0.000 S 
ATOM      7  C   UNL     1       1.959   8.400  18.715  0.00  0.00    +0.000 A 
ATOM      8  N   UNL     1       2.723   7.809  17.832  0.00  0.00    +0.000 NA
ENDROOT
BRANCH   5   9
ATOM      9  C   UNL     1      -0.001  10.230  21.478  0.00  0.00    +0.000 A 
ATOM     10  C   UNL     1      -0.160   9.724  22.760  0.00  0.00    +0.000 A 
ATOM     11  N   UNL     1      -1.239  10.324  23.319  0.00  0.00    +0.000 N 
ATOM     12  C   UNL     1      -1.329  11.579  22.790  0.00  0.00    +0.000 A 
ATOM     13  C   UNL     1      -1.958  12.700  23.337  0.00  0.00    +0.000 A 
ATOM     14  C   UNL     1      -1.903  13.884  22.616  0.00  0.00    +0.000 A 
ATOM     15  C   UNL     1      -1.319  13.887  21.348  0.00  0.00    +0.000 A 
ATOM     16 BR   UNL     1      -1.276  15.533  20.408  0.00  0.00    +0.000 Br
ATOM     17  C   UNL     1      -0.727  12.733  20.784  0.00  0.00    +0.000 A 
ATOM     18  C   UNL     1      -0.651  11.543  21.554  0.00  0.00    +0.000 A 
ATOM     19  H   UNL     1      -1.761   9.988  24.116  0.00  0.00    +0.000 HD
ENDBRANCH   5   9
BRANCH   1  24
ATOM     20  C   UNL     1       5.803   5.530  16.010  0.00  0.00    +0.000 A 
ATOM     21  C   UNL     1       6.327   4.382  16.584  0.00  0.00    +0.000 A 
ATOM     22  C   UNL     1       5.800   3.896  17.776  0.00  0.00    +0.000 A 
ATOM     23  C   UNL     1       4.719   4.540  18.420  0.00  0.00    +0.000 A 
ATOM     24  C   UNL     1       4.213   5.757  17.889  0.00  0.00    +0.000 A 
ATOM     25  C   UNL     1       4.769   6.212  16.667  0.00  0.00    +0.000 A 
BRANCH  20  27
ATOM     26  C   UNL     1       6.872   4.860  14.009  0.00  0.00    +0.000 C 
ATOM     27  O   UNL     1       6.385   5.894  14.829  0.00  0.00    +0.000 OA
ENDBRANCH  20  27
BRANCH  23  28
ATOM     28  O   UNL     1       4.168   4.003  19.560  0.00  0.00    +0.000 OA
ATOM     29  C   UNL     1       3.301   2.878  19.347  0.00  0.00    +0.000 C 
ENDBRANCH  23  28
ENDBRANCH   1  24
TORSDOF 4
ENDMDL
