MODEL 1
REMARK VINA RESULT:      -8.4      0.000      0.000
REMARK  Name = 
REMARK  7 active torsions:
REMARK  status: ('A' for Active; 'I' for Inactive)
REMARK    1  A    between atoms: C_1  and  O_2
REMARK    2  A    between atoms: O_2  and  C_3
REMARK    3  A    between atoms: C_6  and  C_7
REMARK    4  A    between atoms: C_10  and  C_11
REMARK    5  A    between atoms: C_11  and  N_12
REMARK    6  A    between atoms: C_14  and  C_15
REMARK    7  A    between atoms: C_19  and  N_20
REMARK                            x       y       z     vdW  Elec       q    Type
REMARK                         _______ _______ _______ _____ _____    ______ ____
ROOT
ATOM      1  C   UNL     1       3.324   3.761  18.708  0.00  0.00    +0.000 C 
ENDROOT
BRANCH   1   5
ATOM      2  C   UNL     1       1.547   7.360  20.388  0.00  0.00    +0.000 A 
ATOM      3  C   UNL     1       2.251   7.388  19.172  0.00  0.00    +0.000 A 
ATOM      4  C   UNL     1       2.806   6.229  18.624  0.00  0.00    +0.000 A 
ATOM      5  C   UNL     1       2.674   5.000  19.277  0.00  0.00    +0.000 A 
ATOM      6  C   UNL     1       1.985   4.956  20.493  0.00  0.00    +0.000 A 
ATOM      7  C   UNL     1       1.426   6.117  21.034  0.00  0.00    +0.000 A 
BRANCH   2  11
ATOM      8  C   UNL     1       0.031  10.892  22.178  0.00  0.00    +0.000 A 
ATOM      9  C   UNL     1      -0.141  10.742  20.812  0.00  0.00    +0.000 A 
ATOM     10  C   UNL     1       0.349   9.582  20.214  0.00  0.00    +0.000 A 
ATOM     11  C   UNL     1       0.985   8.591  20.980  0.00  0.00    +0.000 A 
ATOM     12  C   UNL     1       1.070   8.854  22.349  0.00  0.00    +0.000 A 
ATOM     13  N   UNL     1       0.609   9.965  22.964  0.00  0.00    +0.000 NA
BRANCH   8  15
ATOM     14  C   UNL     1      -1.819  12.015  22.996  0.00  0.00    +0.000 C 
ATOM     15  O   UNL     1      -0.417  12.067  22.741  0.00  0.00    +0.000 OA
ENDBRANCH   8  15
ENDBRANCH   2  11
ENDBRANCH   1   5
BRANCH   1  16
ATOM     16  N   UNL     1       4.407   4.114  17.812  0.00  0.00    +0.000 N 
ATOM     17  C   UNL     1       4.366   4.201  16.451  0.00  0.00    +0.000 A 
ATOM     18  C   UNL     1       5.682   4.370  16.095  0.00  0.00    +0.000 A 
ATOM     19  N   UNL     1       6.444   4.498  17.229  0.00  0.00    +0.000 NA
ATOM     20  N   UNL     1       5.647   4.341  18.281  0.00  0.00    +0.000 NA
BRANCH  18  21
ATOM     21  C   UNL     1       6.209   4.375  14.746  0.00  0.00    +0.000 A 
ATOM     22  C   UNL     1       5.640   3.574  13.748  0.00  0.00    +0.000 A 
ATOM     23  C   UNL     1       6.161   3.583  12.455  0.00  0.00    +0.000 A 
ATOM     24  C   UNL     1       7.267   4.380  12.159  0.00  0.00    +0.000 A 
ATOM     25  C   UNL     1       7.887   5.142  13.154  0.00  0.00    +0.000 A 
ATOM     26  C   UNL     1       7.321   5.169  14.431  0.00  0.00    +0.000 A 
BRANCH  25  27
ATOM     27  N   UNL     1       8.912   6.036  12.816  0.00  0.00    +0.000 N 
ATOM     28  H   UNL     1       9.793   5.584  12.598  0.00  0.00    +0.000 HD
ATOM     29  H   UNL     1       9.025   6.791  13.486  0.00  0.00    +0.000 HD
ENDBRANCH  25  27
ENDBRANCH  18  21
ENDBRANCH   1  16
TORSDOF 6
ENDMDL
MODEL 2
REMARK VINA RESULT:      -8.3      1.281      1.950
REMARK  Name = 
REMARK  7 active torsions:
REMARK  status: ('A' for Active; 'I' for Inactive)
REMARK    1  A    between atoms: C_1  and  O_2
REMARK    2  A    between atoms: O_2  and  C_3
REMARK    3  A    between atoms: C_6  and  C_7
REMARK    4  A    between atoms: C_10  and  C_11
REMARK    5  A    between atoms: C_11  and  N_12
REMARK    6  A    between atoms: C_14  and  C_15
REMARK    7  A    between atoms: C_19  and  N_20
REMARK                            x       y       z     vdW  Elec       q    Type
REMARK                         _______ _______ _______ _____ _____    ______ ____
ROOT
ATOM      1  C   UNL     1       3.996   3.824  18.832  0.00  0.00    +0.000 C 
ENDROOT
BRANCH   1   5
ATOM      2  C   UNL     1       1.839   7.371  20.137  0.00  0.00    +0.000 A 
ATOM      3  C   UNL     1       1.766   6.163  20.852  0.00  0.00    +0.000 A 
ATOM      4  C   UNL     1       2.473   5.030  20.443  0.00  0.00    +0.000 A 
ATOM      5  C   UNL     1       3.279   5.068  19.302  0.00  0.00    +0.000 A 
ATOM      6  C   UNL     1       3.355   6.259  18.572  0.00  0.00    +0.000 A 
ATOM      7  C   UNL     1       2.652   7.392  18.989  0.00  0.00    +0.000 A 
BRANCH   2  11
ATOM      8  C   UNL     1      -0.412  10.799  21.212  0.00  0.00    +0.000 A 
ATOM      9  C   UNL     1      -0.253   9.812  22.169  0.00  0.00    +0.000 A 
ATOM     10  C   UNL     1       0.490   8.682  21.828  0.00  0.00    +0.000 A 
ATOM     11  C   UNL     1       1.070   8.560  20.555  0.00  0.00    +0.000 A 
ATOM     12  C   UNL     1       0.856   9.638  19.692  0.00  0.00    +0.000 A 
ATOM     13  N   UNL     1       0.142  10.747  19.986  0.00  0.00    +0.000 NA
BRANCH   8  15
ATOM     14  C   UNL     1      -1.480  11.893  22.948  0.00  0.00    +0.000 C 
ATOM     15  O   UNL     1      -1.190  11.884  21.552  0.00  0.00    +0.000 OA
ENDBRANCH   8  15
ENDBRANCH   2  11
ENDBRANCH   1   5
BRANCH   1  16
ATOM     16  N   UNL     1       4.985   4.150  17.824  0.00  0.00    +0.000 N 
ATOM     17  C   UNL     1       4.815   4.177  16.470  0.00  0.00    +0.000 A 
ATOM     18  C   UNL     1       6.089   4.345  15.985  0.00  0.00    +0.000 A 
ATOM     19  N   UNL     1       6.952   4.530  17.037  0.00  0.00    +0.000 NA
ATOM     20  N   UNL     1       6.259   4.410  18.164  0.00  0.00    +0.000 NA
BRANCH  18  21
ATOM     21  C   UNL     1       6.487   4.297  14.594  0.00  0.00    +0.000 A 
ATOM     22  C   UNL     1       7.397   5.226  14.073  0.00  0.00    +0.000 A 
ATOM     23  C   UNL     1       7.767   5.172  12.730  0.00  0.00    +0.000 A 
ATOM     24  C   UNL     1       7.213   4.201  11.896  0.00  0.00    +0.000 A 
ATOM     25  C   UNL     1       6.258   3.302  12.381  0.00  0.00    +0.000 A 
ATOM     26  C   UNL     1       5.938   3.329  13.741  0.00  0.00    +0.000 A 
BRANCH  25  27
ATOM     27  N   UNL     1       5.808   2.251  11.570  0.00  0.00    +0.000 N 
ATOM     28  H   UNL     1       6.336   2.143  10.711  0.00  0.00    +0.000 HD
ATOM     29  H   UNL     1       4.806   2.271  11.404  0.00  0.00    +0.000 HD
ENDBRANCH  25  27
ENDBRANCH  18  21
ENDBRANCH   1  16
TORSDOF 6
ENDMDL
MODEL 3
REMARK VINA RESULT:      -8.2      0.986      1.636
REMARK  Name = 
REMARK  7 active torsions:
REMARK  status: ('A' for Active; 'I' for Inactive)
REMARK    1  A    between atoms: C_1  and  O_2
REMARK    2  A    between atoms: O_2  and  C_3
REMARK    3  A    between atoms: C_6  and  C_7
REMARK    4  A    between atoms: C_10  and  C_11
REMARK    5  A    between atoms: C_11  and  N_12
REMARK    6  A    between atoms: C_14  and  C_15
REMARK    7  A    between atoms: C_19  and  N_20
REMARK                            x       y       z     vdW  Elec       q    Type
REMARK                         _______ _______ _______ _____ _____    ______ ____
ROOT
ATOM      1  C   UNL     1       3.392   3.855  18.499  0.00  0.00    +0.000 C 
ENDROOT
BRANCH   1   5
ATOM      2  C   UNL     1       1.712   7.427  20.329  0.00  0.00    +0.000 A 
ATOM      3  C   UNL     1       1.675   6.182  20.980  0.00  0.00    +0.000 A 
ATOM      4  C   UNL     1       2.231   5.040  20.400  0.00  0.00    +0.000 A 
ATOM      5  C   UNL     1       2.844   5.105  19.146  0.00  0.00    +0.000 A 
ATOM      6  C   UNL     1       2.880   6.334  18.479  0.00  0.00    +0.000 A 
ATOM      7  C   UNL     1       2.329   7.476  19.067  0.00  0.00    +0.000 A 
BRANCH   2  11
ATOM      8  C   UNL     1       0.050  10.876  22.151  0.00  0.00    +0.000 A 
ATOM      9  C   UNL     1      -0.099  10.741  20.781  0.00  0.00    +0.000 A 
ATOM     10  C   UNL     1       0.439   9.608  20.172  0.00  0.00    +0.000 A 
ATOM     11  C   UNL     1       1.100   8.629  20.931  0.00  0.00    +0.000 A 
ATOM     12  C   UNL     1       1.158   8.873  22.306  0.00  0.00    +0.000 A 
ATOM     13  N   UNL     1       0.650   9.957  22.931  0.00  0.00    +0.000 NA
BRANCH   8  15
ATOM     14  C   UNL     1      -1.870  12.055  22.674  0.00  0.00    +0.000 C 
ATOM     15  O   UNL     1      -0.446  12.026  22.727  0.00  0.00    +0.000 OA
ENDBRANCH   8  15
ENDBRANCH   2  11
ENDBRANCH   1   5
BRANCH   1  16
ATOM     16  N   UNL     1       4.482   4.178  17.599  0.00  0.00    +0.000 N 
ATOM     17  C   UNL     1       4.456   4.197  16.235  0.00  0.00    +0.000 A 
ATOM     18  C   UNL     1       5.775   4.365  15.886  0.00  0.00    +0.000 A 
ATOM     19  N   UNL     1       6.521   4.559  17.022  0.00  0.00    +0.000 NA
ATOM     20  N   UNL     1       5.712   4.444  18.070  0.00  0.00    +0.000 NA
BRANCH  18  21
ATOM     21  C   UNL     1       6.318   4.310  14.546  0.00  0.00    +0.000 A 
ATOM     22  C   UNL     1       7.260   5.252  14.110  0.00  0.00    +0.000 A 
ATOM     23  C   UNL     1       7.770   5.191  12.815  0.00  0.00    +0.000 A 
ATOM     24  C   UNL     1       7.326   4.199  11.940  0.00  0.00    +0.000 A 
ATOM     25  C   UNL     1       6.342   3.287  12.334  0.00  0.00    +0.000 A 
ATOM     26  C   UNL     1       5.881   3.321  13.652  0.00  0.00    +0.000 A 
BRANCH  25  27
ATOM     27  N   UNL     1       6.001   2.217  11.494  0.00  0.00    +0.000 N 
ATOM     28  H   UNL     1       5.594   2.506  10.611  0.00  0.00    +0.000 HD
ATOM     29  H   UNL     1       5.446   1.503  11.956  0.00  0.00    +0.000 HD
ENDBRANCH  25  27
ENDBRANCH  18  21
ENDBRANCH   1  16
TORSDOF 6
ENDMDL
MODEL 4
REMARK VINA RESULT:      -8.2      1.430      1.861
REMARK  Name = 
REMARK  7 active torsions:
REMARK  status: ('A' for Active; 'I' for Inactive)
REMARK    1  A    between atoms: C_1  and  O_2
REMARK    2  A    between atoms: O_2  and  C_3
REMARK    3  A    between atoms: C_6  and  C_7
REMARK    4  A    between atoms: C_10  and  C_11
REMARK    5  A    between atoms: C_11  and  N_12
REMARK    6  A    between atoms: C_14  and  C_15
REMARK    7  A    between atoms: C_19  and  N_20
REMARK                            x       y       z     vdW  Elec       q    Type
REMARK                         _______ _______ _______ _____ _____    ______ ____
ROOT
ATOM      1  C   UNL     1       4.311   3.847  18.991  0.00  0.00    +0.000 C 
ENDROOT
BRANCH   1   5
ATOM      2  C   UNL     1       1.896   7.316  20.028  0.00  0.00    +0.000 A 
ATOM      3  C   UNL     1       2.767   7.331  18.924  0.00  0.00    +0.000 A 
ATOM      4  C   UNL     1       3.528   6.211  18.581  0.00  0.00    +0.000 A 
ATOM      5  C   UNL     1       3.443   5.036  19.333  0.00  0.00    +0.000 A 
ATOM      6  C   UNL     1       2.590   5.007  20.441  0.00  0.00    +0.000 A 
ATOM      7  C   UNL     1       1.825   6.127  20.776  0.00  0.00    +0.000 A 
BRANCH   2  11
ATOM      8  C   UNL     1      -0.393  10.754  20.986  0.00  0.00    +0.000 A 
ATOM      9  C   UNL     1      -0.245   9.790  21.968  0.00  0.00    +0.000 A 
ATOM     10  C   UNL     1       0.511   8.657  21.666  0.00  0.00    +0.000 A 
ATOM     11  C   UNL     1       1.113   8.510  20.406  0.00  0.00    +0.000 A 
ATOM     12  C   UNL     1       0.908   9.566  19.515  0.00  0.00    +0.000 A 
ATOM     13  N   UNL     1       0.183  10.677  19.772  0.00  0.00    +0.000 NA
BRANCH   8  15
ATOM     14  C   UNL     1      -1.766  12.397  20.111  0.00  0.00    +0.000 C 
ATOM     15  O   UNL     1      -1.182  11.842  21.287  0.00  0.00    +0.000 OA
ENDBRANCH   8  15
ENDBRANCH   2  11
ENDBRANCH   1   5
BRANCH   1  16
ATOM     16  N   UNL     1       5.241   4.179  17.930  0.00  0.00    +0.000 N 
ATOM     17  C   UNL     1       5.002   4.188  16.587  0.00  0.00    +0.000 A 
ATOM     18  C   UNL     1       6.247   4.372  16.035  0.00  0.00    +0.000 A 
ATOM     19  N   UNL     1       7.159   4.585  17.039  0.00  0.00    +0.000 NA
ATOM     20  N   UNL     1       6.526   4.466  18.202  0.00  0.00    +0.000 NA
BRANCH  18  21
ATOM     21  C   UNL     1       6.574   4.315  14.626  0.00  0.00    +0.000 A 
ATOM     22  C   UNL     1       7.462   5.237  14.055  0.00  0.00    +0.000 A 
ATOM     23  C   UNL     1       7.763   5.174  12.696  0.00  0.00    +0.000 A 
ATOM     24  C   UNL     1       7.163   4.202  11.896  0.00  0.00    +0.000 A 
ATOM     25  C   UNL     1       6.229   3.311  12.433  0.00  0.00    +0.000 A 
ATOM     26  C   UNL     1       5.979   3.346  13.807  0.00  0.00    +0.000 A 
BRANCH  25  27
ATOM     27  N   UNL     1       5.734   2.258  11.651  0.00  0.00    +0.000 N 
ATOM     28  H   UNL     1       5.149   2.562  10.880  0.00  0.00    +0.000 HD
ATOM     29  H   UNL     1       5.295   1.522  12.197  0.00  0.00    +0.000 HD
ENDBRANCH  25  27
ENDBRANCH  18  21
ENDBRANCH   1  16
TORSDOF 6
ENDMDL
MODEL 5
REMARK VINA RESULT:      -8.1      0.794      1.041
REMARK  Name = 
REMARK  7 active torsions:
REMARK  status: ('A' for Active; 'I' for Inactive)
REMARK    1  A    between atoms: C_1  and  O_2
REMARK    2  A    between atoms: O_2  and  C_3
REMARK    3  A    between atoms: C_6  and  C_7
REMARK    4  A    between atoms: C_10  and  C_11
REMARK    5  A    between atoms: C_11  and  N_12
REMARK    6  A    between atoms: C_14  and  C_15
REMARK    7  A    between atoms: C_19  and  N_20
REMARK                            x       y       z     vdW  Elec       q    Type
REMARK                         _______ _______ _______ _____ _____    ______ ____
ROOT
ATOM      1  C   UNL     1       3.349   3.864  18.876  0.00  0.00    +0.000 C 
ENDROOT
BRANCH   1   5
ATOM      2  C   UNL     1       1.532   7.524  20.372  0.00  0.00    +0.000 A 
ATOM      3  C   UNL     1       2.288   7.511  19.187  0.00  0.00    +0.000 A 
ATOM      4  C   UNL     1       2.856   6.333  18.698  0.00  0.00    +0.000 A 
ATOM      5  C   UNL     1       2.685   5.124  19.380  0.00  0.00    +0.000 A 
ATOM      6  C   UNL     1       1.944   5.121  20.566  0.00  0.00    +0.000 A 
ATOM      7  C   UNL     1       1.372   6.302  21.048  0.00  0.00    +0.000 A 
BRANCH   2  11
ATOM      8  C   UNL     1      -0.159  11.152  21.772  0.00  0.00    +0.000 A 
ATOM      9  C   UNL     1      -0.189  10.061  22.624  0.00  0.00    +0.000 A 
ATOM     10  C   UNL     1       0.369   8.864  22.176  0.00  0.00    +0.000 A 
ATOM     11  C   UNL     1       0.956   8.776  20.903  0.00  0.00    +0.000 A 
ATOM     12  C   UNL     1       0.944   9.955  20.154  0.00  0.00    +0.000 A 
ATOM     13  N   UNL     1       0.413  11.132  20.553  0.00  0.00    +0.000 NA
BRANCH   8  15
ATOM     14  C   UNL     1      -0.006  13.459  21.827  0.00  0.00    +0.000 C 
ATOM     15  O   UNL     1      -0.758  12.311  22.214  0.00  0.00    +0.000 OA
ENDBRANCH   8  15
ENDBRANCH   2  11
ENDBRANCH   1   5
BRANCH   1  16
ATOM     16  N   UNL     1       4.426   4.182  17.959  0.00  0.00    +0.000 N 
ATOM     17  C   UNL     1       4.361   4.274  16.600  0.00  0.00    +0.000 A 
ATOM     18  C   UNL     1       5.676   4.398  16.218  0.00  0.00    +0.000 A 
ATOM     19  N   UNL     1       6.463   4.496  17.338  0.00  0.00    +0.000 NA
ATOM     20  N   UNL     1       5.682   4.364  18.404  0.00  0.00    +0.000 NA
BRANCH  18  21
ATOM     21  C   UNL     1       6.176   4.388  14.860  0.00  0.00    +0.000 A 
ATOM     22  C   UNL     1       5.586   3.577  13.881  0.00  0.00    +0.000 A 
ATOM     23  C   UNL     1       6.082   3.572  12.578  0.00  0.00    +0.000 A 
ATOM     24  C   UNL     1       7.183   4.365  12.252  0.00  0.00    +0.000 A 
ATOM     25  C   UNL     1       7.823   5.135  13.227  0.00  0.00    +0.000 A 
ATOM     26  C   UNL     1       7.283   5.177  14.514  0.00  0.00    +0.000 A 
BRANCH  25  27
ATOM     27  N   UNL     1       8.843   6.025  12.860  0.00  0.00    +0.000 N 
ATOM     28  H   UNL     1       9.760   5.595  12.806  0.00  0.00    +0.000 HD
ATOM     29  H   UNL     1       8.851   6.878  13.412  0.00  0.00    +0.000 HD
ENDBRANCH  25  27
ENDBRANCH  18  21
ENDBRANCH   1  16
TORSDOF 6
ENDMDL
MODEL 6
REMARK VINA RESULT:      -8.1      4.598      9.798
REMARK  Name = 
REMARK  7 active torsions:
REMARK  status: ('A' for Active; 'I' for Inactive)
REMARK    1  A    between atoms: C_1  and  O_2
REMARK    2  A    between atoms: O_2  and  C_3
REMARK    3  A    between atoms: C_6  and  C_7
REMARK    4  A    between atoms: C_10  and  C_11
REMARK    5  A    between atoms: C_11  and  N_12
REMARK    6  A    between atoms: C_14  and  C_15
REMARK    7  A    between atoms: C_19  and  N_20
REMARK                            x       y       z     vdW  Elec       q    Type
REMARK                         _______ _______ _______ _____ _____    ______ ____
ROOT
ATOM      1  C   UNL     1       0.070  10.337  20.335  0.00  0.00    +0.000 C 
ENDROOT
BRANCH   1   5
ATOM      2  C   UNL     1       2.626   7.408  18.381  0.00  0.00    +0.000 A 
ATOM      3  C   UNL     1       2.276   7.287  19.737  0.00  0.00    +0.000 A 
ATOM      4  C   UNL     1       1.441   8.218  20.359  0.00  0.00    +0.000 A 
ATOM      5  C   UNL     1       0.927   9.303  19.642  0.00  0.00    +0.000 A 
ATOM      6  C   UNL     1       1.274   9.444  18.295  0.00  0.00    +0.000 A 
ATOM      7  C   UNL     1       2.104   8.506  17.675  0.00  0.00    +0.000 A 
BRANCH   2  11
ATOM      8  C   UNL     1       5.122   4.541  16.502  0.00  0.00    +0.000 A 
ATOM      9  C   UNL     1       5.442   5.877  16.333  0.00  0.00    +0.000 A 
ATOM     10  C   UNL     1       4.631   6.828  16.951  0.00  0.00    +0.000 A 
ATOM     11  C   UNL     1       3.532   6.438  17.732  0.00  0.00    +0.000 A 
ATOM     12  C   UNL     1       3.335   5.060  17.844  0.00  0.00    +0.000 A 
ATOM     13  N   UNL     1       4.097   4.109  17.261  0.00  0.00    +0.000 NA
BRANCH   8  15
ATOM     14  C   UNL     1       6.276   4.087  14.549  0.00  0.00    +0.000 C 
ATOM     15  O   UNL     1       5.907   3.619  15.845  0.00  0.00    +0.000 OA
ENDBRANCH   8  15
ENDBRANCH   2  11
ENDBRANCH   1   5
BRANCH   1  16
ATOM     16  N   UNL     1       0.711  11.637  20.306  0.00  0.00    +0.000 N 
ATOM     17  C   UNL     1       0.683  12.556  19.297  0.00  0.00    +0.000 A 
ATOM     18  C   UNL     1       1.597  13.503  19.693  0.00  0.00    +0.000 A 
ATOM     19  N   UNL     1       2.047  13.196  20.953  0.00  0.00    +0.000 NA
ATOM     20  N   UNL     1       1.492  12.047  21.320  0.00  0.00    +0.000 NA
BRANCH  18  21
ATOM     21  C   UNL     1       2.055  14.629  18.907  0.00  0.00    +0.000 A 
ATOM     22  C   UNL     1       3.195  14.527  18.098  0.00  0.00    +0.000 A 
ATOM     23  C   UNL     1       3.629  15.620  17.352  0.00  0.00    +0.000 A 
ATOM     24  C   UNL     1       2.937  16.829  17.425  0.00  0.00    +0.000 A 
ATOM     25  C   UNL     1       1.833  16.971  18.271  0.00  0.00    +0.000 A 
ATOM     26  C   UNL     1       1.372  15.852  18.970  0.00  0.00    +0.000 A 
BRANCH  25  27
ATOM     27  N   UNL     1       1.069  18.146  18.237  0.00  0.00    +0.000 N 
ATOM     28  H   UNL     1       0.253  18.120  18.839  0.00  0.00    +0.000 HD
ATOM     29  H   UNL     1       0.840  18.451  17.295  0.00  0.00    +0.000 HD
ENDBRANCH  25  27
ENDBRANCH  18  21
ENDBRANCH   1  16
TORSDOF 6
ENDMDL
MODEL 7
REMARK VINA RESULT:      -7.9      0.793      1.376
REMARK  Name = 
REMARK  7 active torsions:
REMARK  status: ('A' for Active; 'I' for Inactive)
REMARK    1  A    between atoms: C_1  and  O_2
REMARK    2  A    between atoms: O_2  and  C_3
REMARK    3  A    between atoms: C_6  and  C_7
REMARK    4  A    between atoms: C_10  and  C_11
REMARK    5  A    between atoms: C_11  and  N_12
REMARK    6  A    between atoms: C_14  and  C_15
REMARK    7  A    between atoms: C_19  and  N_20
REMARK                            x       y       z     vdW  Elec       q    Type
REMARK                         _______ _______ _______ _____ _____    ______ ____
ROOT
ATOM      1  C   UNL     1       3.347   3.995  18.993  0.00  0.00    +0.000 C 
ENDROOT
BRANCH   1   5
ATOM      2  C   UNL     1       1.570   7.707  20.407  0.00  0.00    +0.000 A 
ATOM      3  C   UNL     1       1.452   6.512  21.138  0.00  0.00    +0.000 A 
ATOM      4  C   UNL     1       2.038   5.325  20.693  0.00  0.00    +0.000 A 
ATOM      5  C   UNL     1       2.764   5.294  19.498  0.00  0.00    +0.000 A 
ATOM      6  C   UNL     1       2.883   6.471  18.754  0.00  0.00    +0.000 A 
ATOM      7  C   UNL     1       2.301   7.659  19.207  0.00  0.00    +0.000 A 
BRANCH   2  11
ATOM      8  C   UNL     1      -0.304  11.320  21.596  0.00  0.00    +0.000 A 
ATOM      9  C   UNL     1      -0.375  10.245  22.466  0.00  0.00    +0.000 A 
ATOM     10  C   UNL     1       0.243   9.054  22.088  0.00  0.00    +0.000 A 
ATOM     11  C   UNL     1       0.927   8.955  20.865  0.00  0.00    +0.000 A 
ATOM     12  C   UNL     1       0.947  10.118  20.093  0.00  0.00    +0.000 A 
ATOM     13  N   UNL     1       0.361  11.289  20.425  0.00  0.00    +0.000 NA
BRANCH   8  15
ATOM     14  C   UNL     1      -2.291  12.495  21.451  0.00  0.00    +0.000 C 
ATOM     15  O   UNL     1      -0.961  12.472  21.966  0.00  0.00    +0.000 OA
ENDBRANCH   8  15
ENDBRANCH   2  11
ENDBRANCH   1   5
BRANCH   1  16
ATOM     16  N   UNL     1       4.442   4.245  18.076  0.00  0.00    +0.000 N 
ATOM     17  C   UNL     1       4.375   4.386  16.721  0.00  0.00    +0.000 A 
ATOM     18  C   UNL     1       5.692   4.405  16.330  0.00  0.00    +0.000 A 
ATOM     19  N   UNL     1       6.494   4.395  17.444  0.00  0.00    +0.000 NA
ATOM     20  N   UNL     1       5.712   4.299  18.514  0.00  0.00    +0.000 NA
BRANCH  18  21
ATOM     21  C   UNL     1       6.179   4.395  14.967  0.00  0.00    +0.000 A 
ATOM     22  C   UNL     1       5.576   3.589  13.992  0.00  0.00    +0.000 A 
ATOM     23  C   UNL     1       6.058   3.584  12.685  0.00  0.00    +0.000 A 
ATOM     24  C   UNL     1       7.161   4.370  12.349  0.00  0.00    +0.000 A 
ATOM     25  C   UNL     1       7.815   5.136  13.319  0.00  0.00    +0.000 A 
ATOM     26  C   UNL     1       7.287   5.178  14.612  0.00  0.00    +0.000 A 
BRANCH  25  27
ATOM     27  N   UNL     1       8.836   6.020  12.944  0.00  0.00    +0.000 N 
ATOM     28  H   UNL     1       9.625   5.567  12.497  0.00  0.00    +0.000 HD
ATOM     29  H   UNL     1       9.125   6.643  13.693  0.00  0.00    +0.000 HD
ENDBRANCH  25  27
ENDBRANCH  18  21
ENDBRANCH   1  16
TORSDOF 6
ENDMDL
MODEL 8
REMARK VINA RESULT:      -7.9      4.483     10.093
REMARK  Name = 
REMARK  7 active torsions:
REMARK  status: ('A' for Active; 'I' for Inactive)
REMARK    1  A    between atoms: C_1  and  O_2
REMARK    2  A    between atoms: O_2  and  C_3
REMARK    3  A    between atoms: C_6  and  C_7
REMARK    4  A    between atoms: C_10  and  C_11
REMARK    5  A    between atoms: C_11  and  N_12
REMARK    6  A    between atoms: C_14  and  C_15
REMARK    7  A    between atoms: C_19  and  N_20
REMARK                            x       y       z     vdW  Elec       q    Type
REMARK                         _______ _______ _______ _____ _____    ______ ____
ROOT
ATOM      1  C   UNL     1      -0.082  10.270  20.475  0.00  0.00    +0.000 C 
ENDROOT
BRANCH   1   5
ATOM      2  C   UNL     1       2.547   7.438  18.474  0.00  0.00    +0.000 A 
ATOM      3  C   UNL     1       1.999   8.539  17.792  0.00  0.00    +0.000 A 
ATOM      4  C   UNL     1       1.170   9.458  18.440  0.00  0.00    +0.000 A 
ATOM      5  C   UNL     1       0.861   9.305  19.795  0.00  0.00    +0.000 A 
ATOM      6  C   UNL     1       1.390   8.211  20.486  0.00  0.00    +0.000 A 
ATOM      7  C   UNL     1       2.225   7.298  19.835  0.00  0.00    +0.000 A 
BRANCH   2  11
ATOM      8  C   UNL     1       5.105   4.686  16.510  0.00  0.00    +0.000 A 
ATOM      9  C   UNL     1       3.989   4.176  17.152  0.00  0.00    +0.000 A 
ATOM     10  C   UNL     1       3.138   5.073  17.797  0.00  0.00    +0.000 A 
ATOM     11  C   UNL     1       3.401   6.453  17.781  0.00  0.00    +0.000 A 
ATOM     12  C   UNL     1       4.544   6.837  17.076  0.00  0.00    +0.000 A 
ATOM     13  N   UNL     1       5.392   5.999  16.440  0.00  0.00    +0.000 NA
BRANCH   8  15
ATOM     14  C   UNL     1       6.453   4.270  14.676  0.00  0.00    +0.000 C 
ATOM     15  O   UNL     1       5.959   3.779  15.921  0.00  0.00    +0.000 OA
ENDBRANCH   8  15
ENDBRANCH   2  11
ENDBRANCH   1   5
BRANCH   1  16
ATOM     16  N   UNL     1       0.460  11.615  20.460  0.00  0.00    +0.000 N 
ATOM     17  C   UNL     1       0.099  12.648  19.644  0.00  0.00    +0.000 A 
ATOM     18  C   UNL     1       1.042  13.613  19.904  0.00  0.00    +0.000 A 
ATOM     19  N   UNL     1       1.850  13.190  20.930  0.00  0.00    +0.000 NA
ATOM     20  N   UNL     1       1.481  11.959  21.264  0.00  0.00    +0.000 NA
BRANCH  18  21
ATOM     21  C   UNL     1       1.200  14.866  19.196  0.00  0.00    +0.000 A 
ATOM     22  C   UNL     1       2.462  15.296  18.767  0.00  0.00    +0.000 A 
ATOM     23  C   UNL     1       2.602  16.507  18.091  0.00  0.00    +0.000 A 
ATOM     24  C   UNL     1       1.481  17.304  17.858  0.00  0.00    +0.000 A 
ATOM     25  C   UNL     1       0.221  16.923  18.330  0.00  0.00    +0.000 A 
ATOM     26  C   UNL     1       0.085  15.681  18.955  0.00  0.00    +0.000 A 
BRANCH  25  27
ATOM     27  N   UNL     1      -0.914  17.665  17.977  0.00  0.00    +0.000 N 
ATOM     28  H   UNL     1      -1.637  17.668  18.689  0.00  0.00    +0.000 HD
ATOM     29  H   UNL     1      -1.282  17.428  17.060  0.00  0.00    +0.000 HD
ENDBRANCH  25  27
ENDBRANCH  18  21
ENDBRANCH   1  16
TORSDOF 6
ENDMDL
MODEL 9
REMARK VINA RESULT:      -7.9      4.289      9.668
REMARK  Name = 
REMARK  7 active torsions:
REMARK  status: ('A' for Active; 'I' for Inactive)
REMARK    1  A    between atoms: C_1  and  O_2
REMARK    2  A    between atoms: O_2  and  C_3
REMARK    3  A    between atoms: C_6  and  C_7
REMARK    4  A    between atoms: C_10  and  C_11
REMARK    5  A    between atoms: C_11  and  N_12
REMARK    6  A    between atoms: C_14  and  C_15
REMARK    7  A    between atoms: C_19  and  N_20
REMARK                            x       y       z     vdW  Elec       q    Type
REMARK                         _______ _______ _______ _____ _____    ______ ____
ROOT
ATOM      1  C   UNL     1       1.039   8.882  20.906  0.00  0.00    +0.000 C 
ENDROOT
BRANCH   1   5
ATOM      2  C   UNL     1       3.414   6.586  18.074  0.00  0.00    +0.000 A 
ATOM      3  C   UNL     1       3.054   6.059  19.327  0.00  0.00    +0.000 A 
ATOM      4  C   UNL     1       2.277   6.790  20.228  0.00  0.00    +0.000 A 
ATOM      5  C   UNL     1       1.832   8.075  19.904  0.00  0.00    +0.000 A 
ATOM      6  C   UNL     1       2.189   8.618  18.666  0.00  0.00    +0.000 A 
ATOM      7  C   UNL     1       2.961   7.880  17.765  0.00  0.00    +0.000 A 
BRANCH   2  11
ATOM      8  C   UNL     1       5.753   4.295  15.379  0.00  0.00    +0.000 A 
ATOM      9  C   UNL     1       5.778   5.672  15.237  0.00  0.00    +0.000 A 
ATOM     10  C   UNL     1       5.016   6.436  16.122  0.00  0.00    +0.000 A 
ATOM     11  C   UNL     1       4.259   5.823  17.133  0.00  0.00    +0.000 A 
ATOM     12  C   UNL     1       4.343   4.429  17.184  0.00  0.00    +0.000 A 
ATOM     13  N   UNL     1       5.068   3.657  16.346  0.00  0.00    +0.000 NA
BRANCH   8  15
ATOM     14  C   UNL     1       5.957   3.723  13.148  0.00  0.00    +0.000 C 
ATOM     15  O   UNL     1       6.473   3.556  14.466  0.00  0.00    +0.000 OA
ENDBRANCH   8  15
ENDBRANCH   2  11
ENDBRANCH   1   5
BRANCH   1  16
ATOM     16  N   UNL     1       0.156   9.813  20.232  0.00  0.00    +0.000 N 
ATOM     17  C   UNL     1      -0.995   9.527  19.557  0.00  0.00    +0.000 A 
ATOM     18  C   UNL     1      -1.324  10.717  18.954  0.00  0.00    +0.000 A 
ATOM     19  N   UNL     1      -0.450  11.690  19.370  0.00  0.00    +0.000 NA
ATOM     20  N   UNL     1       0.455  11.121  20.159  0.00  0.00    +0.000 NA
BRANCH  18  21
ATOM     21  C   UNL     1      -2.391  10.925  17.998  0.00  0.00    +0.000 A 
ATOM     22  C   UNL     1      -3.578  11.570  18.372  0.00  0.00    +0.000 A 
ATOM     23  C   UNL     1      -4.600  11.758  17.443  0.00  0.00    +0.000 A 
ATOM     24  C   UNL     1      -4.449  11.283  16.140  0.00  0.00    +0.000 A 
ATOM     25  C   UNL     1      -3.299  10.584  15.762  0.00  0.00    +0.000 A 
ATOM     26  C   UNL     1      -2.258  10.453  16.684  0.00  0.00    +0.000 A 
BRANCH  25  27
ATOM     27  N   UNL     1      -3.103  10.229  14.420  0.00  0.00    +0.000 N 
ATOM     28  H   UNL     1      -2.756  10.988  13.844  0.00  0.00    +0.000 HD
ATOM     29  H   UNL     1      -3.906   9.767  14.004  0.00  0.00    +0.000 HD
ENDBRANCH  25  27
ENDBRANCH  18  21
ENDBRANCH   1  16
TORSDOF 6
ENDMDL
