MODEL 1
REMARK VINA RESULT:      -8.7      0.000      0.000
REMARK  Name = 
REMARK  6 active torsions:
REMARK  status: ('A' for Active; 'I' for Inactive)
REMARK    1  A    between atoms: C_1  and  S_2
REMARK    2  A    between atoms: S_2  and  C_5
REMARK    3  A    between atoms: C_9  and  O_10
REMARK    4  A    between atoms: O_10  and  C_11
REMARK    5  A    between atoms: C_15  and  N_16
REMARK    6  A    between atoms: C_21  and  C_22
REMARK                            x       y       z     vdW  Elec       q    Type
REMARK                         _______ _______ _______ _____ _____    ______ ____
ROOT
ATOM      1  C   UNL     1      -0.454  11.129  20.787  0.00  0.00    +0.000 A 
ATOM      2  C   UNL     1      -1.002  11.350  22.045  0.00  0.00    +0.000 A 
ATOM      3  C   UNL     1      -0.677  10.486  23.099  0.00  0.00    +0.000 A 
ATOM      4  C   UNL     1       0.149   9.377  22.877  0.00  0.00    +0.000 A 
ATOM      5  C   UNL     1       0.695   9.135  21.612  0.00  0.00    +0.000 A 
ATOM      6  C   UNL     1       0.468  10.094  20.619  0.00  0.00    +0.000 A 
ENDROOT
BRANCH   5   7
ATOM      7  N   UNL     1       1.411   7.953  21.361  0.00  0.00    +0.000 N 
ATOM      8  C   UNL     1       1.944   7.475  20.158  0.00  0.00    +0.000 A 
ATOM      9  N   UNL     1       2.091   8.282  19.096  0.00  0.00    +0.000 NA
ATOM     10  C   UNL     1       2.600   7.780  17.965  0.00  0.00    +0.000 A 
ATOM     11  C   UNL     1       2.966   6.471  17.842  0.00  0.00    +0.000 A 
ATOM     12  C   UNL     1       2.769   5.695  18.963  0.00  0.00    +0.000 A 
ATOM     13  N   UNL     1       2.264   6.179  20.124  0.00  0.00    +0.000 NA
ATOM     14  H   UNL     1       1.253   7.177  21.987  0.00  0.00    +0.000 HD
BRANCH  12  15
ATOM     15  C   UNL     1       3.115   4.263  18.932  0.00  0.00    +0.000 A 
ATOM     16  N   UNL     1       3.329   3.520  20.006  0.00  0.00    +0.000 NA
ATOM     17  C   UNL     1       3.622   2.223  19.636  0.00  0.00    +0.000 A 
ATOM     18  C   UNL     1       3.647   1.982  18.281  0.00  0.00    +0.000 A 
ATOM     19  S   UNL     1       3.286   3.422  17.432  0.00  0.00    +0.000 S 
ENDBRANCH  12  15
ENDBRANCH   5   7
BRANCH   1  20
ATOM     20  O   UNL     1      -0.843  11.942  19.735  0.00  0.00    +0.000 OA
BRANCH  20  25
ATOM     21  C   UNL     1      -4.108  11.536  18.106  0.00  0.00    +0.000 A 
ATOM     22  C   UNL     1      -3.818  10.638  17.074  0.00  0.00    +0.000 A 
ATOM     23  C   UNL     1      -2.536  10.113  16.969  0.00  0.00    +0.000 A 
ATOM     24  C   UNL     1      -1.555  10.488  17.886  0.00  0.00    +0.000 A 
ATOM     25  C   UNL     1      -1.810  11.468  18.859  0.00  0.00    +0.000 A 
ATOM     26  C   UNL     1      -3.105  11.981  18.982  0.00  0.00    +0.000 A 
BRANCH  21  28
ATOM     27  C   UNL     1      -6.696  10.657  18.658  0.00  0.00    +0.000 C 
ATOM     28  S   UNL     1      -5.777  12.125  18.260  0.00  0.00    +0.000 S 
ATOM     29  O   UNL     1      -6.206  12.579  16.954  0.00  0.00    +0.000 OA
ATOM     30  O   UNL     1      -5.826  13.014  19.407  0.00  0.00    +0.000 OA
ENDBRANCH  21  28
ENDBRANCH  20  25
ENDBRANCH   1  20
TORSDOF 5
ENDMDL
MODEL 2
REMARK VINA RESULT:      -8.6      5.178      9.561
REMARK  Name = 
REMARK  6 active torsions:
REMARK  status: ('A' for Active; 'I' for Inactive)
REMARK    1  A    between atoms: C_1  and  S_2
REMARK    2  A    between atoms: S_2  and  C_5
REMARK    3  A    between atoms: C_9  and  O_10
REMARK    4  A    between atoms: O_10  and  C_11
REMARK    5  A    between atoms: C_15  and  N_16
REMARK    6  A    between atoms: C_21  and  C_22
REMARK                            x       y       z     vdW  Elec       q    Type
REMARK                         _______ _______ _______ _____ _____    ______ ____
ROOT
ATOM      1  C   UNL     1       4.157   3.974  19.865  0.00  0.00    +0.000 A 
ATOM      2  C   UNL     1       3.372   2.829  19.927  0.00  0.00    +0.000 A 
ATOM      3  C   UNL     1       1.986   2.951  20.091  0.00  0.00    +0.000 A 
ATOM      4  C   UNL     1       1.400   4.213  20.246  0.00  0.00    +0.000 A 
ATOM      5  C   UNL     1       2.180   5.374  20.201  0.00  0.00    +0.000 A 
ATOM      6  C   UNL     1       3.537   5.225  19.893  0.00  0.00    +0.000 A 
ENDROOT
BRANCH   5   7
ATOM      7  N   UNL     1       1.612   6.624  20.490  0.00  0.00    +0.000 N 
ATOM      8  C   UNL     1       1.605   7.796  19.725  0.00  0.00    +0.000 A 
ATOM      9  N   UNL     1       1.912   7.772  18.419  0.00  0.00    +0.000 NA
ATOM     10  C   UNL     1       1.899   8.918  17.728  0.00  0.00    +0.000 A 
ATOM     11  C   UNL     1       1.596  10.119  18.302  0.00  0.00    +0.000 A 
ATOM     12  C   UNL     1       1.311  10.073  19.650  0.00  0.00    +0.000 A 
ATOM     13  N   UNL     1       1.308   8.927  20.371  0.00  0.00    +0.000 NA
ATOM     14  H   UNL     1       1.492   6.862  21.464  0.00  0.00    +0.000 HD
BRANCH  12  15
ATOM     15  C   UNL     1       0.988  11.316  20.371  0.00  0.00    +0.000 A 
ATOM     16  N   UNL     1       1.655  12.452  20.245  0.00  0.00    +0.000 NA
ATOM     17  C   UNL     1       1.094  13.425  21.046  0.00  0.00    +0.000 A 
ATOM     18  C   UNL     1       0.010  13.027  21.795  0.00  0.00    +0.000 A 
ATOM     19  S   UNL     1      -0.331  11.380  21.487  0.00  0.00    +0.000 S 
ENDBRANCH  12  15
ENDBRANCH   5   7
BRANCH   1  20
ATOM     20  O   UNL     1       5.533   3.839  19.781  0.00  0.00    +0.000 OA
BRANCH  20  25
ATOM     21  C   UNL     1       6.693   5.505  16.721  0.00  0.00    +0.000 A 
ATOM     22  C   UNL     1       7.531   6.506  17.225  0.00  0.00    +0.000 A 
ATOM     23  C   UNL     1       7.762   6.576  18.592  0.00  0.00    +0.000 A 
ATOM     24  C   UNL     1       7.156   5.655  19.447  0.00  0.00    +0.000 A 
ATOM     25  C   UNL     1       6.232   4.716  18.961  0.00  0.00    +0.000 A 
ATOM     26  C   UNL     1       6.015   4.627  17.582  0.00  0.00    +0.000 A 
BRANCH  21  28
ATOM     27  C   UNL     1       5.979   3.709  14.711  0.00  0.00    +0.000 C 
ATOM     28  S   UNL     1       6.484   5.395  14.960  0.00  0.00    +0.000 S 
ATOM     29  O   UNL     1       7.786   5.565  14.351  0.00  0.00    +0.000 OA
ATOM     30  O   UNL     1       5.376   6.258  14.594  0.00  0.00    +0.000 OA
ENDBRANCH  21  28
ENDBRANCH  20  25
ENDBRANCH   1  20
TORSDOF 5
ENDMDL
MODEL 3
REMARK VINA RESULT:      -8.6      4.039      6.481
REMARK  Name = 
REMARK  6 active torsions:
REMARK  status: ('A' for Active; 'I' for Inactive)
REMARK    1  A    between atoms: C_1  and  S_2
REMARK    2  A    between atoms: S_2  and  C_5
REMARK    3  A    between atoms: C_9  and  O_10
REMARK    4  A    between atoms: O_10  and  C_11
REMARK    5  A    between atoms: C_15  and  N_16
REMARK    6  A    between atoms: C_21  and  C_22
REMARK                            x       y       z     vdW  Elec       q    Type
REMARK                         _______ _______ _______ _____ _____    ______ ____
ROOT
ATOM      1  C   UNL     1       1.891   4.971  20.426  0.00  0.00    +0.000 A 
ATOM      2  C   UNL     1       1.118   3.888  20.828  0.00  0.00    +0.000 A 
ATOM      3  C   UNL     1       1.251   2.662  20.163  0.00  0.00    +0.000 A 
ATOM      4  C   UNL     1       2.113   2.541  19.066  0.00  0.00    +0.000 A 
ATOM      5  C   UNL     1       2.885   3.628  18.640  0.00  0.00    +0.000 A 
ATOM      6  C   UNL     1       2.836   4.793  19.414  0.00  0.00    +0.000 A 
ENDROOT
BRANCH   5   7
ATOM      7  N   UNL     1       3.645   3.542  17.463  0.00  0.00    +0.000 N 
ATOM      8  C   UNL     1       4.951   3.980  17.214  0.00  0.00    +0.000 A 
ATOM      9  N   UNL     1       5.781   4.291  18.221  0.00  0.00    +0.000 NA
ATOM     10  C   UNL     1       7.019   4.710  17.935  0.00  0.00    +0.000 A 
ATOM     11  C   UNL     1       7.471   4.847  16.655  0.00  0.00    +0.000 A 
ATOM     12  C   UNL     1       6.560   4.531  15.670  0.00  0.00    +0.000 A 
ATOM     13  N   UNL     1       5.304   4.096  15.931  0.00  0.00    +0.000 NA
ATOM     14  H   UNL     1       3.139   3.492  16.590  0.00  0.00    +0.000 HD
BRANCH  12  15
ATOM     15  C   UNL     1       6.941   4.661  14.253  0.00  0.00    +0.000 A 
ATOM     16  N   UNL     1       7.845   5.511  13.794  0.00  0.00    +0.000 NA
ATOM     17  C   UNL     1       7.975   5.376  12.427  0.00  0.00    +0.000 A 
ATOM     18  C   UNL     1       7.160   4.433  11.842  0.00  0.00    +0.000 A 
ATOM     19  S   UNL     1       6.196   3.681  13.038  0.00  0.00    +0.000 S 
ENDBRANCH  12  15
ENDBRANCH   5   7
BRANCH   1  20
ATOM     20  O   UNL     1       1.696   6.197  21.039  0.00  0.00    +0.000 OA
BRANCH  20  25
ATOM     21  C   UNL     1       1.118   9.684  20.044  0.00  0.00    +0.000 A 
ATOM     22  C   UNL     1       1.616   9.709  18.737  0.00  0.00    +0.000 A 
ATOM     23  C   UNL     1       2.082   8.533  18.164  0.00  0.00    +0.000 A 
ATOM     24  C   UNL     1       2.053   7.345  18.895  0.00  0.00    +0.000 A 
ATOM     25  C   UNL     1       1.655   7.334  20.242  0.00  0.00    +0.000 A 
ATOM     26  C   UNL     1       1.163   8.511  20.815  0.00  0.00    +0.000 A 
BRANCH  21  28
ATOM     27  C   UNL     1      -1.178  11.266  20.021  0.00  0.00    +0.000 C 
ATOM     28  S   UNL     1       0.456  11.189  20.717  0.00  0.00    +0.000 S 
ATOM     29  O   UNL     1       1.224  12.289  20.175  0.00  0.00    +0.000 OA
ATOM     30  O   UNL     1       0.327  11.010  22.152  0.00  0.00    +0.000 OA
ENDBRANCH  21  28
ENDBRANCH  20  25
ENDBRANCH   1  20
TORSDOF 5
ENDMDL
MODEL 4
REMARK VINA RESULT:      -8.5      4.590     10.077
REMARK  Name = 
REMARK  6 active torsions:
REMARK  status: ('A' for Active; 'I' for Inactive)
REMARK    1  A    between atoms: C_1  and  S_2
REMARK    2  A    between atoms: S_2  and  C_5
REMARK    3  A    between atoms: C_9  and  O_10
REMARK    4  A    between atoms: O_10  and  C_11
REMARK    5  A    between atoms: C_15  and  N_16
REMARK    6  A    between atoms: C_21  and  C_22
REMARK                            x       y       z     vdW  Elec       q    Type
REMARK                         _______ _______ _______ _____ _____    ______ ____
ROOT
ATOM      1  C   UNL     1       2.191   7.325  19.443  0.00  0.00    +0.000 A 
ATOM      2  C   UNL     1       2.393   7.804  18.154  0.00  0.00    +0.000 A 
ATOM      3  C   UNL     1       1.950   9.091  17.821  0.00  0.00    +0.000 A 
ATOM      4  C   UNL     1       1.261   9.869  18.760  0.00  0.00    +0.000 A 
ATOM      5  C   UNL     1       1.038   9.391  20.057  0.00  0.00    +0.000 A 
ATOM      6  C   UNL     1       1.617   8.164  20.399  0.00  0.00    +0.000 A 
ENDROOT
BRANCH   5   7
ATOM      7  N   UNL     1       0.233  10.115  20.952  0.00  0.00    +0.000 N 
ATOM      8  C   UNL     1      -0.811  11.008  20.685  0.00  0.00    +0.000 A 
ATOM      9  N   UNL     1      -1.389  11.058  19.475  0.00  0.00    +0.000 NA
ATOM     10  C   UNL     1      -2.380  11.932  19.265  0.00  0.00    +0.000 A 
ATOM     11  C   UNL     1      -2.822  12.788  20.231  0.00  0.00    +0.000 A 
ATOM     12  C   UNL     1      -2.170  12.699  21.442  0.00  0.00    +0.000 A 
ATOM     13  N   UNL     1      -1.171  11.817  21.686  0.00  0.00    +0.000 NA
ATOM     14  H   UNL     1       0.623  10.320  21.860  0.00  0.00    +0.000 HD
BRANCH  12  15
ATOM     15  C   UNL     1      -2.558  13.590  22.549  0.00  0.00    +0.000 A 
ATOM     16  N   UNL     1      -3.796  13.987  22.793  0.00  0.00    +0.000 NA
ATOM     17  C   UNL     1      -3.824  14.806  23.904  0.00  0.00    +0.000 A 
ATOM     18  C   UNL     1      -2.604  15.046  24.496  0.00  0.00    +0.000 A 
ATOM     19  S   UNL     1      -1.375  14.217  23.643  0.00  0.00    +0.000 S 
ENDBRANCH  12  15
ENDBRANCH   5   7
BRANCH   1  20
ATOM     20  O   UNL     1       2.563   6.024  19.739  0.00  0.00    +0.000 OA
BRANCH  20  25
ATOM     21  C   UNL     1       5.626   4.918  18.042  0.00  0.00    +0.000 A 
ATOM     22  C   UNL     1       5.139   3.976  17.129  0.00  0.00    +0.000 A 
ATOM     23  C   UNL     1       3.770   3.764  17.036  0.00  0.00    +0.000 A 
ATOM     24  C   UNL     1       2.898   4.485  17.851  0.00  0.00    +0.000 A 
ATOM     25  C   UNL     1       3.385   5.353  18.842  0.00  0.00    +0.000 A 
ATOM     26  C   UNL     1       4.761   5.588  18.923  0.00  0.00    +0.000 A 
BRANCH  21  28
ATOM     27  C   UNL     1       7.509   6.916  17.553  0.00  0.00    +0.000 C 
ATOM     28  S   UNL     1       7.375   5.224  18.078  0.00  0.00    +0.000 S 
ATOM     29  O   UNL     1       7.989   4.393  17.064  0.00  0.00    +0.000 OA
ATOM     30  O   UNL     1       7.807   5.144  19.462  0.00  0.00    +0.000 OA
ENDBRANCH  21  28
ENDBRANCH  20  25
ENDBRANCH   1  20
TORSDOF 5
ENDMDL
MODEL 5
REMARK VINA RESULT:      -8.5      4.663      9.893
REMARK  Name = 
REMARK  6 active torsions:
REMARK  status: ('A' for Active; 'I' for Inactive)
REMARK    1  A    between atoms: C_1  and  S_2
REMARK    2  A    between atoms: S_2  and  C_5
REMARK    3  A    between atoms: C_9  and  O_10
REMARK    4  A    between atoms: O_10  and  C_11
REMARK    5  A    between atoms: C_15  and  N_16
REMARK    6  A    between atoms: C_21  and  C_22
REMARK                            x       y       z     vdW  Elec       q    Type
REMARK                         _______ _______ _______ _____ _____    ______ ____
ROOT
ATOM      1  C   UNL     1       2.381   7.499  19.242  0.00  0.00    +0.000 A 
ATOM      2  C   UNL     1       2.762   7.971  17.992  0.00  0.00    +0.000 A 
ATOM      3  C   UNL     1       2.224   9.175  17.518  0.00  0.00    +0.000 A 
ATOM      4  C   UNL     1       1.269   9.869  18.270  0.00  0.00    +0.000 A 
ATOM      5  C   UNL     1       0.865   9.396  19.524  0.00  0.00    +0.000 A 
ATOM      6  C   UNL     1       1.526   8.271  20.030  0.00  0.00    +0.000 A 
ENDROOT
BRANCH   5   7
ATOM      7  N   UNL     1      -0.187  10.019  20.214  0.00  0.00    +0.000 N 
ATOM      8  C   UNL     1      -0.219  11.270  20.842  0.00  0.00    +0.000 A 
ATOM      9  N   UNL     1       0.719  12.195  20.593  0.00  0.00    +0.000 NA
ATOM     10  C   UNL     1       0.650  13.375  21.221  0.00  0.00    +0.000 A 
ATOM     11  C   UNL     1      -0.333  13.672  22.120  0.00  0.00    +0.000 A 
ATOM     12  C   UNL     1      -1.251  12.669  22.345  0.00  0.00    +0.000 A 
ATOM     13  N   UNL     1      -1.211  11.470  21.715  0.00  0.00    +0.000 NA
ATOM     14  H   UNL     1      -0.885   9.420  20.628  0.00  0.00    +0.000 HD
BRANCH  12  15
ATOM     15  C   UNL     1      -2.344  12.880  23.309  0.00  0.00    +0.000 A 
ATOM     16  N   UNL     1      -3.262  11.977  23.611  0.00  0.00    +0.000 NA
ATOM     17  C   UNL     1      -4.135  12.482  24.553  0.00  0.00    +0.000 A 
ATOM     18  C   UNL     1      -3.891  13.775  24.957  0.00  0.00    +0.000 A 
ATOM     19  S   UNL     1      -2.520  14.387  24.139  0.00  0.00    +0.000 S 
ENDBRANCH  12  15
ENDBRANCH   5   7
BRANCH   1  20
ATOM     20  O   UNL     1       2.860   6.270  19.667  0.00  0.00    +0.000 OA
BRANCH  20  25
ATOM     21  C   UNL     1       5.308   4.856  17.325  0.00  0.00    +0.000 A 
ATOM     22  C   UNL     1       4.661   3.699  16.878  0.00  0.00    +0.000 A 
ATOM     23  C   UNL     1       3.370   3.431  17.312  0.00  0.00    +0.000 A 
ATOM     24  C   UNL     1       2.734   4.311  18.188  0.00  0.00    +0.000 A 
ATOM     25  C   UNL     1       3.415   5.416  18.723  0.00  0.00    +0.000 A 
ATOM     26  C   UNL     1       4.707   5.703  18.270  0.00  0.00    +0.000 A 
BRANCH  21  28
ATOM     27  C   UNL     1       6.869   4.562  15.033  0.00  0.00    +0.000 C 
ATOM     28  S   UNL     1       6.928   5.210  16.686  0.00  0.00    +0.000 S 
ATOM     29  O   UNL     1       7.880   4.423  17.441  0.00  0.00    +0.000 OA
ATOM     30  O   UNL     1       7.061   6.653  16.601  0.00  0.00    +0.000 OA
ENDBRANCH  21  28
ENDBRANCH  20  25
ENDBRANCH   1  20
TORSDOF 5
ENDMDL
MODEL 6
REMARK VINA RESULT:      -8.4      4.552     10.086
REMARK  Name = 
REMARK  6 active torsions:
REMARK  status: ('A' for Active; 'I' for Inactive)
REMARK    1  A    between atoms: C_1  and  S_2
REMARK    2  A    between atoms: S_2  and  C_5
REMARK    3  A    between atoms: C_9  and  O_10
REMARK    4  A    between atoms: O_10  and  C_11
REMARK    5  A    between atoms: C_15  and  N_16
REMARK    6  A    between atoms: C_21  and  C_22
REMARK                            x       y       z     vdW  Elec       q    Type
REMARK                         _______ _______ _______ _____ _____    ______ ____
ROOT
ATOM      1  C   UNL     1       2.149   7.319  19.559  0.00  0.00    +0.000 A 
ATOM      2  C   UNL     1       2.221   7.745  18.239  0.00  0.00    +0.000 A 
ATOM      3  C   UNL     1       1.713   9.005  17.893  0.00  0.00    +0.000 A 
ATOM      4  C   UNL     1       1.087   9.805  18.857  0.00  0.00    +0.000 A 
ATOM      5  C   UNL     1       0.994   9.380  20.187  0.00  0.00    +0.000 A 
ATOM      6  C   UNL     1       1.637   8.185  20.527  0.00  0.00    +0.000 A 
ENDROOT
BRANCH   5   7
ATOM      7  N   UNL     1       0.251  10.122  21.119  0.00  0.00    +0.000 N 
ATOM      8  C   UNL     1      -0.381  11.361  20.968  0.00  0.00    +0.000 A 
ATOM      9  N   UNL     1      -0.607  11.880  19.752  0.00  0.00    +0.000 NA
ATOM     10  C   UNL     1      -1.210  13.071  19.656  0.00  0.00    +0.000 A 
ATOM     11  C   UNL     1      -1.595  13.790  20.750  0.00  0.00    +0.000 A 
ATOM     12  C   UNL     1      -1.314  13.208  21.967  0.00  0.00    +0.000 A 
ATOM     13  N   UNL     1      -0.714  12.000  22.094  0.00  0.00    +0.000 NA
ATOM     14  H   UNL     1       0.452   9.968  22.096  0.00  0.00    +0.000 HD
BRANCH  12  15
ATOM     15  C   UNL     1      -1.673  13.908  23.213  0.00  0.00    +0.000 A 
ATOM     16  N   UNL     1      -0.843  14.660  23.916  0.00  0.00    +0.000 NA
ATOM     17  C   UNL     1      -1.489  15.179  25.020  0.00  0.00    +0.000 A 
ATOM     18  C   UNL     1      -2.807  14.810  25.165  0.00  0.00    +0.000 A 
ATOM     19  S   UNL     1      -3.264  13.781  23.877  0.00  0.00    +0.000 S 
ENDBRANCH  12  15
ENDBRANCH   5   7
BRANCH   1  20
ATOM     20  O   UNL     1       2.584   6.042  19.875  0.00  0.00    +0.000 OA
BRANCH  20  25
ATOM     21  C   UNL     1       5.629   4.936  18.147  0.00  0.00    +0.000 A 
ATOM     22  C   UNL     1       5.130   4.013  17.221  0.00  0.00    +0.000 A 
ATOM     23  C   UNL     1       3.758   3.815  17.130  0.00  0.00    +0.000 A 
ATOM     24  C   UNL     1       2.896   4.531  17.961  0.00  0.00    +0.000 A 
ATOM     25  C   UNL     1       3.396   5.378  18.964  0.00  0.00    +0.000 A 
ATOM     26  C   UNL     1       4.775   5.599  19.043  0.00  0.00    +0.000 A 
BRANCH  21  28
ATOM     27  C   UNL     1       7.532   6.910  17.639  0.00  0.00    +0.000 C 
ATOM     28  S   UNL     1       7.382   5.224  18.181  0.00  0.00    +0.000 S 
ATOM     29  O   UNL     1       7.987   4.376  17.175  0.00  0.00    +0.000 OA
ATOM     30  O   UNL     1       7.812   5.154  19.566  0.00  0.00    +0.000 OA
ENDBRANCH  21  28
ENDBRANCH  20  25
ENDBRANCH   1  20
TORSDOF 5
ENDMDL
MODEL 7
REMARK VINA RESULT:      -8.3      0.976      1.088
REMARK  Name = 
REMARK  6 active torsions:
REMARK  status: ('A' for Active; 'I' for Inactive)
REMARK    1  A    between atoms: C_1  and  S_2
REMARK    2  A    between atoms: S_2  and  C_5
REMARK    3  A    between atoms: C_9  and  O_10
REMARK    4  A    between atoms: O_10  and  C_11
REMARK    5  A    between atoms: C_15  and  N_16
REMARK    6  A    between atoms: C_21  and  C_22
REMARK                            x       y       z     vdW  Elec       q    Type
REMARK                         _______ _______ _______ _____ _____    ______ ____
ROOT
ATOM      1  C   UNL     1      -0.411  11.236  20.940  0.00  0.00    +0.000 A 
ATOM      2  C   UNL     1      -1.000  11.373  22.191  0.00  0.00    +0.000 A 
ATOM      3  C   UNL     1      -0.726  10.428  23.188  0.00  0.00    +0.000 A 
ATOM      4  C   UNL     1       0.090   9.323  22.913  0.00  0.00    +0.000 A 
ATOM      5  C   UNL     1       0.677   9.166  21.652  0.00  0.00    +0.000 A 
ATOM      6  C   UNL     1       0.500  10.200  20.726  0.00  0.00    +0.000 A 
ENDROOT
BRANCH   5   7
ATOM      7  N   UNL     1       1.383   7.993  21.339  0.00  0.00    +0.000 N 
ATOM      8  C   UNL     1       1.919   7.579  20.114  0.00  0.00    +0.000 A 
ATOM      9  N   UNL     1       2.080   8.443  19.101  0.00  0.00    +0.000 NA
ATOM     10  C   UNL     1       2.592   8.001  17.946  0.00  0.00    +0.000 A 
ATOM     11  C   UNL     1       2.946   6.698  17.750  0.00  0.00    +0.000 A 
ATOM     12  C   UNL     1       2.734   5.861  18.825  0.00  0.00    +0.000 A 
ATOM     13  N   UNL     1       2.227   6.283  20.008  0.00  0.00    +0.000 NA
ATOM     14  H   UNL     1       1.213   7.184  21.918  0.00  0.00    +0.000 HD
BRANCH  12  15
ATOM     15  C   UNL     1       3.066   4.430  18.714  0.00  0.00    +0.000 A 
ATOM     16  N   UNL     1       3.398   3.823  17.586  0.00  0.00    +0.000 NA
ATOM     17  C   UNL     1       3.659   2.489  17.823  0.00  0.00    +0.000 A 
ATOM     18  C   UNL     1       3.511   2.076  19.128  0.00  0.00    +0.000 A 
ATOM     19  S   UNL     1       3.034   3.399  20.101  0.00  0.00    +0.000 S 
ENDBRANCH  12  15
ENDBRANCH   5   7
BRANCH   1  20
ATOM     20  O   UNL     1      -0.749  12.132  19.939  0.00  0.00    +0.000 OA
BRANCH  20  25
ATOM     21  C   UNL     1      -4.242  11.921  18.825  0.00  0.00    +0.000 A 
ATOM     22  C   UNL     1      -4.115  11.370  17.545  0.00  0.00    +0.000 A 
ATOM     23  C   UNL     1      -2.858  11.003  17.084  0.00  0.00    +0.000 A 
ATOM     24  C   UNL     1      -1.738  11.190  17.895  0.00  0.00    +0.000 A 
ATOM     25  C   UNL     1      -1.844  11.839  19.136  0.00  0.00    +0.000 A 
ATOM     26  C   UNL     1      -3.111  12.189  19.614  0.00  0.00    +0.000 A 
BRANCH  21  28
ATOM     27  C   UNL     1      -6.935  11.536  18.215  0.00  0.00    +0.000 C 
ATOM     28  S   UNL     1      -5.873  12.304  19.415  0.00  0.00    +0.000 S 
ATOM     29  O   UNL     1      -6.053  13.737  19.316  0.00  0.00    +0.000 OA
ATOM     30  O   UNL     1      -6.054  11.619  20.682  0.00  0.00    +0.000 OA
ENDBRANCH  21  28
ENDBRANCH  20  25
ENDBRANCH   1  20
TORSDOF 5
ENDMDL
MODEL 8
REMARK VINA RESULT:      -8.3      7.219     10.293
REMARK  Name = 
REMARK  6 active torsions:
REMARK  status: ('A' for Active; 'I' for Inactive)
REMARK    1  A    between atoms: C_1  and  S_2
REMARK    2  A    between atoms: S_2  and  C_5
REMARK    3  A    between atoms: C_9  and  O_10
REMARK    4  A    between atoms: O_10  and  C_11
REMARK    5  A    between atoms: C_15  and  N_16
REMARK    6  A    between atoms: C_21  and  C_22
REMARK                            x       y       z     vdW  Elec       q    Type
REMARK                         _______ _______ _______ _____ _____    ______ ____
ROOT
ATOM      1  C   UNL     1       6.034   6.555  17.484  0.00  0.00    +0.000 A 
ATOM      2  C   UNL     1       6.684   5.631  18.292  0.00  0.00    +0.000 A 
ATOM      3  C   UNL     1       7.870   5.998  18.942  0.00  0.00    +0.000 A 
ATOM      4  C   UNL     1       8.427   7.266  18.735  0.00  0.00    +0.000 A 
ATOM      5  C   UNL     1       7.791   8.200  17.911  0.00  0.00    +0.000 A 
ATOM      6  C   UNL     1       6.538   7.854  17.394  0.00  0.00    +0.000 A 
ENDROOT
BRANCH   5   7
ATOM      7  N   UNL     1       8.418   9.418  17.600  0.00  0.00    +0.000 N 
ATOM      8  C   UNL     1       8.933  10.397  18.458  0.00  0.00    +0.000 A 
ATOM      9  N   UNL     1       9.159  10.133  19.754  0.00  0.00    +0.000 NA
ATOM     10  C   UNL     1       9.647  11.101  20.538  0.00  0.00    +0.000 A 
ATOM     11  C   UNL     1       9.914  12.356  20.075  0.00  0.00    +0.000 A 
ATOM     12  C   UNL     1       9.638  12.565  18.741  0.00  0.00    +0.000 A 
ATOM     13  N   UNL     1       9.153  11.600  17.922  0.00  0.00    +0.000 NA
ATOM     14  H   UNL     1       8.190   9.840  16.712  0.00  0.00    +0.000 HD
BRANCH  12  15
ATOM     15  C   UNL     1       9.874  13.890  18.143  0.00  0.00    +0.000 A 
ATOM     16  N   UNL     1      10.965  14.228  17.476  0.00  0.00    +0.000 NA
ATOM     17  C   UNL     1      10.871  15.534  17.039  0.00  0.00    +0.000 A 
ATOM     18  C   UNL     1       9.715  16.195  17.386  0.00  0.00    +0.000 A 
ATOM     19  S   UNL     1       8.702  15.153  18.287  0.00  0.00    +0.000 S 
ENDBRANCH  12  15
ENDBRANCH   5   7
BRANCH   1  20
ATOM     20  O   UNL     1       4.905   6.157  16.786  0.00  0.00    +0.000 OA
BRANCH  20  25
ATOM     21  C   UNL     1       2.586   4.278  18.924  0.00  0.00    +0.000 A 
ATOM     22  C   UNL     1       2.561   3.023  18.309  0.00  0.00    +0.000 A 
ATOM     23  C   UNL     1       3.381   2.786  17.213  0.00  0.00    +0.000 A 
ATOM     24  C   UNL     1       4.214   3.799  16.737  0.00  0.00    +0.000 A 
ATOM     25  C   UNL     1       4.165   5.092  17.283  0.00  0.00    +0.000 A 
ATOM     26  C   UNL     1       3.358   5.327  18.401  0.00  0.00    +0.000 A 
BRANCH  21  28
ATOM     27  C   UNL     1       2.430   3.577  21.619  0.00  0.00    +0.000 C 
ATOM     28  S   UNL     1       1.586   4.521  20.372  0.00  0.00    +0.000 S 
ATOM     29  O   UNL     1       0.302   3.895  20.132  0.00  0.00    +0.000 OA
ATOM     30  O   UNL     1       1.670   5.925  20.735  0.00  0.00    +0.000 OA
ENDBRANCH  21  28
ENDBRANCH  20  25
ENDBRANCH   1  20
TORSDOF 5
ENDMDL
MODEL 9
REMARK VINA RESULT:      -8.2      4.369      9.965
REMARK  Name = 
REMARK  6 active torsions:
REMARK  status: ('A' for Active; 'I' for Inactive)
REMARK    1  A    between atoms: C_1  and  S_2
REMARK    2  A    between atoms: S_2  and  C_5
REMARK    3  A    between atoms: C_9  and  O_10
REMARK    4  A    between atoms: O_10  and  C_11
REMARK    5  A    between atoms: C_15  and  N_16
REMARK    6  A    between atoms: C_21  and  C_22
REMARK                            x       y       z     vdW  Elec       q    Type
REMARK                         _______ _______ _______ _____ _____    ______ ____
ROOT
ATOM      1  C   UNL     1       2.267   7.390  19.387  0.00  0.00    +0.000 A 
ATOM      2  C   UNL     1       2.230   7.816  18.065  0.00  0.00    +0.000 A 
ATOM      3  C   UNL     1       1.691   9.073  17.762  0.00  0.00    +0.000 A 
ATOM      4  C   UNL     1       1.143   9.872  18.773  0.00  0.00    +0.000 A 
ATOM      5  C   UNL     1       1.160   9.448  20.106  0.00  0.00    +0.000 A 
ATOM      6  C   UNL     1       1.833   8.255  20.393  0.00  0.00    +0.000 A 
ENDROOT
BRANCH   5   7
ATOM      7  N   UNL     1       0.493  10.187  21.096  0.00  0.00    +0.000 N 
ATOM      8  C   UNL     1      -0.544  11.118  20.963  0.00  0.00    +0.000 A 
ATOM      9  N   UNL     1      -1.259  11.201  19.831  0.00  0.00    +0.000 NA
ATOM     10  C   UNL     1      -2.237  12.110  19.746  0.00  0.00    +0.000 A 
ATOM     11  C   UNL     1      -2.532  12.970  20.764  0.00  0.00    +0.000 A 
ATOM     12  C   UNL     1      -1.744  12.845  21.888  0.00  0.00    +0.000 A 
ATOM     13  N   UNL     1      -0.754  11.927  22.005  0.00  0.00    +0.000 NA
ATOM     14  H   UNL     1       0.995  10.369  21.953  0.00  0.00    +0.000 HD
BRANCH  12  15
ATOM     15  C   UNL     1      -1.967  13.736  23.040  0.00  0.00    +0.000 A 
ATOM     16  N   UNL     1      -1.004  14.238  23.796  0.00  0.00    +0.000 NA
ATOM     17  C   UNL     1      -1.543  15.040  24.782  0.00  0.00    +0.000 A 
ATOM     18  C   UNL     1      -2.916  15.135  24.787  0.00  0.00    +0.000 A 
ATOM     19  S   UNL     1      -3.564  14.197  23.513  0.00  0.00    +0.000 S 
ENDBRANCH  12  15
ENDBRANCH   5   7
BRANCH   1  20
ATOM     20  O   UNL     1       2.731   6.115  19.667  0.00  0.00    +0.000 OA
BRANCH  20  25
ATOM     21  C   UNL     1       5.243   4.978  17.243  0.00  0.00    +0.000 A 
ATOM     22  C   UNL     1       4.598   3.902  16.625  0.00  0.00    +0.000 A 
ATOM     23  C   UNL     1       3.288   3.603  16.975  0.00  0.00    +0.000 A 
ATOM     24  C   UNL     1       2.633   4.371  17.938  0.00  0.00    +0.000 A 
ATOM     25  C   UNL     1       3.309   5.384  18.637  0.00  0.00    +0.000 A 
ATOM     26  C   UNL     1       4.620   5.704  18.271  0.00  0.00    +0.000 A 
BRANCH  21  28
ATOM     27  C   UNL     1       6.927   4.831  15.025  0.00  0.00    +0.000 C 
ATOM     28  S   UNL     1       6.890   5.384  16.713  0.00  0.00    +0.000 S 
ATOM     29  O   UNL     1       7.811   4.564  17.471  0.00  0.00    +0.000 OA
ATOM     30  O   UNL     1       7.009   6.831  16.718  0.00  0.00    +0.000 OA
ENDBRANCH  21  28
ENDBRANCH  20  25
ENDBRANCH   1  20
TORSDOF 5
ENDMDL
