MODEL 1
REMARK VINA RESULT:      -7.3      0.000      0.000
REMARK  Name = 
REMARK  9 active torsions:
REMARK  status: ('A' for Active; 'I' for Inactive)
REMARK    1  A    between atoms: C_1  and  C_2
REMARK    2  A    between atoms: C_2  and  O_3
REMARK    3  A    between atoms: C_2  and  C_4
REMARK    4  A    between atoms: C_8  and  C_9
REMARK    5  A    between atoms: C_9  and  O_11
REMARK    6  A    between atoms: C_12  and  C_13
REMARK    7  A    between atoms: C_13  and  O_14
REMARK    8  A    between atoms: O_14  and  C_15
REMARK    9  A    between atoms: C_15  and  C_17
REMARK                            x       y       z     vdW  Elec       q    Type
REMARK                         _______ _______ _______ _____ _____    ______ ____
ROOT
ATOM      1  C   UNL     1       2.495   3.188  19.158  0.00  0.00    +0.000 C 
ATOM      2  C   UNL     1       1.968   4.458  18.479  0.00  0.00    +0.000 C 
ATOM      3  O   UNL     1       1.210   4.708  17.572  0.00  0.00    +0.000 OA
ATOM      4  N   UNL     1       2.798   5.275  19.204  0.00  0.00    +0.000 N 
ATOM      5  C   UNL     1       3.661   6.113  18.506  0.00  0.00    +0.000 C 
ATOM      6  C   UNL     1       4.937   5.698  18.393  0.00  0.00    +0.000 C 
ATOM      7  S   UNL     1       5.193   4.124  19.125  0.00  0.00    +0.000 S 
ATOM      8  C   UNL     1       3.507   4.132  19.840  0.00  0.00    +0.000 C 
ENDROOT
BRANCH   1  10
ATOM      9  C   UNL     1       1.892   2.645  21.540  0.00  0.00    +0.000 C 
ATOM     10  C   UNL     1       1.502   2.495  20.075  0.00  0.00    +0.000 C 
BRANCH  10  11
ATOM     11  O   UNL     1       0.216   3.071  19.861  0.00  0.00    +0.000 OA
ATOM     12  H   UNL     1      -0.119   2.777  18.995  0.00  0.00    +0.000 HD
ENDBRANCH  10  11
ENDBRANCH   1  10
BRANCH   5  13
ATOM     13  C   UNL     1       3.132   7.377  17.915  0.00  0.00    +0.000 C 
ATOM     14  O   UNL     1       3.399   7.784  16.797  0.00  0.00    +0.000 OA
BRANCH  13  15
ATOM     15  O   UNL     1       2.310   8.043  18.757  0.00  0.00    +0.000 OA
ATOM     16  H   UNL     1       2.435   9.010  18.725  0.00  0.00    +0.000 HD
ENDBRANCH  13  15
ENDBRANCH   5  13
BRANCH   6  17
ATOM     17  C   UNL     1       6.103   6.414  17.759  0.00  0.00    +0.000 C 
BRANCH  17  18
ATOM     18  O   UNL     1       6.218   6.090  16.361  0.00  0.00    +0.000 OA
BRANCH  18  19
ATOM     19  C   UNL     1       7.128   5.134  16.050  0.00  0.00    +0.000 C 
ATOM     20  O   UNL     1       7.871   4.562  16.835  0.00  0.00    +0.000 OA
BRANCH  19  21
ATOM     21  C   UNL     1       7.085   4.821  14.603  0.00  0.00    +0.000 A 
ATOM     22  C   UNL     1       6.200   3.848  14.163  0.00  0.00    +0.000 A 
ATOM     23  N   UNL     1       6.085   3.508  12.853  0.00  0.00    +0.000 NA
ATOM     24  C   UNL     1       6.900   4.182  12.010  0.00  0.00    +0.000 A 
ATOM     25  C   UNL     1       7.788   5.152  12.447  0.00  0.00    +0.000 A 
ATOM     26  N   UNL     1       7.902   5.498  13.750  0.00  0.00    +0.000 NA
ENDBRANCH  19  21
ENDBRANCH  18  19
ENDBRANCH  17  18
ENDBRANCH   6  17
TORSDOF 8
ENDMDL
MODEL 2
REMARK VINA RESULT:      -6.9      3.599      6.912
REMARK  Name = 
REMARK  9 active torsions:
REMARK  status: ('A' for Active; 'I' for Inactive)
REMARK    1  A    between atoms: C_1  and  C_2
REMARK    2  A    between atoms: C_2  and  O_3
REMARK    3  A    between atoms: C_2  and  C_4
REMARK    4  A    between atoms: C_8  and  C_9
REMARK    5  A    between atoms: C_9  and  O_11
REMARK    6  A    between atoms: C_12  and  C_13
REMARK    7  A    between atoms: C_13  and  O_14
REMARK    8  A    between atoms: O_14  and  C_15
REMARK    9  A    between atoms: C_15  and  C_17
REMARK                            x       y       z     vdW  Elec       q    Type
REMARK                         _______ _______ _______ _____ _____    ______ ____
ROOT
ATOM      1  C   UNL     1       3.929   3.691  19.612  0.00  0.00    +0.000 C 
ATOM      2  C   UNL     1       5.056   4.329  18.790  0.00  0.00    +0.000 C 
ATOM      3  O   UNL     1       6.237   4.535  18.947  0.00  0.00    +0.000 OA
ATOM      4  N   UNL     1       4.199   4.739  17.801  0.00  0.00    +0.000 N 
ATOM      5  C   UNL     1       4.165   6.094  17.488  0.00  0.00    +0.000 C 
ATOM      6  C   UNL     1       3.150   6.805  18.016  0.00  0.00    +0.000 C 
ATOM      7  S   UNL     1       2.122   5.830  19.052  0.00  0.00    +0.000 S 
ATOM      8  C   UNL     1       2.990   4.298  18.548  0.00  0.00    +0.000 C 
ENDROOT
BRANCH   1  10
ATOM      9  C   UNL     1       3.498   1.539  18.378  0.00  0.00    +0.000 C 
ATOM     10  C   UNL     1       3.970   2.174  19.681  0.00  0.00    +0.000 C 
BRANCH  10  11
ATOM     11  O   UNL     1       5.311   1.773  19.951  0.00  0.00    +0.000 OA
ATOM     12  H   UNL     1       5.471   0.909  19.529  0.00  0.00    +0.000 HD
ENDBRANCH  10  11
ENDBRANCH   1  10
BRANCH   5  13
ATOM     13  C   UNL     1       5.239   6.672  16.629  0.00  0.00    +0.000 C 
ATOM     14  O   UNL     1       5.208   6.708  15.411  0.00  0.00    +0.000 OA
BRANCH  13  15
ATOM     15  O   UNL     1       6.272   7.167  17.348  0.00  0.00    +0.000 OA
ATOM     16  H   UNL     1       6.695   7.938  16.925  0.00  0.00    +0.000 HD
ENDBRANCH  13  15
ENDBRANCH   5  13
BRANCH   6  17
ATOM     17  C   UNL     1       2.815   8.260  17.805  0.00  0.00    +0.000 C 
BRANCH  17  18
ATOM     18  O   UNL     1       1.971   8.761  18.858  0.00  0.00    +0.000 OA
BRANCH  18  19
ATOM     19  C   UNL     1       1.064   9.699  18.491  0.00  0.00    +0.000 C 
ATOM     20  O   UNL     1       0.133   9.538  17.713  0.00  0.00    +0.000 OA
BRANCH  19  21
ATOM     21  C   UNL     1       1.315  10.976  19.198  0.00  0.00    +0.000 A 
ATOM     22  C   UNL     1       0.885  11.099  20.512  0.00  0.00    +0.000 A 
ATOM     23  N   UNL     1       1.085  12.228  21.239  0.00  0.00    +0.000 NA
ATOM     24  C   UNL     1       1.728  13.225  20.590  0.00  0.00    +0.000 A 
ATOM     25  C   UNL     1       2.155  13.106  19.277  0.00  0.00    +0.000 A 
ATOM     26  N   UNL     1       1.962  11.982  18.549  0.00  0.00    +0.000 NA
ENDBRANCH  19  21
ENDBRANCH  18  19
ENDBRANCH  17  18
ENDBRANCH   6  17
TORSDOF 8
ENDMDL
MODEL 3
REMARK VINA RESULT:      -6.9      3.469      7.215
REMARK  Name = 
REMARK  9 active torsions:
REMARK  status: ('A' for Active; 'I' for Inactive)
REMARK    1  A    between atoms: C_1  and  C_2
REMARK    2  A    between atoms: C_2  and  O_3
REMARK    3  A    between atoms: C_2  and  C_4
REMARK    4  A    between atoms: C_8  and  C_9
REMARK    5  A    between atoms: C_9  and  O_11
REMARK    6  A    between atoms: C_12  and  C_13
REMARK    7  A    between atoms: C_13  and  O_14
REMARK    8  A    between atoms: O_14  and  C_15
REMARK    9  A    between atoms: C_15  and  C_17
REMARK                            x       y       z     vdW  Elec       q    Type
REMARK                         _______ _______ _______ _____ _____    ______ ____
ROOT
ATOM      1  C   UNL     1       3.891   3.631  19.617  0.00  0.00    +0.000 C 
ATOM      2  C   UNL     1       5.011   4.296  18.808  0.00  0.00    +0.000 C 
ATOM      3  O   UNL     1       6.187   4.523  18.975  0.00  0.00    +0.000 OA
ATOM      4  N   UNL     1       4.155   4.693  17.814  0.00  0.00    +0.000 N 
ATOM      5  C   UNL     1       4.097   6.048  17.506  0.00  0.00    +0.000 C 
ATOM      6  C   UNL     1       3.064   6.737  18.029  0.00  0.00    +0.000 C 
ATOM      7  S   UNL     1       2.047   5.738  19.052  0.00  0.00    +0.000 S 
ATOM      8  C   UNL     1       2.949   4.225  18.549  0.00  0.00    +0.000 C 
ENDROOT
BRANCH   1  10
ATOM      9  C   UNL     1       3.526   1.478  18.365  0.00  0.00    +0.000 C 
ATOM     10  C   UNL     1       3.960   2.115  19.679  0.00  0.00    +0.000 C 
BRANCH  10  11
ATOM     11  O   UNL     1       5.304   1.739  19.973  0.00  0.00    +0.000 OA
ATOM     12  H   UNL     1       5.320   0.796  20.216  0.00  0.00    +0.000 HD
ENDBRANCH  10  11
ENDBRANCH   1  10
BRANCH   5  13
ATOM     13  C   UNL     1       5.166   6.652  16.659  0.00  0.00    +0.000 C 
ATOM     14  O   UNL     1       5.133   6.715  15.442  0.00  0.00    +0.000 OA
BRANCH  13  15
ATOM     15  O   UNL     1       6.198   7.135  17.387  0.00  0.00    +0.000 OA
ATOM     16  H   UNL     1       6.921   7.489  16.834  0.00  0.00    +0.000 HD
ENDBRANCH  13  15
ENDBRANCH   5  13
BRANCH   6  17
ATOM     17  C   UNL     1       2.702   8.186  17.822  0.00  0.00    +0.000 C 
BRANCH  17  18
ATOM     18  O   UNL     1       2.246   8.792  19.045  0.00  0.00    +0.000 OA
BRANCH  18  19
ATOM     19  C   UNL     1       1.054   9.436  18.975  0.00  0.00    +0.000 C 
ATOM     20  O   UNL     1       0.445   9.717  17.952  0.00  0.00    +0.000 OA
BRANCH  19  21
ATOM     21  C   UNL     1       0.538   9.732  20.331  0.00  0.00    +0.000 A 
ATOM     22  C   UNL     1      -0.320  10.811  20.490  0.00  0.00    +0.000 A 
ATOM     23  N   UNL     1      -0.851  11.146  21.695  0.00  0.00    +0.000 NA
ATOM     24  C   UNL     1      -0.479  10.356  22.728  0.00  0.00    +0.000 A 
ATOM     25  C   UNL     1       0.381   9.281  22.572  0.00  0.00    +0.000 A 
ATOM     26  N   UNL     1       0.909   8.940  21.374  0.00  0.00    +0.000 NA
ENDBRANCH  19  21
ENDBRANCH  18  19
ENDBRANCH  17  18
ENDBRANCH   6  17
TORSDOF 8
ENDMDL
MODEL 4
REMARK VINA RESULT:      -6.8      3.461      7.199
REMARK  Name = 
REMARK  9 active torsions:
REMARK  status: ('A' for Active; 'I' for Inactive)
REMARK    1  A    between atoms: C_1  and  C_2
REMARK    2  A    between atoms: C_2  and  O_3
REMARK    3  A    between atoms: C_2  and  C_4
REMARK    4  A    between atoms: C_8  and  C_9
REMARK    5  A    between atoms: C_9  and  O_11
REMARK    6  A    between atoms: C_12  and  C_13
REMARK    7  A    between atoms: C_13  and  O_14
REMARK    8  A    between atoms: O_14  and  C_15
REMARK    9  A    between atoms: C_15  and  C_17
REMARK                            x       y       z     vdW  Elec       q    Type
REMARK                         _______ _______ _______ _____ _____    ______ ____
ROOT
ATOM      1  C   UNL     1       3.857   3.548  19.585  0.00  0.00    +0.000 C 
ATOM      2  C   UNL     1       5.020   4.254  18.878  0.00  0.00    +0.000 C 
ATOM      3  O   UNL     1       6.177   4.495  19.134  0.00  0.00    +0.000 OA
ATOM      4  N   UNL     1       4.229   4.670  17.837  0.00  0.00    +0.000 N 
ATOM      5  C   UNL     1       4.169   6.032  17.567  0.00  0.00    +0.000 C 
ATOM      6  C   UNL     1       3.089   6.688  18.036  0.00  0.00    +0.000 C 
ATOM      7  S   UNL     1       2.021   5.642  18.953  0.00  0.00    +0.000 S 
ATOM      8  C   UNL     1       2.982   4.160  18.470  0.00  0.00    +0.000 C 
ENDROOT
BRANCH   1  10
ATOM      9  C   UNL     1       3.571   1.427  18.260  0.00  0.00    +0.000 C 
ATOM     10  C   UNL     1       3.949   2.032  19.606  0.00  0.00    +0.000 C 
BRANCH  10  11
ATOM     11  O   UNL     1       5.288   1.668  19.937  0.00  0.00    +0.000 OA
ATOM     12  H   UNL     1       5.547   2.134  20.752  0.00  0.00    +0.000 HD
ENDBRANCH  10  11
ENDBRANCH   1  10
BRANCH   5  13
ATOM     13  C   UNL     1       5.285   6.679  16.816  0.00  0.00    +0.000 C 
ATOM     14  O   UNL     1       6.230   7.246  17.334  0.00  0.00    +0.000 OA
BRANCH  13  15
ATOM     15  O   UNL     1       5.143   6.569  15.476  0.00  0.00    +0.000 OA
ATOM     16  H   UNL     1       5.490   7.343  14.993  0.00  0.00    +0.000 HD
ENDBRANCH  13  15
ENDBRANCH   5  13
BRANCH   6  17
ATOM     17  C   UNL     1       2.718   8.137  17.847  0.00  0.00    +0.000 C 
BRANCH  17  18
ATOM     18  O   UNL     1       2.210   8.711  19.065  0.00  0.00    +0.000 OA
BRANCH  18  19
ATOM     19  C   UNL     1       1.077   9.446  18.943  0.00  0.00    +0.000 C 
ATOM     20  O   UNL     1       0.540   9.775  17.894  0.00  0.00    +0.000 OA
BRANCH  19  21
ATOM     21  C   UNL     1       0.523   9.780  20.275  0.00  0.00    +0.000 A 
ATOM     22  C   UNL     1       0.874   8.983  21.356  0.00  0.00    +0.000 A 
ATOM     23  N   UNL     1       0.423   9.224  22.614  0.00  0.00    +0.000 NA
ATOM     24  C   UNL     1      -0.396  10.293  22.737  0.00  0.00    +0.000 A 
ATOM     25  C   UNL     1      -0.751  11.088  21.659  0.00  0.00    +0.000 A 
ATOM     26  N   UNL     1      -0.301  10.855  20.405  0.00  0.00    +0.000 NA
ENDBRANCH  19  21
ENDBRANCH  18  19
ENDBRANCH  17  18
ENDBRANCH   6  17
TORSDOF 8
ENDMDL
MODEL 5
REMARK VINA RESULT:      -6.7      3.595      6.779
REMARK  Name = 
REMARK  9 active torsions:
REMARK  status: ('A' for Active; 'I' for Inactive)
REMARK    1  A    between atoms: C_1  and  C_2
REMARK    2  A    between atoms: C_2  and  O_3
REMARK    3  A    between atoms: C_2  and  C_4
REMARK    4  A    between atoms: C_8  and  C_9
REMARK    5  A    between atoms: C_9  and  O_11
REMARK    6  A    between atoms: C_12  and  C_13
REMARK    7  A    between atoms: C_13  and  O_14
REMARK    8  A    between atoms: O_14  and  C_15
REMARK    9  A    between atoms: C_15  and  C_17
REMARK                            x       y       z     vdW  Elec       q    Type
REMARK                         _______ _______ _______ _____ _____    ______ ____
ROOT
ATOM      1  C   UNL     1       3.931   3.693  19.606  0.00  0.00    +0.000 C 
ATOM      2  C   UNL     1       5.060   4.320  18.781  0.00  0.00    +0.000 C 
ATOM      3  O   UNL     1       6.246   4.504  18.928  0.00  0.00    +0.000 OA
ATOM      4  N   UNL     1       4.201   4.753  17.803  0.00  0.00    +0.000 N 
ATOM      5  C   UNL     1       4.187   6.111  17.503  0.00  0.00    +0.000 C 
ATOM      6  C   UNL     1       3.189   6.834  18.046  0.00  0.00    +0.000 C 
ATOM      7  S   UNL     1       2.155   5.867  19.083  0.00  0.00    +0.000 S 
ATOM      8  C   UNL     1       2.992   4.326  18.557  0.00  0.00    +0.000 C 
ENDROOT
BRANCH   1  10
ATOM      9  C   UNL     1       3.488   1.560  18.344  0.00  0.00    +0.000 C 
ATOM     10  C   UNL     1       3.946   2.175  19.661  0.00  0.00    +0.000 C 
BRANCH  10  11
ATOM     11  O   UNL     1       5.276   1.750  19.951  0.00  0.00    +0.000 OA
ATOM     12  H   UNL     1       5.370   0.815  19.693  0.00  0.00    +0.000 HD
ENDBRANCH  10  11
ENDBRANCH   1  10
BRANCH   5  13
ATOM     13  C   UNL     1       5.263   6.680  16.639  0.00  0.00    +0.000 C 
ATOM     14  O   UNL     1       5.222   6.726  15.422  0.00  0.00    +0.000 OA
BRANCH  13  15
ATOM     15  O   UNL     1       6.310   7.152  17.353  0.00  0.00    +0.000 OA
ATOM     16  H   UNL     1       7.173   6.869  16.995  0.00  0.00    +0.000 HD
ENDBRANCH  13  15
ENDBRANCH   5  13
BRANCH   6  17
ATOM     17  C   UNL     1       2.877   8.296  17.852  0.00  0.00    +0.000 C 
BRANCH  17  18
ATOM     18  O   UNL     1       1.485   8.572  18.094  0.00  0.00    +0.000 OA
BRANCH  18  19
ATOM     19  C   UNL     1       1.211   9.284  19.214  0.00  0.00    +0.000 C 
ATOM     20  O   UNL     1       1.391   8.915  20.366  0.00  0.00    +0.000 OA
BRANCH  19  21
ATOM     21  C   UNL     1       0.689  10.626  18.867  0.00  0.00    +0.000 A 
ATOM     22  C   UNL     1      -0.659  10.753  18.566  0.00  0.00    +0.000 A 
ATOM     23  N   UNL     1      -1.224  11.947  18.250  0.00  0.00    +0.000 NA
ATOM     24  C   UNL     1      -0.378  13.002  18.246  0.00  0.00    +0.000 A 
ATOM     25  C   UNL     1       0.970  12.877  18.544  0.00  0.00    +0.000 A 
ATOM     26  N   UNL     1       1.537  11.691  18.863  0.00  0.00    +0.000 NA
ENDBRANCH  19  21
ENDBRANCH  18  19
ENDBRANCH  17  18
ENDBRANCH   6  17
TORSDOF 8
ENDMDL
MODEL 6
REMARK VINA RESULT:      -6.7      3.643      7.614
REMARK  Name = 
REMARK  9 active torsions:
REMARK  status: ('A' for Active; 'I' for Inactive)
REMARK    1  A    between atoms: C_1  and  C_2
REMARK    2  A    between atoms: C_2  and  O_3
REMARK    3  A    between atoms: C_2  and  C_4
REMARK    4  A    between atoms: C_8  and  C_9
REMARK    5  A    between atoms: C_9  and  O_11
REMARK    6  A    between atoms: C_12  and  C_13
REMARK    7  A    between atoms: C_13  and  O_14
REMARK    8  A    between atoms: O_14  and  C_15
REMARK    9  A    between atoms: C_15  and  C_17
REMARK                            x       y       z     vdW  Elec       q    Type
REMARK                         _______ _______ _______ _____ _____    ______ ____
ROOT
ATOM      1  C   UNL     1       3.788   4.448  17.300  0.00  0.00    +0.000 C 
ATOM      2  C   UNL     1       3.059   3.429  18.184  0.00  0.00    +0.000 C 
ATOM      3  O   UNL     1       2.315   2.494  18.000  0.00  0.00    +0.000 OA
ATOM      4  N   UNL     1       3.448   4.049  19.343  0.00  0.00    +0.000 N 
ATOM      5  C   UNL     1       2.457   4.462  20.227  0.00  0.00    +0.000 C 
ATOM      6  C   UNL     1       2.129   5.768  20.190  0.00  0.00    +0.000 C 
ATOM      7  S   UNL     1       3.016   6.643  18.955  0.00  0.00    +0.000 S 
ATOM      8  C   UNL     1       4.078   5.189  18.623  0.00  0.00    +0.000 C 
ENDROOT
BRANCH   1  10
ATOM      9  C   UNL     1       5.407   4.807  15.406  0.00  0.00    +0.000 C 
ATOM     10  C   UNL     1       4.998   3.901  16.561  0.00  0.00    +0.000 C 
BRANCH  10  11
ATOM     11  O   UNL     1       6.077   3.789  17.487  0.00  0.00    +0.000 OA
ATOM     12  H   UNL     1       6.893   4.102  17.057  0.00  0.00    +0.000 HD
ENDBRANCH  10  11
ENDBRANCH   1  10
BRANCH   5  13
ATOM     13  C   UNL     1       1.813   3.458  21.124  0.00  0.00    +0.000 C 
ATOM     14  O   UNL     1       2.272   3.087  22.190  0.00  0.00    +0.000 OA
BRANCH  13  15
ATOM     15  O   UNL     1       0.644   2.991  20.629  0.00  0.00    +0.000 OA
ATOM     16  H   UNL     1       0.190   3.637  20.055  0.00  0.00    +0.000 HD
ENDBRANCH  13  15
ENDBRANCH   5  13
BRANCH   6  17
ATOM     17  C   UNL     1       1.150   6.513  21.062  0.00  0.00    +0.000 C 
BRANCH  17  18
ATOM     18  O   UNL     1       1.329   7.937  20.951  0.00  0.00    +0.000 OA
BRANCH  18  19
ATOM     19  C   UNL     1       0.252   8.694  21.276  0.00  0.00    +0.000 C 
ATOM     20  O   UNL     1      -0.678   8.354  21.995  0.00  0.00    +0.000 OA
BRANCH  19  21
ATOM     21  C   UNL     1       0.358  10.043  20.674  0.00  0.00    +0.000 A 
ATOM     22  C   UNL     1      -0.180  10.247  19.411  0.00  0.00    +0.000 A 
ATOM     23  N   UNL     1      -0.140  11.453  18.790  0.00  0.00    +0.000 NA
ATOM     24  C   UNL     1       0.466  12.441  19.488  0.00  0.00    +0.000 A 
ATOM     25  C   UNL     1       1.007  12.239  20.748  0.00  0.00    +0.000 A 
ATOM     26  N   UNL     1       0.966  11.040  21.373  0.00  0.00    +0.000 NA
ENDBRANCH  19  21
ENDBRANCH  18  19
ENDBRANCH  17  18
ENDBRANCH   6  17
TORSDOF 8
ENDMDL
MODEL 7
REMARK VINA RESULT:      -6.6      4.614      7.718
REMARK  Name = 
REMARK  9 active torsions:
REMARK  status: ('A' for Active; 'I' for Inactive)
REMARK    1  A    between atoms: C_1  and  C_2
REMARK    2  A    between atoms: C_2  and  O_3
REMARK    3  A    between atoms: C_2  and  C_4
REMARK    4  A    between atoms: C_8  and  C_9
REMARK    5  A    between atoms: C_9  and  O_11
REMARK    6  A    between atoms: C_12  and  C_13
REMARK    7  A    between atoms: C_13  and  O_14
REMARK    8  A    between atoms: O_14  and  C_15
REMARK    9  A    between atoms: C_15  and  C_17
REMARK                            x       y       z     vdW  Elec       q    Type
REMARK                         _______ _______ _______ _____ _____    ______ ____
ROOT
ATOM      1  C   UNL     1       0.431  12.197  19.169  0.00  0.00    +0.000 C 
ATOM      2  C   UNL     1       0.414  11.935  20.680  0.00  0.00    +0.000 C 
ATOM      3  O   UNL     1       0.853  12.485  21.663  0.00  0.00    +0.000 OA
ATOM      4  N   UNL     1      -0.194  10.715  20.533  0.00  0.00    +0.000 N 
ATOM      5  C   UNL     1       0.444   9.600  21.064  0.00  0.00    +0.000 C 
ATOM      6  C   UNL     1       1.135   8.836  20.196  0.00  0.00    +0.000 C 
ATOM      7  S   UNL     1       1.110   9.489  18.568  0.00  0.00    +0.000 S 
ATOM      8  C   UNL     1      -0.118  10.760  19.048  0.00  0.00    +0.000 C 
ENDROOT
BRANCH   1  10
ATOM      9  C   UNL     1       0.192  14.668  18.752  0.00  0.00    +0.000 C 
ATOM     10  C   UNL     1      -0.494  13.309  18.703  0.00  0.00    +0.000 C 
BRANCH  10  11
ATOM     11  O   UNL     1      -0.899  13.024  17.366  0.00  0.00    +0.000 OA
ATOM     12  H   UNL     1      -1.541  12.291  17.382  0.00  0.00    +0.000 HD
ENDBRANCH  10  11
ENDBRANCH   1  10
BRANCH   5  13
ATOM     13  C   UNL     1       0.352   9.333  22.530  0.00  0.00    +0.000 C 
ATOM     14  O   UNL     1       1.235   9.575  23.334  0.00  0.00    +0.000 OA
BRANCH  13  15
ATOM     15  O   UNL     1      -0.833   8.787  22.887  0.00  0.00    +0.000 OA
ATOM     16  H   UNL     1      -1.412   9.413  23.361  0.00  0.00    +0.000 HD
ENDBRANCH  13  15
ENDBRANCH   5  13
BRANCH   6  17
ATOM     17  C   UNL     1       1.867   7.544  20.460  0.00  0.00    +0.000 C 
BRANCH  17  18
ATOM     18  O   UNL     1       2.553   7.080  19.283  0.00  0.00    +0.000 OA
BRANCH  18  19
ATOM     19  C   UNL     1       3.235   5.916  19.418  0.00  0.00    +0.000 C 
ATOM     20  O   UNL     1       4.433   5.804  19.639  0.00  0.00    +0.000 OA
BRANCH  19  21
ATOM     21  C   UNL     1       2.321   4.757  19.304  0.00  0.00    +0.000 A 
ATOM     22  C   UNL     1       1.906   4.364  18.039  0.00  0.00    +0.000 A 
ATOM     23  N   UNL     1       1.080   3.304  17.841  0.00  0.00    +0.000 NA
ATOM     24  C   UNL     1       0.687   2.663  18.965  0.00  0.00    +0.000 A 
ATOM     25  C   UNL     1       1.097   3.055  20.229  0.00  0.00    +0.000 A 
ATOM     26  N   UNL     1       1.923   4.107  20.432  0.00  0.00    +0.000 NA
ENDBRANCH  19  21
ENDBRANCH  18  19
ENDBRANCH  17  18
ENDBRANCH   6  17
TORSDOF 8
ENDMDL
MODEL 8
REMARK VINA RESULT:      -6.6      3.622      7.592
REMARK  Name = 
REMARK  9 active torsions:
REMARK  status: ('A' for Active; 'I' for Inactive)
REMARK    1  A    between atoms: C_1  and  C_2
REMARK    2  A    between atoms: C_2  and  O_3
REMARK    3  A    between atoms: C_2  and  C_4
REMARK    4  A    between atoms: C_8  and  C_9
REMARK    5  A    between atoms: C_9  and  O_11
REMARK    6  A    between atoms: C_12  and  C_13
REMARK    7  A    between atoms: C_13  and  O_14
REMARK    8  A    between atoms: O_14  and  C_15
REMARK    9  A    between atoms: C_15  and  C_17
REMARK                            x       y       z     vdW  Elec       q    Type
REMARK                         _______ _______ _______ _____ _____    ______ ____
ROOT
ATOM      1  C   UNL     1       3.855   4.434  17.304  0.00  0.00    +0.000 C 
ATOM      2  C   UNL     1       3.089   3.458  18.204  0.00  0.00    +0.000 C 
ATOM      3  O   UNL     1       2.331   2.531  18.034  0.00  0.00    +0.000 OA
ATOM      4  N   UNL     1       3.467   4.106  19.351  0.00  0.00    +0.000 N 
ATOM      5  C   UNL     1       2.467   4.564  20.201  0.00  0.00    +0.000 C 
ATOM      6  C   UNL     1       2.164   5.874  20.118  0.00  0.00    +0.000 C 
ATOM      7  S   UNL     1       3.093   6.694  18.875  0.00  0.00    +0.000 S 
ATOM      8  C   UNL     1       4.133   5.210  18.609  0.00  0.00    +0.000 C 
ENDROOT
BRANCH   1  10
ATOM      9  C   UNL     1       5.316   4.500  15.256  0.00  0.00    +0.000 C 
ATOM     10  C   UNL     1       5.069   3.843  16.607  0.00  0.00    +0.000 C 
BRANCH  10  11
ATOM     11  O   UNL     1       6.205   4.031  17.447  0.00  0.00    +0.000 OA
ATOM     12  H   UNL     1       6.121   4.889  17.901  0.00  0.00    +0.000 HD
ENDBRANCH  10  11
ENDBRANCH   1  10
BRANCH   5  13
ATOM     13  C   UNL     1       1.785   3.601  21.115  0.00  0.00    +0.000 C 
ATOM     14  O   UNL     1       2.218   3.251  22.200  0.00  0.00    +0.000 OA
BRANCH  13  15
ATOM     15  O   UNL     1       0.615   3.145  20.614  0.00  0.00    +0.000 OA
ATOM     16  H   UNL     1      -0.115   3.182  21.261  0.00  0.00    +0.000 HD
ENDBRANCH  13  15
ENDBRANCH   5  13
BRANCH   6  17
ATOM     17  C   UNL     1       1.184   6.665  20.946  0.00  0.00    +0.000 C 
BRANCH  17  18
ATOM     18  O   UNL     1       1.310   8.077  20.701  0.00  0.00    +0.000 OA
BRANCH  18  19
ATOM     19  C   UNL     1       0.278   8.845  21.131  0.00  0.00    +0.000 C 
ATOM     20  O   UNL     1      -0.470   8.592  22.066  0.00  0.00    +0.000 OA
BRANCH  19  21
ATOM     21  C   UNL     1       0.184  10.090  20.335  0.00  0.00    +0.000 A 
ATOM     22  C   UNL     1       0.982  11.167  20.697  0.00  0.00    +0.000 A 
ATOM     23  N   UNL     1       0.970  12.342  20.015  0.00  0.00    +0.000 NA
ATOM     24  C   UNL     1       0.122  12.388  18.963  0.00  0.00    +0.000 A 
ATOM     25  C   UNL     1      -0.677  11.316  18.601  0.00  0.00    +0.000 A 
ATOM     26  N   UNL     1      -0.666  10.142  19.274  0.00  0.00    +0.000 NA
ENDBRANCH  19  21
ENDBRANCH  18  19
ENDBRANCH  17  18
ENDBRANCH   6  17
TORSDOF 8
ENDMDL
MODEL 9
REMARK VINA RESULT:      -6.6      3.599      6.808
REMARK  Name = 
REMARK  9 active torsions:
REMARK  status: ('A' for Active; 'I' for Inactive)
REMARK    1  A    between atoms: C_1  and  C_2
REMARK    2  A    between atoms: C_2  and  O_3
REMARK    3  A    between atoms: C_2  and  C_4
REMARK    4  A    between atoms: C_8  and  C_9
REMARK    5  A    between atoms: C_9  and  O_11
REMARK    6  A    between atoms: C_12  and  C_13
REMARK    7  A    between atoms: C_13  and  O_14
REMARK    8  A    between atoms: O_14  and  C_15
REMARK    9  A    between atoms: C_15  and  C_17
REMARK                            x       y       z     vdW  Elec       q    Type
REMARK                         _______ _______ _______ _____ _____    ______ ____
ROOT
ATOM      1  C   UNL     1       3.908   3.695  19.572  0.00  0.00    +0.000 C 
ATOM      2  C   UNL     1       5.094   4.350  18.854  0.00  0.00    +0.000 C 
ATOM      3  O   UNL     1       6.259   4.554  19.107  0.00  0.00    +0.000 OA
ATOM      4  N   UNL     1       4.318   4.777  17.807  0.00  0.00    +0.000 N 
ATOM      5  C   UNL     1       4.305   6.136  17.517  0.00  0.00    +0.000 C 
ATOM      6  C   UNL     1       3.249   6.837  17.975  0.00  0.00    +0.000 C 
ATOM      7  S   UNL     1       2.145   5.842  18.908  0.00  0.00    +0.000 S 
ATOM      8  C   UNL     1       3.054   4.321  18.448  0.00  0.00    +0.000 C 
ENDROOT
BRANCH   1  10
ATOM      9  C   UNL     1       3.461   1.564  18.309  0.00  0.00    +0.000 C 
ATOM     10  C   UNL     1       3.947   2.177  19.616  0.00  0.00    +0.000 C 
BRANCH  10  11
ATOM     11  O   UNL     1       5.291   1.770  19.866  0.00  0.00    +0.000 OA
ATOM     12  H   UNL     1       5.723   1.576  19.015  0.00  0.00    +0.000 HD
ENDBRANCH  10  11
ENDBRANCH   1  10
BRANCH   5  13
ATOM     13  C   UNL     1       5.442   6.732  16.756  0.00  0.00    +0.000 C 
ATOM     14  O   UNL     1       6.402   7.283  17.265  0.00  0.00    +0.000 OA
BRANCH  13  15
ATOM     15  O   UNL     1       5.302   6.596  15.418  0.00  0.00    +0.000 OA
ATOM     16  H   UNL     1       6.143   6.709  14.934  0.00  0.00    +0.000 HD
ENDBRANCH  13  15
ENDBRANCH   5  13
BRANCH   6  17
ATOM     17  C   UNL     1       2.928   8.295  17.764  0.00  0.00    +0.000 C 
BRANCH  17  18
ATOM     18  O   UNL     1       1.510   8.533  17.827  0.00  0.00    +0.000 OA
BRANCH  18  19
ATOM     19  C   UNL     1       1.080   9.254  18.892  0.00  0.00    +0.000 C 
ATOM     20  O   UNL     1       1.488   9.157  20.041  0.00  0.00    +0.000 OA
BRANCH  19  21
ATOM     21  C   UNL     1       0.051  10.236  18.479  0.00  0.00    +0.000 A 
ATOM     22  C   UNL     1      -1.001   9.798  17.687  0.00  0.00    +0.000 A 
ATOM     23  N   UNL     1      -1.994  10.627  17.274  0.00  0.00    +0.000 NA
ATOM     24  C   UNL     1      -1.882  11.910  17.686  0.00  0.00    +0.000 A 
ATOM     25  C   UNL     1      -0.831  12.350  18.474  0.00  0.00    +0.000 A 
ATOM     26  N   UNL     1       0.159  11.528  18.892  0.00  0.00    +0.000 NA
ENDBRANCH  19  21
ENDBRANCH  18  19
ENDBRANCH  17  18
ENDBRANCH   6  17
TORSDOF 8
ENDMDL
