MODEL 1
REMARK VINA RESULT:      -7.4      0.000      0.000
REMARK  Name = 
REMARK  10 active torsions:
REMARK  status: ('A' for Active; 'I' for Inactive)
REMARK    1  A    between atoms: C_1  and  C_2
REMARK    2  A    between atoms: C_2  and  N_3
REMARK    3  A    between atoms: N_3  and  C_4
REMARK    4  A    between atoms: N_3  and  C_6
REMARK    5  A    between atoms: C_4  and  C_5
REMARK    6  A    between atoms: C_6  and  C_7
REMARK    7  A    between atoms: C_7  and  N_8
REMARK    8  A    between atoms: C_9  and  C_11
REMARK    9  A    between atoms: C_15  and  C_16
REMARK   10  A    between atoms: C_18  and  C_19
REMARK                            x       y       z     vdW  Elec       q    Type
REMARK                         _______ _______ _______ _____ _____    ______ ____
ROOT
ATOM      1  C   UNL     1       5.522   4.643  16.863  0.00  0.00    +0.000 C 
ATOM      2  C   UNL     1       6.198   4.507  18.251  0.00  0.00    +0.000 C 
ATOM      3  C   UNL     1       5.138   4.557  19.372  0.00  0.00    +0.000 C 
ATOM      4  C   UNL     1       4.365   5.892  19.299  0.00  0.00    +0.000 C 
ATOM      5  C   UNL     1       3.659   6.020  17.924  0.00  0.00    +0.000 C 
ATOM      6  C   UNL     1       2.887   7.346  17.846  0.00  0.00    +0.000 C 
ATOM      7  C   UNL     1       2.677   4.829  17.749  0.00  0.00    +0.000 C 
ATOM      8  C   UNL     1       3.448   3.487  17.826  0.00  0.00    +0.000 C 
ATOM      9  C   UNL     1       2.478   2.307  17.642  0.00  0.00    +0.000 C 
ATOM     10  C   UNL     1       4.157   3.380  19.200  0.00  0.00    +0.000 C 
ATOM     11  C   UNL     1       4.505   3.460  16.696  0.00  0.00    +0.000 C 
ATOM     12  C   UNL     1       4.731   5.972  16.803  0.00  0.00    +0.000 C 
ENDROOT
BRANCH   1  14
ATOM     13  N   UNL     1       6.224   4.668  14.419  0.00  0.00    +0.000 N 
ATOM     14  C   UNL     1       6.577   4.608  15.764  0.00  0.00    +0.000 C 
ATOM     15  O   UNL     1       7.753   4.541  16.059  0.00  0.00    +0.000 OA
ATOM     16  H   UNL     1       5.241   4.740  14.142  0.00  0.00    +0.000 HD
BRANCH  13  17
ATOM     17  C   UNL     1       7.253   4.667  13.413  0.00  0.00    +0.000 C 
BRANCH  17  18
ATOM     18  C   UNL     1       6.809   3.976  12.090  0.00  0.00    +0.000 C 
BRANCH  18  19
ATOM     19  N   UNL     1       5.622   3.102  12.246  0.00  0.00    +0.000 NA
BRANCH  19  21
ATOM     20  C   UNL     1       3.546   3.035  10.752  0.00  0.00    +0.000 C 
ATOM     21  C   UNL     1       4.408   3.811  11.753  0.00  0.00    +0.000 C 
ENDBRANCH  19  21
BRANCH  19  22
ATOM     22  C   UNL     1       5.838   1.771  11.602  0.00  0.00    +0.000 C 
ATOM     23  C   UNL     1       7.211   1.568  10.956  0.00  0.00    +0.000 C 
ENDBRANCH  19  22
ENDBRANCH  18  19
ENDBRANCH  17  18
ENDBRANCH  13  17
ENDBRANCH   1  14
TORSDOF 6
ENDMDL
MODEL 2
REMARK VINA RESULT:      -7.1      3.112      6.403
REMARK  Name = 
REMARK  10 active torsions:
REMARK  status: ('A' for Active; 'I' for Inactive)
REMARK    1  A    between atoms: C_1  and  C_2
REMARK    2  A    between atoms: C_2  and  N_3
REMARK    3  A    between atoms: N_3  and  C_4
REMARK    4  A    between atoms: N_3  and  C_6
REMARK    5  A    between atoms: C_4  and  C_5
REMARK    6  A    between atoms: C_6  and  C_7
REMARK    7  A    between atoms: C_7  and  N_8
REMARK    8  A    between atoms: C_9  and  C_11
REMARK    9  A    between atoms: C_15  and  C_16
REMARK   10  A    between atoms: C_18  and  C_19
REMARK                            x       y       z     vdW  Elec       q    Type
REMARK                         _______ _______ _______ _____ _____    ______ ____
ROOT
ATOM      1  C   UNL     1       5.174   4.415  17.550  0.00  0.00    +0.000 C 
ATOM      2  C   UNL     1       4.062   5.451  17.243  0.00  0.00    +0.000 C 
ATOM      3  C   UNL     1       4.642   6.642  16.451  0.00  0.00    +0.000 C 
ATOM      4  C   UNL     1       5.766   7.314  17.269  0.00  0.00    +0.000 C 
ATOM      5  C   UNL     1       6.898   6.291  17.552  0.00  0.00    +0.000 C 
ATOM      6  C   UNL     1       8.021   6.955  18.365  0.00  0.00    +0.000 C 
ATOM      7  C   UNL     1       7.462   5.777  16.199  0.00  0.00    +0.000 C 
ATOM      8  C   UNL     1       6.336   5.105  15.373  0.00  0.00    +0.000 C 
ATOM      9  C   UNL     1       6.895   4.586  14.037  0.00  0.00    +0.000 C 
ATOM     10  C   UNL     1       5.209   6.136  15.109  0.00  0.00    +0.000 C 
ATOM     11  C   UNL     1       5.769   3.918  16.186  0.00  0.00    +0.000 C 
ATOM     12  C   UNL     1       6.308   5.099  18.351  0.00  0.00    +0.000 C 
ENDROOT
BRANCH   1  14
ATOM     13  N   UNL     1       4.941   3.041  19.677  0.00  0.00    +0.000 N 
ATOM     14  C   UNL     1       4.597   3.250  18.344  0.00  0.00    +0.000 C 
ATOM     15  O   UNL     1       3.807   2.493  17.817  0.00  0.00    +0.000 OA
ATOM     16  H   UNL     1       5.592   3.672  20.151  0.00  0.00    +0.000 HD
BRANCH  13  17
ATOM     17  C   UNL     1       4.345   1.949  20.401  0.00  0.00    +0.000 C 
BRANCH  17  18
ATOM     18  C   UNL     1       3.100   2.379  21.232  0.00  0.00    +0.000 C 
BRANCH  18  19
ATOM     19  N   UNL     1       2.219   3.341  20.527  0.00  0.00    +0.000 NA
BRANCH  19  21
ATOM     20  C   UNL     1       0.551   2.490  18.783  0.00  0.00    +0.000 C 
ATOM     21  C   UNL     1       0.897   2.708  20.260  0.00  0.00    +0.000 C 
ENDBRANCH  19  21
BRANCH  19  22
ATOM     22  C   UNL     1       2.123   4.634  21.269  0.00  0.00    +0.000 C 
ATOM     23  C   UNL     1       1.985   5.884  20.396  0.00  0.00    +0.000 C 
ENDBRANCH  19  22
ENDBRANCH  18  19
ENDBRANCH  17  18
ENDBRANCH  13  17
ENDBRANCH   1  14
TORSDOF 6
ENDMDL
MODEL 3
REMARK VINA RESULT:      -7.0      3.130      6.428
REMARK  Name = 
REMARK  10 active torsions:
REMARK  status: ('A' for Active; 'I' for Inactive)
REMARK    1  A    between atoms: C_1  and  C_2
REMARK    2  A    between atoms: C_2  and  N_3
REMARK    3  A    between atoms: N_3  and  C_4
REMARK    4  A    between atoms: N_3  and  C_6
REMARK    5  A    between atoms: C_4  and  C_5
REMARK    6  A    between atoms: C_6  and  C_7
REMARK    7  A    between atoms: C_7  and  N_8
REMARK    8  A    between atoms: C_9  and  C_11
REMARK    9  A    between atoms: C_15  and  C_16
REMARK   10  A    between atoms: C_18  and  C_19
REMARK                            x       y       z     vdW  Elec       q    Type
REMARK                         _______ _______ _______ _____ _____    ______ ____
ROOT
ATOM      1  C   UNL     1       5.032   4.431  17.649  0.00  0.00    +0.000 C 
ATOM      2  C   UNL     1       3.997   5.539  17.322  0.00  0.00    +0.000 C 
ATOM      3  C   UNL     1       4.664   6.676  16.519  0.00  0.00    +0.000 C 
ATOM      4  C   UNL     1       5.828   7.278  17.335  0.00  0.00    +0.000 C 
ATOM      5  C   UNL     1       6.884   6.182  17.638  0.00  0.00    +0.000 C 
ATOM      6  C   UNL     1       8.046   6.775  18.449  0.00  0.00    +0.000 C 
ATOM      7  C   UNL     1       7.418   5.612  16.295  0.00  0.00    +0.000 C 
ATOM      8  C   UNL     1       6.251   5.010  15.470  0.00  0.00    +0.000 C 
ATOM      9  C   UNL     1       6.780   4.436  14.145  0.00  0.00    +0.000 C 
ATOM     10  C   UNL     1       5.201   6.114  15.187  0.00  0.00    +0.000 C 
ATOM     11  C   UNL     1       5.598   3.876  16.295  0.00  0.00    +0.000 C 
ATOM     12  C   UNL     1       6.207   5.045  18.448  0.00  0.00    +0.000 C 
ENDROOT
BRANCH   1  14
ATOM     13  N   UNL     1       4.345   3.351  19.846  0.00  0.00    +0.000 N 
ATOM     14  C   UNL     1       4.370   3.321  18.454  0.00  0.00    +0.000 C 
ATOM     15  O   UNL     1       3.836   2.394  17.878  0.00  0.00    +0.000 OA
ATOM     16  H   UNL     1       4.773   4.127  20.357  0.00  0.00    +0.000 HD
BRANCH  13  17
ATOM     17  C   UNL     1       3.678   2.300  20.568  0.00  0.00    +0.000 C 
BRANCH  17  18
ATOM     18  C   UNL     1       2.571   2.829  21.526  0.00  0.00    +0.000 C 
BRANCH  18  19
ATOM     19  N   UNL     1       1.225   2.883  20.906  0.00  0.00    +0.000 NA
BRANCH  19  21
ATOM     20  C   UNL     1       1.955   5.336  20.903  0.00  0.00    +0.000 C 
ATOM     21  C   UNL     1       0.907   4.286  20.518  0.00  0.00    +0.000 C 
ENDBRANCH  19  21
BRANCH  19  22
ATOM     22  C   UNL     1       1.107   1.910  19.778  0.00  0.00    +0.000 C 
ATOM     23  C   UNL     1       0.575   2.489  18.464  0.00  0.00    +0.000 C 
ENDBRANCH  19  22
ENDBRANCH  18  19
ENDBRANCH  17  18
ENDBRANCH  13  17
ENDBRANCH   1  14
TORSDOF 6
ENDMDL
MODEL 4
REMARK VINA RESULT:      -6.8      4.697      8.286
REMARK  Name = 
REMARK  10 active torsions:
REMARK  status: ('A' for Active; 'I' for Inactive)
REMARK    1  A    between atoms: C_1  and  C_2
REMARK    2  A    between atoms: C_2  and  N_3
REMARK    3  A    between atoms: N_3  and  C_4
REMARK    4  A    between atoms: N_3  and  C_6
REMARK    5  A    between atoms: C_4  and  C_5
REMARK    6  A    between atoms: C_6  and  C_7
REMARK    7  A    between atoms: C_7  and  N_8
REMARK    8  A    between atoms: C_9  and  C_11
REMARK    9  A    between atoms: C_15  and  C_16
REMARK   10  A    between atoms: C_18  and  C_19
REMARK                            x       y       z     vdW  Elec       q    Type
REMARK                         _______ _______ _______ _____ _____    ______ ____
ROOT
ATOM      1  C   UNL     1       2.613   5.841  19.252  0.00  0.00    +0.000 C 
ATOM      2  C   UNL     1       1.727   5.333  18.085  0.00  0.00    +0.000 C 
ATOM      3  C   UNL     1       2.144   3.903  17.677  0.00  0.00    +0.000 C 
ATOM      4  C   UNL     1       3.626   3.896  17.244  0.00  0.00    +0.000 C 
ATOM      5  C   UNL     1       4.522   4.373  18.418  0.00  0.00    +0.000 C 
ATOM      6  C   UNL     1       5.999   4.366  17.993  0.00  0.00    +0.000 C 
ATOM      7  C   UNL     1       4.319   3.418  19.626  0.00  0.00    +0.000 C 
ATOM      8  C   UNL     1       2.831   3.419  20.062  0.00  0.00    +0.000 C 
ATOM      9  C   UNL     1       2.630   2.482  21.265  0.00  0.00    +0.000 C 
ATOM     10  C   UNL     1       1.949   2.953  18.876  0.00  0.00    +0.000 C 
ATOM     11  C   UNL     1       2.436   4.860  20.463  0.00  0.00    +0.000 C 
ATOM     12  C   UNL     1       4.099   5.810  18.820  0.00  0.00    +0.000 C 
ENDROOT
BRANCH   1  14
ATOM     13  N   UNL     1       1.722   7.550  20.910  0.00  0.00    +0.000 N 
ATOM     14  C   UNL     1       2.206   7.257  19.638  0.00  0.00    +0.000 C 
ATOM     15  O   UNL     1       2.316   8.157  18.830  0.00  0.00    +0.000 OA
ATOM     16  H   UNL     1       1.633   6.814  21.615  0.00  0.00    +0.000 HD
BRANCH  13  17
ATOM     17  C   UNL     1       1.381   8.907  21.245  0.00  0.00    +0.000 C 
BRANCH  17  18
ATOM     18  C   UNL     1      -0.150   9.118  21.442  0.00  0.00    +0.000 C 
BRANCH  18  19
ATOM     19  N   UNL     1      -0.662  10.365  20.827  0.00  0.00    +0.000 NA
BRANCH  19  21
ATOM     20  C   UNL     1       0.214  12.716  21.331  0.00  0.00    +0.000 C 
ATOM     21  C   UNL     1      -0.565  11.485  21.806  0.00  0.00    +0.000 C 
ENDBRANCH  19  21
BRANCH  19  22
ATOM     22  C   UNL     1       0.018  10.649  19.527  0.00  0.00    +0.000 C 
ATOM     23  C   UNL     1      -0.773  10.264  18.273  0.00  0.00    +0.000 C 
ENDBRANCH  19  22
ENDBRANCH  18  19
ENDBRANCH  17  18
ENDBRANCH  13  17
ENDBRANCH   1  14
TORSDOF 6
ENDMDL
MODEL 5
REMARK VINA RESULT:      -6.8      4.997      8.876
REMARK  Name = 
REMARK  10 active torsions:
REMARK  status: ('A' for Active; 'I' for Inactive)
REMARK    1  A    between atoms: C_1  and  C_2
REMARK    2  A    between atoms: C_2  and  N_3
REMARK    3  A    between atoms: N_3  and  C_4
REMARK    4  A    between atoms: N_3  and  C_6
REMARK    5  A    between atoms: C_4  and  C_5
REMARK    6  A    between atoms: C_6  and  C_7
REMARK    7  A    between atoms: C_7  and  N_8
REMARK    8  A    between atoms: C_9  and  C_11
REMARK    9  A    between atoms: C_15  and  C_16
REMARK   10  A    between atoms: C_18  and  C_19
REMARK                            x       y       z     vdW  Elec       q    Type
REMARK                         _______ _______ _______ _____ _____    ______ ____
ROOT
ATOM      1  C   UNL     1       2.415   5.883  19.389  0.00  0.00    +0.000 C 
ATOM      2  C   UNL     1       1.616   5.520  18.111  0.00  0.00    +0.000 C 
ATOM      3  C   UNL     1       1.944   4.079  17.665  0.00  0.00    +0.000 C 
ATOM      4  C   UNL     1       3.457   3.951  17.385  0.00  0.00    +0.000 C 
ATOM      5  C   UNL     1       4.263   4.283  18.669  0.00  0.00    +0.000 C 
ATOM      6  C   UNL     1       5.769   4.156  18.397  0.00  0.00    +0.000 C 
ATOM      7  C   UNL     1       3.847   3.294  19.793  0.00  0.00    +0.000 C 
ATOM      8  C   UNL     1       2.328   3.416  20.075  0.00  0.00    +0.000 C 
ATOM      9  C   UNL     1       1.916   2.445  21.195  0.00  0.00    +0.000 C 
ATOM     10  C   UNL     1       1.538   3.094  18.780  0.00  0.00    +0.000 C 
ATOM     11  C   UNL     1       2.023   4.866  20.518  0.00  0.00    +0.000 C 
ATOM     12  C   UNL     1       3.930   5.733  19.109  0.00  0.00    +0.000 C 
ENDROOT
BRANCH   1  14
ATOM     13  N   UNL     1       1.656   7.603  21.101  0.00  0.00    +0.000 N 
ATOM     14  C   UNL     1       2.098   7.311  19.814  0.00  0.00    +0.000 C 
ATOM     15  O   UNL     1       2.245   8.222  19.024  0.00  0.00    +0.000 OA
ATOM     16  H   UNL     1       1.537   6.857  21.792  0.00  0.00    +0.000 HD
BRANCH  13  17
ATOM     17  C   UNL     1       1.400   8.970  21.472  0.00  0.00    +0.000 C 
BRANCH  17  18
ATOM     18  C   UNL     1      -0.118   9.315  21.510  0.00  0.00    +0.000 C 
BRANCH  18  19
ATOM     19  N   UNL     1      -0.397  10.734  21.833  0.00  0.00    +0.000 NA
BRANCH  19  21
ATOM     20  C   UNL     1      -0.004  11.950  19.616  0.00  0.00    +0.000 C 
ATOM     21  C   UNL     1      -0.998  11.411  20.649  0.00  0.00    +0.000 C 
ENDBRANCH  19  21
BRANCH  19  22
ATOM     22  C   UNL     1      -1.222  10.858  23.073  0.00  0.00    +0.000 C 
ATOM     23  C   UNL     1      -2.190  12.044  23.104  0.00  0.00    +0.000 C 
ENDBRANCH  19  22
ENDBRANCH  18  19
ENDBRANCH  17  18
ENDBRANCH  13  17
ENDBRANCH   1  14
TORSDOF 6
ENDMDL
MODEL 6
REMARK VINA RESULT:      -6.7      3.480      6.477
REMARK  Name = 
REMARK  10 active torsions:
REMARK  status: ('A' for Active; 'I' for Inactive)
REMARK    1  A    between atoms: C_1  and  C_2
REMARK    2  A    between atoms: C_2  and  N_3
REMARK    3  A    between atoms: N_3  and  C_4
REMARK    4  A    between atoms: N_3  and  C_6
REMARK    5  A    between atoms: C_4  and  C_5
REMARK    6  A    between atoms: C_6  and  C_7
REMARK    7  A    between atoms: C_7  and  N_8
REMARK    8  A    between atoms: C_9  and  C_11
REMARK    9  A    between atoms: C_15  and  C_16
REMARK   10  A    between atoms: C_18  and  C_19
REMARK                            x       y       z     vdW  Elec       q    Type
REMARK                         _______ _______ _______ _____ _____    ______ ____
ROOT
ATOM      1  C   UNL     1       5.127   6.037  18.142  0.00  0.00    +0.000 C 
ATOM      2  C   UNL     1       5.922   5.214  19.187  0.00  0.00    +0.000 C 
ATOM      3  C   UNL     1       7.397   5.074  18.753  0.00  0.00    +0.000 C 
ATOM      4  C   UNL     1       7.471   4.376  17.378  0.00  0.00    +0.000 C 
ATOM      5  C   UNL     1       6.704   5.211  16.318  0.00  0.00    +0.000 C 
ATOM      6  C   UNL     1       6.776   4.521  14.947  0.00  0.00    +0.000 C 
ATOM      7  C   UNL     1       7.346   6.623  16.230  0.00  0.00    +0.000 C 
ATOM      8  C   UNL     1       7.277   7.327  17.609  0.00  0.00    +0.000 C 
ATOM      9  C   UNL     1       7.903   8.729  17.521  0.00  0.00    +0.000 C 
ATOM     10  C   UNL     1       8.037   6.474  18.658  0.00  0.00    +0.000 C 
ATOM     11  C   UNL     1       5.792   7.453  18.025  0.00  0.00    +0.000 C 
ATOM     12  C   UNL     1       5.223   5.344  16.761  0.00  0.00    +0.000 C 
ENDROOT
BRANCH   1  14
ATOM     13  N   UNL     1       3.272   5.861  19.871  0.00  0.00    +0.000 N 
ATOM     14  C   UNL     1       3.671   6.158  18.571  0.00  0.00    +0.000 C 
ATOM     15  O   UNL     1       2.836   6.535  17.773  0.00  0.00    +0.000 OA
ATOM     16  H   UNL     1       3.955   5.556  20.568  0.00  0.00    +0.000 HD
BRANCH  13  17
ATOM     17  C   UNL     1       1.891   6.022  20.244  0.00  0.00    +0.000 C 
BRANCH  17  18
ATOM     18  C   UNL     1       1.092   4.686  20.203  0.00  0.00    +0.000 C 
BRANCH  18  19
ATOM     19  N   UNL     1       1.859   3.552  19.636  0.00  0.00    +0.000 NA
BRANCH  19  21
ATOM     20  C   UNL     1       1.985   2.660  22.031  0.00  0.00    +0.000 C 
ATOM     21  C   UNL     1       1.760   2.374  20.542  0.00  0.00    +0.000 C 
ENDBRANCH  19  21
BRANCH  19  22
ATOM     22  C   UNL     1       1.440   3.260  18.231  0.00  0.00    +0.000 C 
ATOM     23  C   UNL     1       2.560   2.808  17.291  0.00  0.00    +0.000 C 
ENDBRANCH  19  22
ENDBRANCH  18  19
ENDBRANCH  17  18
ENDBRANCH  13  17
ENDBRANCH   1  14
TORSDOF 6
ENDMDL
MODEL 7
REMARK VINA RESULT:      -6.7      2.994      6.697
REMARK  Name = 
REMARK  10 active torsions:
REMARK  status: ('A' for Active; 'I' for Inactive)
REMARK    1  A    between atoms: C_1  and  C_2
REMARK    2  A    between atoms: C_2  and  N_3
REMARK    3  A    between atoms: N_3  and  C_4
REMARK    4  A    between atoms: N_3  and  C_6
REMARK    5  A    between atoms: C_4  and  C_5
REMARK    6  A    between atoms: C_6  and  C_7
REMARK    7  A    between atoms: C_7  and  N_8
REMARK    8  A    between atoms: C_9  and  C_11
REMARK    9  A    between atoms: C_15  and  C_16
REMARK   10  A    between atoms: C_18  and  C_19
REMARK                            x       y       z     vdW  Elec       q    Type
REMARK                         _______ _______ _______ _____ _____    ______ ____
ROOT
ATOM      1  C   UNL     1       4.537   4.332  17.363  0.00  0.00    +0.000 C 
ATOM      2  C   UNL     1       3.952   5.749  17.133  0.00  0.00    +0.000 C 
ATOM      3  C   UNL     1       5.029   6.686  16.546  0.00  0.00    +0.000 C 
ATOM      4  C   UNL     1       6.229   6.772  17.514  0.00  0.00    +0.000 C 
ATOM      5  C   UNL     1       6.840   5.361  17.724  0.00  0.00    +0.000 C 
ATOM      6  C   UNL     1       8.036   5.440  18.686  0.00  0.00    +0.000 C 
ATOM      7  C   UNL     1       7.307   4.805  16.351  0.00  0.00    +0.000 C 
ATOM      8  C   UNL     1       6.106   4.721  15.374  0.00  0.00    +0.000 C 
ATOM      9  C   UNL     1       6.564   4.160  14.017  0.00  0.00    +0.000 C 
ATOM     10  C   UNL     1       5.499   6.135  15.185  0.00  0.00    +0.000 C 
ATOM     11  C   UNL     1       5.040   3.780  15.983  0.00  0.00    +0.000 C 
ATOM     12  C   UNL     1       5.753   4.426  18.317  0.00  0.00    +0.000 C 
ENDROOT
BRANCH   1  14
ATOM     13  N   UNL     1       2.146   3.825  18.063  0.00  0.00    +0.000 N 
ATOM     14  C   UNL     1       3.473   3.418  17.956  0.00  0.00    +0.000 C 
ATOM     15  O   UNL     1       3.776   2.303  18.331  0.00  0.00    +0.000 OA
ATOM     16  H   UNL     1       1.859   4.753  17.741  0.00  0.00    +0.000 HD
BRANCH  13  17
ATOM     17  C   UNL     1       1.165   2.918  18.597  0.00  0.00    +0.000 C 
BRANCH  17  18
ATOM     18  C   UNL     1       0.374   3.517  19.798  0.00  0.00    +0.000 C 
BRANCH  18  19
ATOM     19  N   UNL     1       1.162   3.588  21.052  0.00  0.00    +0.000 NA
BRANCH  19  21
ATOM     20  C   UNL     1       3.300   2.269  21.539  0.00  0.00    +0.000 C 
ATOM     21  C   UNL     1       1.782   2.263  21.332  0.00  0.00    +0.000 C 
ENDBRANCH  19  21
BRANCH  19  22
ATOM     22  C   UNL     1       2.148   4.711  21.011  0.00  0.00    +0.000 C 
ATOM     23  C   UNL     1       1.572   6.079  20.636  0.00  0.00    +0.000 C 
ENDBRANCH  19  22
ENDBRANCH  18  19
ENDBRANCH  17  18
ENDBRANCH  13  17
ENDBRANCH   1  14
TORSDOF 6
ENDMDL
MODEL 8
REMARK VINA RESULT:      -6.7      4.414      8.440
REMARK  Name = 
REMARK  10 active torsions:
REMARK  status: ('A' for Active; 'I' for Inactive)
REMARK    1  A    between atoms: C_1  and  C_2
REMARK    2  A    between atoms: C_2  and  N_3
REMARK    3  A    between atoms: N_3  and  C_4
REMARK    4  A    between atoms: N_3  and  C_6
REMARK    5  A    between atoms: C_4  and  C_5
REMARK    6  A    between atoms: C_6  and  C_7
REMARK    7  A    between atoms: C_7  and  N_8
REMARK    8  A    between atoms: C_9  and  C_11
REMARK    9  A    between atoms: C_15  and  C_16
REMARK   10  A    between atoms: C_18  and  C_19
REMARK                            x       y       z     vdW  Elec       q    Type
REMARK                         _______ _______ _______ _____ _____    ______ ____
ROOT
ATOM      1  C   UNL     1       3.448   6.119  18.243  0.00  0.00    +0.000 C 
ATOM      2  C   UNL     1       4.392   5.839  19.440  0.00  0.00    +0.000 C 
ATOM      3  C   UNL     1       5.224   4.565  19.180  0.00  0.00    +0.000 C 
ATOM      4  C   UNL     1       4.281   3.360  18.970  0.00  0.00    +0.000 C 
ATOM      5  C   UNL     1       3.354   3.620  17.753  0.00  0.00    +0.000 C 
ATOM      6  C   UNL     1       2.414   2.424  17.539  0.00  0.00    +0.000 C 
ATOM      7  C   UNL     1       4.231   3.833  16.489  0.00  0.00    +0.000 C 
ATOM      8  C   UNL     1       5.183   5.039  16.697  0.00  0.00    +0.000 C 
ATOM      9  C   UNL     1       6.044   5.257  15.441  0.00  0.00    +0.000 C 
ATOM     10  C   UNL     1       6.093   4.769  17.922  0.00  0.00    +0.000 C 
ATOM     11  C   UNL     1       4.328   6.302  16.957  0.00  0.00    +0.000 C 
ATOM     12  C   UNL     1       2.520   4.900  18.023  0.00  0.00    +0.000 C 
ENDROOT
BRANCH   1  14
ATOM     13  N   UNL     1       2.073   7.618  19.769  0.00  0.00    +0.000 N 
ATOM     14  C   UNL     1       2.620   7.369  18.514  0.00  0.00    +0.000 C 
ATOM     15  O   UNL     1       2.442   8.178  17.625  0.00  0.00    +0.000 OA
ATOM     16  H   UNL     1       2.220   6.961  20.540  0.00  0.00    +0.000 HD
BRANCH  13  17
ATOM     17  C   UNL     1       1.327   8.828  19.992  0.00  0.00    +0.000 C 
BRANCH  17  18
ATOM     18  C   UNL     1       0.586   8.841  21.362  0.00  0.00    +0.000 C 
BRANCH  18  19
ATOM     19  N   UNL     1       0.462  10.192  21.957  0.00  0.00    +0.000 NA
BRANCH  19  21
ATOM     20  C   UNL     1       1.126  12.327  20.713  0.00  0.00    +0.000 C 
ATOM     21  C   UNL     1       0.125  11.181  20.895  0.00  0.00    +0.000 C 
ENDBRANCH  19  21
BRANCH  19  22
ATOM     22  C   UNL     1      -0.500  10.196  23.102  0.00  0.00    +0.000 C 
ATOM     23  C   UNL     1      -1.544  11.315  23.079  0.00  0.00    +0.000 C 
ENDBRANCH  19  22
ENDBRANCH  18  19
ENDBRANCH  17  18
ENDBRANCH  13  17
ENDBRANCH   1  14
TORSDOF 6
ENDMDL
MODEL 9
REMARK VINA RESULT:      -6.7      4.371      7.773
REMARK  Name = 
REMARK  10 active torsions:
REMARK  status: ('A' for Active; 'I' for Inactive)
REMARK    1  A    between atoms: C_1  and  C_2
REMARK    2  A    between atoms: C_2  and  N_3
REMARK    3  A    between atoms: N_3  and  C_4
REMARK    4  A    between atoms: N_3  and  C_6
REMARK    5  A    between atoms: C_4  and  C_5
REMARK    6  A    between atoms: C_6  and  C_7
REMARK    7  A    between atoms: C_7  and  N_8
REMARK    8  A    between atoms: C_9  and  C_11
REMARK    9  A    between atoms: C_15  and  C_16
REMARK   10  A    between atoms: C_18  and  C_19
REMARK                            x       y       z     vdW  Elec       q    Type
REMARK                         _______ _______ _______ _____ _____    ______ ____
ROOT
ATOM      1  C   UNL     1       2.603   5.911  18.893  0.00  0.00    +0.000 C 
ATOM      2  C   UNL     1       1.731   5.252  17.793  0.00  0.00    +0.000 C 
ATOM      3  C   UNL     1       2.138   3.776  17.596  0.00  0.00    +0.000 C 
ATOM      4  C   UNL     1       3.627   3.696  17.195  0.00  0.00    +0.000 C 
ATOM      5  C   UNL     1       4.509   4.324  18.307  0.00  0.00    +0.000 C 
ATOM      6  C   UNL     1       5.993   4.245  17.914  0.00  0.00    +0.000 C 
ATOM      7  C   UNL     1       4.275   3.550  19.633  0.00  0.00    +0.000 C 
ATOM      8  C   UNL     1       2.781   3.625  20.037  0.00  0.00    +0.000 C 
ATOM      9  C   UNL     1       2.549   2.867  21.356  0.00  0.00    +0.000 C 
ATOM     10  C   UNL     1       1.913   3.005  18.912  0.00  0.00    +0.000 C 
ATOM     11  C   UNL     1       2.395   5.111  20.226  0.00  0.00    +0.000 C 
ATOM     12  C   UNL     1       4.096   5.808  18.496  0.00  0.00    +0.000 C 
ENDROOT
BRANCH   1  14
ATOM     13  N   UNL     1       2.109   8.232  17.981  0.00  0.00    +0.000 N 
ATOM     14  C   UNL     1       2.205   7.370  19.070  0.00  0.00    +0.000 C 
ATOM     15  O   UNL     1       1.949   7.795  20.178  0.00  0.00    +0.000 OA
ATOM     16  H   UNL     1       2.304   7.897  17.034  0.00  0.00    +0.000 HD
BRANCH  13  17
ATOM     17  C   UNL     1       1.695   9.595  18.188  0.00  0.00    +0.000 C 
BRANCH  17  18
ATOM     18  C   UNL     1       0.172   9.811  17.946  0.00  0.00    +0.000 C 
BRANCH  18  19
ATOM     19  N   UNL     1      -0.459  10.736  18.917  0.00  0.00    +0.000 NA
BRANCH  19  21
ATOM     20  C   UNL     1       0.025  13.214  18.496  0.00  0.00    +0.000 C 
ATOM     21  C   UNL     1       0.442  11.898  19.162  0.00  0.00    +0.000 C 
ENDBRANCH  19  21
BRANCH  19  22
ATOM     22  C   UNL     1      -1.833  11.129  18.481  0.00  0.00    +0.000 C 
ATOM     23  C   UNL     1      -2.667  10.011  17.850  0.00  0.00    +0.000 C 
ENDBRANCH  19  22
ENDBRANCH  18  19
ENDBRANCH  17  18
ENDBRANCH  13  17
ENDBRANCH   1  14
TORSDOF 6
ENDMDL
