MODEL 1
REMARK VINA RESULT:      -8.2      0.000      0.000
REMARK  Name = 
REMARK  11 active torsions:
REMARK  status: ('A' for Active; 'I' for Inactive)
REMARK    1  A    between atoms: C_1  and  C_2
REMARK    2  A    between atoms: C_2  and  C_3
REMARK    3  A    between atoms: C_3  and  C_4
REMARK    4  A    between atoms: C_4  and  N_5
REMARK    5  A    between atoms: N_5  and  C_6
REMARK    6  A    between atoms: N_5  and  N_10
REMARK    7  A    between atoms: C_6  and  C_7
REMARK    8  A    between atoms: C_7  and  C_8
REMARK    9  A    between atoms: C_8  and  C_9
REMARK   10  A    between atoms: C_11  and  C_13
REMARK   11  A    between atoms: C_15  and  C_16
REMARK                            x       y       z     vdW  Elec       q    Type
REMARK                         _______ _______ _______ _____ _____    ______ ____
ROOT
ATOM      1  C   UNL     1       2.816   8.053  17.695  0.00  0.00    +0.000 A 
ATOM      2  C   UNL     1       2.416   6.923  18.392  0.00  0.00    +0.000 A 
ATOM      3  C   UNL     1       3.010   5.664  18.149  0.00  0.00    +0.000 A 
ATOM      4  C   UNL     1       4.048   5.632  17.157  0.00  0.00    +0.000 A 
ATOM      5  C   UNL     1       4.783   4.479  16.771  0.00  0.00    +0.000 A 
ATOM      6  C   UNL     1       5.826   4.520  15.845  0.00  0.00    +0.000 A 
ATOM      7  C   UNL     1       6.132   5.717  15.230  0.00  0.00    +0.000 A 
ATOM      8  C   UNL     1       5.402   6.860  15.555  0.00  0.00    +0.000 A 
ATOM      9  C   UNL     1       4.384   6.857  16.506  0.00  0.00    +0.000 A 
ATOM     10  N   UNL     1       3.787   8.037  16.751  0.00  0.00    +0.000 NA
ENDROOT
BRANCH   3  11
ATOM     11  C   UNL     1       2.535   4.428  18.974  0.00  0.00    +0.000 C 
ATOM     12  C   UNL     1       1.671   4.838  20.223  0.00  0.00    +0.000 C 
ATOM     13  C   UNL     1       1.226   3.630  21.059  0.00  0.00    +0.000 C 
ATOM     14  C   UNL     1       0.363   2.713  20.184  0.00  0.00    +0.000 C 
ATOM     15  C   UNL     1       1.173   2.254  18.965  0.00  0.00    +0.000 C 
ATOM     16  C   UNL     1       2.410   1.485  19.458  0.00  0.00    +0.000 C 
ATOM     17  C   UNL     1       3.280   2.391  20.346  0.00  0.00    +0.000 C 
ATOM     18  C   UNL     1       2.467   2.877  21.549  0.00  0.00    +0.000 C 
ATOM     19  C   UNL     1       3.745   3.611  19.533  0.00  0.00    +0.000 C 
ATOM     20  C   UNL     1       1.619   3.480  18.139  0.00  0.00    +0.000 C 
ENDBRANCH   3  11
BRANCH   1  22
ATOM     21  N   UNL     1       0.952   9.288  18.680  0.00  0.00    +0.000 N 
ATOM     22  C   UNL     1       2.143   9.378  17.982  0.00  0.00    +0.000 C 
ATOM     23  O   UNL     1       2.671  10.425  17.616  0.00  0.00    +0.000 OA
ATOM     24  H   UNL     1       0.618   8.359  18.934  0.00  0.00    +0.000 HD
BRANCH  21  25
ATOM     25  N   UNL     1       0.217  10.458  19.072  0.00  0.00    +0.000 NA
BRANCH  25  26
ATOM     26  C   UNL     1      -0.695  10.875  17.992  0.00  0.00    +0.000 C 
BRANCH  26  27
ATOM     27  C   UNL     1      -2.010  10.095  17.813  0.00  0.00    +0.000 C 
BRANCH  27  29
ATOM     28  C   UNL     1      -3.026  10.910  15.673  0.00  0.00    +0.000 C 
ATOM     29  C   UNL     1      -2.373   9.720  16.376  0.00  0.00    +0.000 C 
ENDBRANCH  27  29
ENDBRANCH  26  27
ENDBRANCH  25  26
BRANCH  25  30
ATOM     30  C   UNL     1      -0.428  10.264  20.391  0.00  0.00    +0.000 C 
BRANCH  30  31
ATOM     31  C   UNL     1       0.108   9.062  21.180  0.00  0.00    +0.000 C 
BRANCH  31  32
ATOM     32  C   UNL     1       0.399   9.368  22.651  0.00  0.00    +0.000 C 
ATOM     33  C   UNL     1      -0.751  10.177  23.239  0.00  0.00    +0.000 C 
ENDBRANCH  31  32
ENDBRANCH  30  31
ENDBRANCH  25  30
ENDBRANCH  21  25
ENDBRANCH   1  22
TORSDOF 9
ENDMDL
MODEL 2
REMARK VINA RESULT:      -8.1      1.952      5.131
REMARK  Name = 
REMARK  11 active torsions:
REMARK  status: ('A' for Active; 'I' for Inactive)
REMARK    1  A    between atoms: C_1  and  C_2
REMARK    2  A    between atoms: C_2  and  C_3
REMARK    3  A    between atoms: C_3  and  C_4
REMARK    4  A    between atoms: C_4  and  N_5
REMARK    5  A    between atoms: N_5  and  C_6
REMARK    6  A    between atoms: N_5  and  N_10
REMARK    7  A    between atoms: C_6  and  C_7
REMARK    8  A    between atoms: C_7  and  C_8
REMARK    9  A    between atoms: C_8  and  C_9
REMARK   10  A    between atoms: C_11  and  C_13
REMARK   11  A    between atoms: C_15  and  C_16
REMARK                            x       y       z     vdW  Elec       q    Type
REMARK                         _______ _______ _______ _____ _____    ______ ____
ROOT
ATOM      1  C   UNL     1       1.904   6.998  20.268  0.00  0.00    +0.000 A 
ATOM      2  C   UNL     1       2.987   6.916  19.406  0.00  0.00    +0.000 A 
ATOM      3  C   UNL     1       3.537   5.667  19.040  0.00  0.00    +0.000 A 
ATOM      4  C   UNL     1       2.905   4.505  19.600  0.00  0.00    +0.000 A 
ATOM      5  C   UNL     1       3.287   3.159  19.351  0.00  0.00    +0.000 A 
ATOM      6  C   UNL     1       2.594   2.066  19.874  0.00  0.00    +0.000 A 
ATOM      7  C   UNL     1       1.521   2.289  20.712  0.00  0.00    +0.000 A 
ATOM      8  C   UNL     1       1.144   3.598  21.009  0.00  0.00    +0.000 A 
ATOM      9  C   UNL     1       1.792   4.707  20.470  0.00  0.00    +0.000 A 
ATOM     10  N   UNL     1       1.302   5.913  20.810  0.00  0.00    +0.000 NA
ENDROOT
BRANCH   3  11
ATOM     11  C   UNL     1       4.745   5.628  18.054  0.00  0.00    +0.000 C 
ATOM     12  C   UNL     1       4.818   6.912  17.147  0.00  0.00    +0.000 C 
ATOM     13  C   UNL     1       5.985   6.869  16.150  0.00  0.00    +0.000 C 
ATOM     14  C   UNL     1       7.301   6.782  16.932  0.00  0.00    +0.000 C 
ATOM     15  C   UNL     1       7.297   5.524  17.809  0.00  0.00    +0.000 C 
ATOM     16  C   UNL     1       7.153   4.292  16.901  0.00  0.00    +0.000 C 
ATOM     17  C   UNL     1       5.840   4.370  16.102  0.00  0.00    +0.000 C 
ATOM     18  C   UNL     1       5.825   5.640  15.248  0.00  0.00    +0.000 C 
ATOM     19  C   UNL     1       4.650   4.412  17.077  0.00  0.00    +0.000 C 
ATOM     20  C   UNL     1       6.114   5.580  18.801  0.00  0.00    +0.000 C 
ENDBRANCH   3  11
BRANCH   1  22
ATOM     21  N   UNL     1       1.065   9.184  19.568  0.00  0.00    +0.000 N 
ATOM     22  C   UNL     1       1.356   8.359  20.640  0.00  0.00    +0.000 C 
ATOM     23  O   UNL     1       1.185   8.649  21.821  0.00  0.00    +0.000 OA
ATOM     24  H   UNL     1       1.246   8.827  18.630  0.00  0.00    +0.000 HD
BRANCH  21  25
ATOM     25  N   UNL     1       0.492  10.488  19.752  0.00  0.00    +0.000 NA
BRANCH  25  26
ATOM     26  C   UNL     1       1.288  11.502  19.036  0.00  0.00    +0.000 C 
BRANCH  26  27
ATOM     27  C   UNL     1       1.760  12.739  19.821  0.00  0.00    +0.000 C 
BRANCH  27  29
ATOM     28  C   UNL     1      -0.002  13.876  18.451  0.00  0.00    +0.000 C 
ATOM     29  C   UNL     1       0.883  13.985  19.691  0.00  0.00    +0.000 C 
ENDBRANCH  27  29
ENDBRANCH  26  27
ENDBRANCH  25  26
BRANCH  25  30
ATOM     30  C   UNL     1      -0.952  10.486  19.425  0.00  0.00    +0.000 C 
BRANCH  30  31
ATOM     31  C   UNL     1      -1.255  10.347  17.927  0.00  0.00    +0.000 C 
BRANCH  31  32
ATOM     32  C   UNL     1      -2.647   9.788  17.626  0.00  0.00    +0.000 C 
ATOM     33  C   UNL     1      -2.958   9.968  16.145  0.00  0.00    +0.000 C 
ENDBRANCH  31  32
ENDBRANCH  30  31
ENDBRANCH  25  30
ENDBRANCH  21  25
ENDBRANCH   1  22
TORSDOF 9
ENDMDL
MODEL 3
REMARK VINA RESULT:      -8.0      0.451      1.492
REMARK  Name = 
REMARK  11 active torsions:
REMARK  status: ('A' for Active; 'I' for Inactive)
REMARK    1  A    between atoms: C_1  and  C_2
REMARK    2  A    between atoms: C_2  and  C_3
REMARK    3  A    between atoms: C_3  and  C_4
REMARK    4  A    between atoms: C_4  and  N_5
REMARK    5  A    between atoms: N_5  and  C_6
REMARK    6  A    between atoms: N_5  and  N_10
REMARK    7  A    between atoms: C_6  and  C_7
REMARK    8  A    between atoms: C_7  and  C_8
REMARK    9  A    between atoms: C_8  and  C_9
REMARK   10  A    between atoms: C_11  and  C_13
REMARK   11  A    between atoms: C_15  and  C_16
REMARK                            x       y       z     vdW  Elec       q    Type
REMARK                         _______ _______ _______ _____ _____    ______ ____
ROOT
ATOM      1  C   UNL     1       2.804   8.049  17.695  0.00  0.00    +0.000 A 
ATOM      2  C   UNL     1       2.403   6.924  18.400  0.00  0.00    +0.000 A 
ATOM      3  C   UNL     1       2.995   5.663  18.165  0.00  0.00    +0.000 A 
ATOM      4  C   UNL     1       4.032   5.623  17.172  0.00  0.00    +0.000 A 
ATOM      5  C   UNL     1       4.766   4.467  16.793  0.00  0.00    +0.000 A 
ATOM      6  C   UNL     1       5.807   4.500  15.865  0.00  0.00    +0.000 A 
ATOM      7  C   UNL     1       6.114   5.693  15.243  0.00  0.00    +0.000 A 
ATOM      8  C   UNL     1       5.387   6.839  15.561  0.00  0.00    +0.000 A 
ATOM      9  C   UNL     1       4.369   6.843  16.512  0.00  0.00    +0.000 A 
ATOM     10  N   UNL     1       3.774   8.026  16.750  0.00  0.00    +0.000 NA
ENDROOT
BRANCH   3  11
ATOM     11  C   UNL     1       2.519   4.432  18.997  0.00  0.00    +0.000 C 
ATOM     12  C   UNL     1       3.723   3.614  19.595  0.00  0.00    +0.000 C 
ATOM     13  C   UNL     1       3.267   2.382  20.389  0.00  0.00    +0.000 C 
ATOM     14  C   UNL     1       2.398   2.845  21.564  0.00  0.00    +0.000 C 
ATOM     15  C   UNL     1       1.186   3.621  21.033  0.00  0.00    +0.000 C 
ATOM     16  C   UNL     1       0.369   2.693  20.119  0.00  0.00    +0.000 C 
ATOM     17  C   UNL     1       1.233   2.212  18.940  0.00  0.00    +0.000 C 
ATOM     18  C   UNL     1       2.461   1.463  19.466  0.00  0.00    +0.000 C 
ATOM     19  C   UNL     1       1.704   3.427  18.122  0.00  0.00    +0.000 C 
ATOM     20  C   UNL     1       1.662   4.852  20.231  0.00  0.00    +0.000 C 
ENDBRANCH   3  11
BRANCH   1  22
ATOM     21  N   UNL     1       1.009   9.305  18.779  0.00  0.00    +0.000 N 
ATOM     22  C   UNL     1       2.133   9.376  17.974  0.00  0.00    +0.000 C 
ATOM     23  O   UNL     1       2.605  10.411  17.510  0.00  0.00    +0.000 OA
ATOM     24  H   UNL     1       0.718   8.385  19.108  0.00  0.00    +0.000 HD
BRANCH  21  25
ATOM     25  N   UNL     1       0.290  10.482  19.176  0.00  0.00    +0.000 NA
BRANCH  25  26
ATOM     26  C   UNL     1      -0.759  10.797  18.189  0.00  0.00    +0.000 C 
BRANCH  26  27
ATOM     27  C   UNL     1      -2.099  10.048  18.292  0.00  0.00    +0.000 C 
BRANCH  27  29
ATOM     28  C   UNL     1      -2.616  10.939  16.008  0.00  0.00    +0.000 C 
ATOM     29  C   UNL     1      -2.809   9.765  16.967  0.00  0.00    +0.000 C 
ENDBRANCH  27  29
ENDBRANCH  26  27
ENDBRANCH  25  26
BRANCH  25  30
ATOM     30  C   UNL     1      -0.186  10.369  20.574  0.00  0.00    +0.000 C 
BRANCH  30  31
ATOM     31  C   UNL     1      -0.551  11.711  21.223  0.00  0.00    +0.000 C 
BRANCH  31  32
ATOM     32  C   UNL     1      -1.021  11.589  22.674  0.00  0.00    +0.000 C 
ATOM     33  C   UNL     1      -0.793  10.164  23.163  0.00  0.00    +0.000 C 
ENDBRANCH  31  32
ENDBRANCH  30  31
ENDBRANCH  25  30
ENDBRANCH  21  25
ENDBRANCH   1  22
TORSDOF 9
ENDMDL
MODEL 4
REMARK VINA RESULT:      -8.0      2.185      5.216
REMARK  Name = 
REMARK  11 active torsions:
REMARK  status: ('A' for Active; 'I' for Inactive)
REMARK    1  A    between atoms: C_1  and  C_2
REMARK    2  A    between atoms: C_2  and  C_3
REMARK    3  A    between atoms: C_3  and  C_4
REMARK    4  A    between atoms: C_4  and  N_5
REMARK    5  A    between atoms: N_5  and  C_6
REMARK    6  A    between atoms: N_5  and  N_10
REMARK    7  A    between atoms: C_6  and  C_7
REMARK    8  A    between atoms: C_7  and  C_8
REMARK    9  A    between atoms: C_8  and  C_9
REMARK   10  A    between atoms: C_11  and  C_13
REMARK   11  A    between atoms: C_15  and  C_16
REMARK                            x       y       z     vdW  Elec       q    Type
REMARK                         _______ _______ _______ _____ _____    ______ ____
ROOT
ATOM      1  C   UNL     1       1.960   7.046  20.245  0.00  0.00    +0.000 A 
ATOM      2  C   UNL     1       3.095   6.954  19.453  0.00  0.00    +0.000 A 
ATOM      3  C   UNL     1       3.657   5.700  19.123  0.00  0.00    +0.000 A 
ATOM      4  C   UNL     1       2.982   4.544  19.642  0.00  0.00    +0.000 A 
ATOM      5  C   UNL     1       3.369   3.195  19.419  0.00  0.00    +0.000 A 
ATOM      6  C   UNL     1       2.637   2.108  19.897  0.00  0.00    +0.000 A 
ATOM      7  C   UNL     1       1.514   2.340  20.666  0.00  0.00    +0.000 A 
ATOM      8  C   UNL     1       1.130   3.652  20.938  0.00  0.00    +0.000 A 
ATOM      9  C   UNL     1       1.818   4.756  20.440  0.00  0.00    +0.000 A 
ATOM     10  N   UNL     1       1.317   5.965  20.749  0.00  0.00    +0.000 NA
ENDROOT
BRANCH   3  11
ATOM     11  C   UNL     1       4.925   5.651  18.214  0.00  0.00    +0.000 C 
ATOM     12  C   UNL     1       6.259   5.663  19.048  0.00  0.00    +0.000 C 
ATOM     13  C   UNL     1       7.513   5.647  18.162  0.00  0.00    +0.000 C 
ATOM     14  C   UNL     1       7.508   4.366  17.320  0.00  0.00    +0.000 C 
ATOM     15  C   UNL     1       6.240   4.322  16.458  0.00  0.00    +0.000 C 
ATOM     16  C   UNL     1       6.231   5.549  15.532  0.00  0.00    +0.000 C 
ATOM     17  C   UNL     1       6.246   6.843  16.365  0.00  0.00    +0.000 C 
ATOM     18  C   UNL     1       7.495   6.878  17.251  0.00  0.00    +0.000 C 
ATOM     19  C   UNL     1       4.998   6.888  17.263  0.00  0.00    +0.000 C 
ATOM     20  C   UNL     1       4.989   4.345  17.363  0.00  0.00    +0.000 C 
ENDBRANCH   3  11
BRANCH   1  22
ATOM     21  N   UNL     1       1.102   9.205  19.487  0.00  0.00    +0.000 N 
ATOM     22  C   UNL     1       1.400   8.411  20.580  0.00  0.00    +0.000 C 
ATOM     23  O   UNL     1       1.226   8.730  21.754  0.00  0.00    +0.000 OA
ATOM     24  H   UNL     1       1.287   8.825  18.559  0.00  0.00    +0.000 HD
BRANCH  21  25
ATOM     25  N   UNL     1       0.518  10.508  19.637  0.00  0.00    +0.000 NA
BRANCH  25  26
ATOM     26  C   UNL     1       1.363  11.525  18.984  0.00  0.00    +0.000 C 
BRANCH  26  27
ATOM     27  C   UNL     1       1.227  12.986  19.450  0.00  0.00    +0.000 C 
BRANCH  27  29
ATOM     28  C   UNL     1       2.720  14.582  18.225  0.00  0.00    +0.000 C 
ATOM     29  C   UNL     1       2.527  13.788  19.516  0.00  0.00    +0.000 C 
ENDBRANCH  27  29
ENDBRANCH  26  27
ENDBRANCH  25  26
BRANCH  25  30
ATOM     30  C   UNL     1      -0.899  10.508  19.208  0.00  0.00    +0.000 C 
BRANCH  30  31
ATOM     31  C   UNL     1      -1.122   9.999  17.777  0.00  0.00    +0.000 C 
BRANCH  31  32
ATOM     32  C   UNL     1      -2.595   9.911  17.374  0.00  0.00    +0.000 C 
ATOM     33  C   UNL     1      -2.712  10.000  15.857  0.00  0.00    +0.000 C 
ENDBRANCH  31  32
ENDBRANCH  30  31
ENDBRANCH  25  30
ENDBRANCH  21  25
ENDBRANCH   1  22
TORSDOF 9
ENDMDL
MODEL 5
REMARK VINA RESULT:      -8.0      2.020      5.104
REMARK  Name = 
REMARK  11 active torsions:
REMARK  status: ('A' for Active; 'I' for Inactive)
REMARK    1  A    between atoms: C_1  and  C_2
REMARK    2  A    between atoms: C_2  and  C_3
REMARK    3  A    between atoms: C_3  and  C_4
REMARK    4  A    between atoms: C_4  and  N_5
REMARK    5  A    between atoms: N_5  and  C_6
REMARK    6  A    between atoms: N_5  and  N_10
REMARK    7  A    between atoms: C_6  and  C_7
REMARK    8  A    between atoms: C_7  and  C_8
REMARK    9  A    between atoms: C_8  and  C_9
REMARK   10  A    between atoms: C_11  and  C_13
REMARK   11  A    between atoms: C_15  and  C_16
REMARK                            x       y       z     vdW  Elec       q    Type
REMARK                         _______ _______ _______ _____ _____    ______ ____
ROOT
ATOM      1  C   UNL     1       1.870   6.952  20.324  0.00  0.00    +0.000 A 
ATOM      2  C   UNL     1       3.021   6.906  19.551  0.00  0.00    +0.000 A 
ATOM      3  C   UNL     1       3.535   5.678  19.077  0.00  0.00    +0.000 A 
ATOM      4  C   UNL     1       2.794   4.500  19.430  0.00  0.00    +0.000 A 
ATOM      5  C   UNL     1       3.125   3.173  19.045  0.00  0.00    +0.000 A 
ATOM      6  C   UNL     1       2.331   2.070  19.366  0.00  0.00    +0.000 A 
ATOM      7  C   UNL     1       1.199   2.258  20.133  0.00  0.00    +0.000 A 
ATOM      8  C   UNL     1       0.867   3.543  20.561  0.00  0.00    +0.000 A 
ATOM      9  C   UNL     1       1.619   4.665  20.223  0.00  0.00    +0.000 A 
ATOM     10  N   UNL     1       1.165   5.850  20.672  0.00  0.00    +0.000 NA
ENDROOT
BRANCH   3  11
ATOM     11  C   UNL     1       4.823   5.683  18.197  0.00  0.00    +0.000 C 
ATOM     12  C   UNL     1       4.922   4.411  17.275  0.00  0.00    +0.000 C 
ATOM     13  C   UNL     1       6.203   4.390  16.429  0.00  0.00    +0.000 C 
ATOM     14  C   UNL     1       6.213   5.622  15.516  0.00  0.00    +0.000 C 
ATOM     15  C   UNL     1       6.154   6.895  16.369  0.00  0.00    +0.000 C 
ATOM     16  C   UNL     1       7.383   6.926  17.294  0.00  0.00    +0.000 C 
ATOM     17  C   UNL     1       7.390   5.689  18.209  0.00  0.00    +0.000 C 
ATOM     18  C   UNL     1       7.418   4.414  17.362  0.00  0.00    +0.000 C 
ATOM     19  C   UNL     1       6.117   5.685  19.073  0.00  0.00    +0.000 C 
ATOM     20  C   UNL     1       4.864   6.898  17.219  0.00  0.00    +0.000 C 
ENDBRANCH   3  11
BRANCH   1  22
ATOM     21  N   UNL     1       0.833   9.112  19.839  0.00  0.00    +0.000 N 
ATOM     22  C   UNL     1       1.363   8.290  20.818  0.00  0.00    +0.000 C 
ATOM     23  O   UNL     1       1.426   8.565  22.013  0.00  0.00    +0.000 OA
ATOM     24  H   UNL     1       0.832   8.768  18.879  0.00  0.00    +0.000 HD
BRANCH  21  25
ATOM     25  N   UNL     1       0.266  10.393  20.154  0.00  0.00    +0.000 NA
BRANCH  25  26
ATOM     26  C   UNL     1       1.234  11.466  19.861  0.00  0.00    +0.000 C 
BRANCH  26  27
ATOM     27  C   UNL     1       0.692  12.890  19.646  0.00  0.00    +0.000 C 
BRANCH  27  29
ATOM     28  C   UNL     1       2.663  13.167  18.124  0.00  0.00    +0.000 C 
ATOM     29  C   UNL     1       1.241  13.637  18.430  0.00  0.00    +0.000 C 
ENDBRANCH  27  29
ENDBRANCH  26  27
ENDBRANCH  25  26
BRANCH  25  30
ATOM     30  C   UNL     1      -1.060  10.559  19.516  0.00  0.00    +0.000 C 
BRANCH  30  31
ATOM     31  C   UNL     1      -1.122  10.070  18.063  0.00  0.00    +0.000 C 
BRANCH  31  32
ATOM     32  C   UNL     1      -2.545   9.918  17.522  0.00  0.00    +0.000 C 
ATOM     33  C   UNL     1      -2.525  10.027  16.001  0.00  0.00    +0.000 C 
ENDBRANCH  31  32
ENDBRANCH  30  31
ENDBRANCH  25  30
ENDBRANCH  21  25
ENDBRANCH   1  22
TORSDOF 9
ENDMDL
MODEL 6
REMARK VINA RESULT:      -7.9      0.502      1.450
REMARK  Name = 
REMARK  11 active torsions:
REMARK  status: ('A' for Active; 'I' for Inactive)
REMARK    1  A    between atoms: C_1  and  C_2
REMARK    2  A    between atoms: C_2  and  C_3
REMARK    3  A    between atoms: C_3  and  C_4
REMARK    4  A    between atoms: C_4  and  N_5
REMARK    5  A    between atoms: N_5  and  C_6
REMARK    6  A    between atoms: N_5  and  N_10
REMARK    7  A    between atoms: C_6  and  C_7
REMARK    8  A    between atoms: C_7  and  C_8
REMARK    9  A    between atoms: C_8  and  C_9
REMARK   10  A    between atoms: C_11  and  C_13
REMARK   11  A    between atoms: C_15  and  C_16
REMARK                            x       y       z     vdW  Elec       q    Type
REMARK                         _______ _______ _______ _____ _____    ______ ____
ROOT
ATOM      1  C   UNL     1       2.937   8.067  17.723  0.00  0.00    +0.000 A 
ATOM      2  C   UNL     1       2.510   6.958  18.437  0.00  0.00    +0.000 A 
ATOM      3  C   UNL     1       3.053   5.676  18.192  0.00  0.00    +0.000 A 
ATOM      4  C   UNL     1       4.067   5.598  17.179  0.00  0.00    +0.000 A 
ATOM      5  C   UNL     1       4.752   4.416  16.787  0.00  0.00    +0.000 A 
ATOM      6  C   UNL     1       5.776   4.412  15.839  0.00  0.00    +0.000 A 
ATOM      7  C   UNL     1       6.112   5.593  15.209  0.00  0.00    +0.000 A 
ATOM      8  C   UNL     1       5.432   6.764  15.540  0.00  0.00    +0.000 A 
ATOM      9  C   UNL     1       4.435   6.805  16.511  0.00  0.00    +0.000 A 
ATOM     10  N   UNL     1       3.887   8.008  16.759  0.00  0.00    +0.000 NA
ENDROOT
BRANCH   3  11
ATOM     11  C   UNL     1       2.550   4.464  19.036  0.00  0.00    +0.000 C 
ATOM     12  C   UNL     1       1.675   3.467  18.188  0.00  0.00    +0.000 C 
ATOM     13  C   UNL     1       1.149   2.287  19.018  0.00  0.00    +0.000 C 
ATOM     14  C   UNL     1       2.343   1.498  19.567  0.00  0.00    +0.000 C 
ATOM     15  C   UNL     1       3.213   2.417  20.433  0.00  0.00    +0.000 C 
ATOM     16  C   UNL     1       2.362   2.946  21.599  0.00  0.00    +0.000 C 
ATOM     17  C   UNL     1       1.154   3.732  21.061  0.00  0.00    +0.000 C 
ATOM     18  C   UNL     1       0.298   2.828  20.171  0.00  0.00    +0.000 C 
ATOM     19  C   UNL     1       1.651   4.926  20.227  0.00  0.00    +0.000 C 
ATOM     20  C   UNL     1       3.728   3.602  19.587  0.00  0.00    +0.000 C 
ENDBRANCH   3  11
BRANCH   1  22
ATOM     21  N   UNL     1       1.396   9.428  19.044  0.00  0.00    +0.000 N 
ATOM     22  C   UNL     1       2.320   9.418  18.013  0.00  0.00    +0.000 C 
ATOM     23  O   UNL     1       2.664  10.401  17.364  0.00  0.00    +0.000 OA
ATOM     24  H   UNL     1       1.197   8.545  19.513  0.00  0.00    +0.000 HD
BRANCH  21  25
ATOM     25  N   UNL     1       0.758  10.640  19.474  0.00  0.00    +0.000 NA
BRANCH  25  26
ATOM     26  C   UNL     1      -0.332  11.001  18.548  0.00  0.00    +0.000 C 
BRANCH  26  27
ATOM     27  C   UNL     1      -1.471   9.987  18.341  0.00  0.00    +0.000 C 
BRANCH  27  29
ATOM     28  C   UNL     1      -3.858  10.055  17.586  0.00  0.00    +0.000 C 
ATOM     29  C   UNL     1      -2.405  10.264  17.163  0.00  0.00    +0.000 C 
ENDBRANCH  27  29
ENDBRANCH  26  27
ENDBRANCH  25  26
BRANCH  25  30
ATOM     30  C   UNL     1       0.362  10.558  20.898  0.00  0.00    +0.000 C 
BRANCH  30  31
ATOM     31  C   UNL     1       0.463   9.148  21.496  0.00  0.00    +0.000 C 
BRANCH  31  32
ATOM     32  C   UNL     1      -0.215   9.004  22.860  0.00  0.00    +0.000 C 
ATOM     33  C   UNL     1      -0.915  10.310  23.219  0.00  0.00    +0.000 C 
ENDBRANCH  31  32
ENDBRANCH  30  31
ENDBRANCH  25  30
ENDBRANCH  21  25
ENDBRANCH   1  22
TORSDOF 9
ENDMDL
MODEL 7
REMARK VINA RESULT:      -7.9      1.019      1.847
REMARK  Name = 
REMARK  11 active torsions:
REMARK  status: ('A' for Active; 'I' for Inactive)
REMARK    1  A    between atoms: C_1  and  C_2
REMARK    2  A    between atoms: C_2  and  C_3
REMARK    3  A    between atoms: C_3  and  C_4
REMARK    4  A    between atoms: C_4  and  N_5
REMARK    5  A    between atoms: N_5  and  C_6
REMARK    6  A    between atoms: N_5  and  N_10
REMARK    7  A    between atoms: C_6  and  C_7
REMARK    8  A    between atoms: C_7  and  C_8
REMARK    9  A    between atoms: C_8  and  C_9
REMARK   10  A    between atoms: C_11  and  C_13
REMARK   11  A    between atoms: C_15  and  C_16
REMARK                            x       y       z     vdW  Elec       q    Type
REMARK                         _______ _______ _______ _____ _____    ______ ____
ROOT
ATOM      1  C   UNL     1       2.937   8.154  17.847  0.00  0.00    +0.000 A 
ATOM      2  C   UNL     1       2.458   6.945  18.329  0.00  0.00    +0.000 A 
ATOM      3  C   UNL     1       3.279   5.796  18.366  0.00  0.00    +0.000 A 
ATOM      4  C   UNL     1       4.625   5.960  17.891  0.00  0.00    +0.000 A 
ATOM      5  C   UNL     1       5.616   4.942  17.856  0.00  0.00    +0.000 A 
ATOM      6  C   UNL     1       6.928   5.176  17.442  0.00  0.00    +0.000 A 
ATOM      7  C   UNL     1       7.277   6.435  16.996  0.00  0.00    +0.000 A 
ATOM      8  C   UNL     1       6.318   7.446  16.979  0.00  0.00    +0.000 A 
ATOM      9  C   UNL     1       5.013   7.252  17.424  0.00  0.00    +0.000 A 
ATOM     10  N   UNL     1       4.200   8.323  17.388  0.00  0.00    +0.000 NA
ENDROOT
BRANCH   3  11
ATOM     11  C   UNL     1       2.698   4.464  18.934  0.00  0.00    +0.000 C 
ATOM     12  C   UNL     1       2.302   3.452  17.796  0.00  0.00    +0.000 C 
ATOM     13  C   UNL     1       1.698   2.150  18.343  0.00  0.00    +0.000 C 
ATOM     14  C   UNL     1       2.738   1.458  19.232  0.00  0.00    +0.000 C 
ATOM     15  C   UNL     1       3.135   2.392  20.382  0.00  0.00    +0.000 C 
ATOM     16  C   UNL     1       1.879   2.715  21.210  0.00  0.00    +0.000 C 
ATOM     17  C   UNL     1       0.823   3.401  20.327  0.00  0.00    +0.000 C 
ATOM     18  C   UNL     1       0.446   2.486  19.159  0.00  0.00    +0.000 C 
ATOM     19  C   UNL     1       1.399   4.712  19.765  0.00  0.00    +0.000 C 
ATOM     20  C   UNL     1       3.733   3.698  19.816  0.00  0.00    +0.000 C 
ENDBRANCH   3  11
BRANCH   1  22
ATOM     21  N   UNL     1       0.715   9.104  18.214  0.00  0.00    +0.000 N 
ATOM     22  C   UNL     1       2.017   9.355  17.817  0.00  0.00    +0.000 C 
ATOM     23  O   UNL     1       2.452  10.452  17.474  0.00  0.00    +0.000 OA
ATOM     24  H   UNL     1       0.476   8.150  18.482  0.00  0.00    +0.000 HD
BRANCH  21  25
ATOM     25  N   UNL     1      -0.266  10.150  18.288  0.00  0.00    +0.000 NA
BRANCH  25  26
ATOM     26  C   UNL     1      -1.303   9.951  17.258  0.00  0.00    +0.000 C 
BRANCH  26  27
ATOM     27  C   UNL     1      -2.390  11.030  17.108  0.00  0.00    +0.000 C 
BRANCH  27  29
ATOM     28  C   UNL     1      -2.951   9.774  15.014  0.00  0.00    +0.000 C 
ATOM     29  C   UNL     1      -3.058  11.117  15.735  0.00  0.00    +0.000 C 
ENDBRANCH  27  29
ENDBRANCH  26  27
ENDBRANCH  25  26
BRANCH  25  30
ATOM     30  C   UNL     1      -0.782  10.300  19.668  0.00  0.00    +0.000 C 
BRANCH  30  31
ATOM     31  C   UNL     1       0.310  10.321  20.746  0.00  0.00    +0.000 C 
BRANCH  31  32
ATOM     32  C   UNL     1       0.183   9.198  21.777  0.00  0.00    +0.000 C 
ATOM     33  C   UNL     1       1.280   8.166  21.541  0.00  0.00    +0.000 C 
ENDBRANCH  31  32
ENDBRANCH  30  31
ENDBRANCH  25  30
ENDBRANCH  21  25
ENDBRANCH   1  22
TORSDOF 9
ENDMDL
MODEL 8
REMARK VINA RESULT:      -7.8      1.068      1.208
REMARK  Name = 
REMARK  11 active torsions:
REMARK  status: ('A' for Active; 'I' for Inactive)
REMARK    1  A    between atoms: C_1  and  C_2
REMARK    2  A    between atoms: C_2  and  C_3
REMARK    3  A    between atoms: C_3  and  C_4
REMARK    4  A    between atoms: C_4  and  N_5
REMARK    5  A    between atoms: N_5  and  C_6
REMARK    6  A    between atoms: N_5  and  N_10
REMARK    7  A    between atoms: C_6  and  C_7
REMARK    8  A    between atoms: C_7  and  C_8
REMARK    9  A    between atoms: C_8  and  C_9
REMARK   10  A    between atoms: C_11  and  C_13
REMARK   11  A    between atoms: C_15  and  C_16
REMARK                            x       y       z     vdW  Elec       q    Type
REMARK                         _______ _______ _______ _____ _____    ______ ____
ROOT
ATOM      1  C   UNL     1       2.941   8.148  17.882  0.00  0.00    +0.000 A 
ATOM      2  C   UNL     1       2.456   6.941  18.362  0.00  0.00    +0.000 A 
ATOM      3  C   UNL     1       3.265   5.782  18.382  0.00  0.00    +0.000 A 
ATOM      4  C   UNL     1       4.606   5.935  17.892  0.00  0.00    +0.000 A 
ATOM      5  C   UNL     1       5.586   4.908  17.839  0.00  0.00    +0.000 A 
ATOM      6  C   UNL     1       6.895   5.130  17.411  0.00  0.00    +0.000 A 
ATOM      7  C   UNL     1       7.253   6.388  16.968  0.00  0.00    +0.000 A 
ATOM      8  C   UNL     1       6.304   7.409  16.969  0.00  0.00    +0.000 A 
ATOM      9  C   UNL     1       5.002   7.226  17.428  0.00  0.00    +0.000 A 
ATOM     10  N   UNL     1       4.200   8.306  17.409  0.00  0.00    +0.000 NA
ENDROOT
BRANCH   3  11
ATOM     11  C   UNL     1       2.676   4.453  18.949  0.00  0.00    +0.000 C 
ATOM     12  C   UNL     1       1.429   4.700  19.876  0.00  0.00    +0.000 C 
ATOM     13  C   UNL     1       0.861   3.400  20.465  0.00  0.00    +0.000 C 
ATOM     14  C   UNL     1       0.408   2.493  19.316  0.00  0.00    +0.000 C 
ATOM     15  C   UNL     1       1.598   2.192  18.397  0.00  0.00    +0.000 C 
ATOM     16  C   UNL     1       2.687   1.481  19.218  0.00  0.00    +0.000 C 
ATOM     17  C   UNL     1       3.144   2.376  20.382  0.00  0.00    +0.000 C 
ATOM     18  C   UNL     1       1.953   2.706  21.286  0.00  0.00    +0.000 C 
ATOM     19  C   UNL     1       3.722   3.688  19.822  0.00  0.00    +0.000 C 
ATOM     20  C   UNL     1       2.162   3.509  17.819  0.00  0.00    +0.000 C 
ENDBRANCH   3  11
BRANCH   1  22
ATOM     21  N   UNL     1       0.722   9.109  18.233  0.00  0.00    +0.000 N 
ATOM     22  C   UNL     1       2.034   9.359  17.870  0.00  0.00    +0.000 C 
ATOM     23  O   UNL     1       2.486  10.461  17.571  0.00  0.00    +0.000 OA
ATOM     24  H   UNL     1       0.467   8.150  18.466  0.00  0.00    +0.000 HD
BRANCH  21  25
ATOM     25  N   UNL     1      -0.251  10.162  18.319  0.00  0.00    +0.000 NA
BRANCH  25  26
ATOM     26  C   UNL     1      -1.285   9.988  17.282  0.00  0.00    +0.000 C 
BRANCH  26  27
ATOM     27  C   UNL     1      -2.725   9.693  17.738  0.00  0.00    +0.000 C 
BRANCH  27  29
ATOM     28  C   UNL     1      -4.096  11.669  18.439  0.00  0.00    +0.000 C 
ATOM     29  C   UNL     1      -3.785  10.703  17.297  0.00  0.00    +0.000 C 
ENDBRANCH  27  29
ENDBRANCH  26  27
ENDBRANCH  25  26
BRANCH  25  30
ATOM     30  C   UNL     1      -0.771  10.295  19.699  0.00  0.00    +0.000 C 
BRANCH  30  31
ATOM     31  C   UNL     1       0.281  10.740  20.725  0.00  0.00    +0.000 C 
BRANCH  31  32
ATOM     32  C   UNL     1       0.760   9.616  21.647  0.00  0.00    +0.000 C 
ATOM     33  C   UNL     1      -0.318   8.542  21.740  0.00  0.00    +0.000 C 
ENDBRANCH  31  32
ENDBRANCH  30  31
ENDBRANCH  25  30
ENDBRANCH  21  25
ENDBRANCH   1  22
TORSDOF 9
ENDMDL
MODEL 9
REMARK VINA RESULT:      -7.8      1.064      1.657
REMARK  Name = 
REMARK  11 active torsions:
REMARK  status: ('A' for Active; 'I' for Inactive)
REMARK    1  A    between atoms: C_1  and  C_2
REMARK    2  A    between atoms: C_2  and  C_3
REMARK    3  A    between atoms: C_3  and  C_4
REMARK    4  A    between atoms: C_4  and  N_5
REMARK    5  A    between atoms: N_5  and  C_6
REMARK    6  A    between atoms: N_5  and  N_10
REMARK    7  A    between atoms: C_6  and  C_7
REMARK    8  A    between atoms: C_7  and  C_8
REMARK    9  A    between atoms: C_8  and  C_9
REMARK   10  A    between atoms: C_11  and  C_13
REMARK   11  A    between atoms: C_15  and  C_16
REMARK                            x       y       z     vdW  Elec       q    Type
REMARK                         _______ _______ _______ _____ _____    ______ ____
ROOT
ATOM      1  C   UNL     1       2.976   8.185  17.858  0.00  0.00    +0.000 A 
ATOM      2  C   UNL     1       2.468   6.987  18.337  0.00  0.00    +0.000 A 
ATOM      3  C   UNL     1       3.271   5.826  18.403  0.00  0.00    +0.000 A 
ATOM      4  C   UNL     1       4.630   5.967  17.961  0.00  0.00    +0.000 A 
ATOM      5  C   UNL     1       5.607   4.935  17.958  0.00  0.00    +0.000 A 
ATOM      6  C   UNL     1       6.932   5.146  17.575  0.00  0.00    +0.000 A 
ATOM      7  C   UNL     1       7.311   6.396  17.129  0.00  0.00    +0.000 A 
ATOM      8  C   UNL     1       6.367   7.421  17.081  0.00  0.00    +0.000 A 
ATOM      9  C   UNL     1       5.048   7.249  17.494  0.00  0.00    +0.000 A 
ATOM     10  N   UNL     1       4.253   8.332  17.430  0.00  0.00    +0.000 NA
ENDROOT
BRANCH   3  11
ATOM     11  C   UNL     1       2.656   4.507  18.966  0.00  0.00    +0.000 C 
ATOM     12  C   UNL     1       3.693   3.675  19.806  0.00  0.00    +0.000 C 
ATOM     13  C   UNL     1       3.107   2.359  20.338  0.00  0.00    +0.000 C 
ATOM     14  C   UNL     1       1.923   2.681  21.257  0.00  0.00    +0.000 C 
ATOM     15  C   UNL     1       0.862   3.464  20.474  0.00  0.00    +0.000 C 
ATOM     16  C   UNL     1       0.382   2.601  19.296  0.00  0.00    +0.000 C 
ATOM     17  C   UNL     1       1.564   2.262  18.370  0.00  0.00    +0.000 C 
ATOM     18  C   UNL     1       2.640   1.507  19.154  0.00  0.00    +0.000 C 
ATOM     19  C   UNL     1       2.171   3.564  17.818  0.00  0.00    +0.000 C 
ATOM     20  C   UNL     1       1.469   4.780  19.941  0.00  0.00    +0.000 C 
ENDBRANCH   3  11
BRANCH   1  22
ATOM     21  N   UNL     1       0.754   9.164  18.133  0.00  0.00    +0.000 N 
ATOM     22  C   UNL     1       2.075   9.399  17.796  0.00  0.00    +0.000 C 
ATOM     23  O   UNL     1       2.540  10.492  17.482  0.00  0.00    +0.000 OA
ATOM     24  H   UNL     1       0.489   8.212  18.383  0.00  0.00    +0.000 HD
BRANCH  21  25
ATOM     25  N   UNL     1      -0.216  10.223  18.171  0.00  0.00    +0.000 NA
BRANCH  25  26
ATOM     26  C   UNL     1      -1.460   9.800  17.502  0.00  0.00    +0.000 C 
BRANCH  26  27
ATOM     27  C   UNL     1      -2.763  10.533  17.868  0.00  0.00    +0.000 C 
BRANCH  27  29
ATOM     28  C   UNL     1      -4.942  11.567  17.192  0.00  0.00    +0.000 C 
ATOM     29  C   UNL     1      -3.606  11.022  16.689  0.00  0.00    +0.000 C 
ENDBRANCH  27  29
ENDBRANCH  26  27
ENDBRANCH  25  26
BRANCH  25  30
ATOM     30  C   UNL     1      -0.393  10.733  19.550  0.00  0.00    +0.000 C 
BRANCH  30  31
ATOM     31  C   UNL     1      -0.197   9.672  20.641  0.00  0.00    +0.000 C 
BRANCH  31  32
ATOM     32  C   UNL     1      -0.583  10.148  22.043  0.00  0.00    +0.000 C 
ATOM     33  C   UNL     1       0.257   9.411  23.079  0.00  0.00    +0.000 C 
ENDBRANCH  31  32
ENDBRANCH  30  31
ENDBRANCH  25  30
ENDBRANCH  21  25
ENDBRANCH   1  22
TORSDOF 9
ENDMDL
