MODEL 1
REMARK VINA RESULT:      -8.7      0.000      0.000
REMARK  Name = 
REMARK  6 active torsions:
REMARK  status: ('A' for Active; 'I' for Inactive)
REMARK    1  A    between atoms: N_1  and  C_2
REMARK    2  A    between atoms: C_5  and  C_6
REMARK    3  A    between atoms: C_6  and  N_7
REMARK    4  A    between atoms: N_10  and  C_11
REMARK    5  A    between atoms: C_22  and  C_23
REMARK    6  A    between atoms: C_23  and  C_25
REMARK                            x       y       z     vdW  Elec       q    Type
REMARK                         _______ _______ _______ _____ _____    ______ ____
ROOT
ATOM      1  C   UNL     1       3.280   2.835  18.903  0.00  0.00    +0.000 A 
ATOM      2  S   UNL     1       1.588   2.850  19.132  0.00  0.00    +0.000 S 
ATOM      3  C   UNL     1       1.481   4.496  18.726  0.00  0.00    +0.000 A 
ATOM      4  C   UNL     1       2.689   5.035  18.311  0.00  0.00    +0.000 A 
ATOM      5  C   UNL     1       3.771   4.095  18.583  0.00  0.00    +0.000 A 
ENDROOT
BRANCH   1   6
ATOM      6  N   UNL     1       3.954   1.675  19.078  0.00  0.00    +0.000 N 
ATOM      7  H   UNL     1       3.451   0.861  19.419  0.00  0.00    +0.000 HD
ATOM      8  H   UNL     1       4.957   1.627  19.217  0.00  0.00    +0.000 HD
ENDBRANCH   1   6
BRANCH   5   9
ATOM      9  C   UNL     1       5.194   4.407  18.480  0.00  0.00    +0.000 C 
ATOM     10  O   UNL     1       5.899   4.556  19.476  0.00  0.00    +0.000 OA
BRANCH   9  11
ATOM     11  C   UNL     1       5.874   4.460  17.136  0.00  0.00    +0.000 A 
ATOM     12  C   UNL     1       7.112   5.098  16.926  0.00  0.00    +0.000 A 
ATOM     13  C   UNL     1       7.611   5.243  15.620  0.00  0.00    +0.000 A 
ATOM     14  C   UNL     1       6.882   4.755  14.536  0.00  0.00    +0.000 A 
ATOM     15 CL   UNL     1       7.426   5.042  12.936  0.00  0.00    +0.000 Cl
ATOM     16  C   UNL     1       5.684   4.070  14.742  0.00  0.00    +0.000 A 
ATOM     17  C   UNL     1       5.188   3.914  16.052  0.00  0.00    +0.000 A 
ENDBRANCH   9  11
ENDBRANCH   5   9
BRANCH   4  18
ATOM     18  C   UNL     1       2.808   6.435  17.717  0.00  0.00    +0.000 C 
BRANCH  18  19
ATOM     19  N   UNL     1       2.085   7.354  18.593  0.00  0.00    +0.000 NA
ATOM     20  C   UNL     1       2.049   8.754  18.124  0.00  0.00    +0.000 C 
ATOM     21  C   UNL     1       0.917   9.483  18.880  0.00  0.00    +0.000 C 
ATOM     22  N   UNL     1       1.204   9.452  20.327  0.00  0.00    +0.000 N 
ATOM     23  C   UNL     1       1.393   8.076  20.848  0.00  0.00    +0.000 C 
ATOM     24  C   UNL     1       2.479   7.340  20.013  0.00  0.00    +0.000 C 
BRANCH  22  25
ATOM     25  C   UNL     1       0.476  10.301  21.169  0.00  0.00    +0.000 A 
ATOM     26  C   UNL     1      -0.427   9.847  22.150  0.00  0.00    +0.000 A 
ATOM     27  F   UNL     1      -0.600   8.534  22.369  0.00  0.00    +0.000 F 
ATOM     28  C   UNL     1      -1.164  10.721  22.942  0.00  0.00    +0.000 A 
ATOM     29  C   UNL     1      -1.013  12.088  22.761  0.00  0.00    +0.000 A 
ATOM     30  F   UNL     1      -1.722  12.929  23.521  0.00  0.00    +0.000 F 
ATOM     31  C   UNL     1      -0.142  12.589  21.809  0.00  0.00    +0.000 A 
ATOM     32  C   UNL     1       0.592  11.700  21.030  0.00  0.00    +0.000 A 
ATOM     33  F   UNL     1       1.407  12.215  20.096  0.00  0.00    +0.000 F 
ENDBRANCH  22  25
ENDBRANCH  18  19
ENDBRANCH   4  18
TORSDOF 6
ENDMDL
MODEL 2
REMARK VINA RESULT:      -8.6      0.490      1.564
REMARK  Name = 
REMARK  6 active torsions:
REMARK  status: ('A' for Active; 'I' for Inactive)
REMARK    1  A    between atoms: N_1  and  C_2
REMARK    2  A    between atoms: C_5  and  C_6
REMARK    3  A    between atoms: C_6  and  N_7
REMARK    4  A    between atoms: N_10  and  C_11
REMARK    5  A    between atoms: C_22  and  C_23
REMARK    6  A    between atoms: C_23  and  C_25
REMARK                            x       y       z     vdW  Elec       q    Type
REMARK                         _______ _______ _______ _____ _____    ______ ____
ROOT
ATOM      1  C   UNL     1       3.900   3.003  19.646  0.00  0.00    +0.000 A 
ATOM      2  S   UNL     1       2.252   2.792  20.039  0.00  0.00    +0.000 S 
ATOM      3  C   UNL     1       1.828   4.287  19.353  0.00  0.00    +0.000 A 
ATOM      4  C   UNL     1       2.890   4.920  18.726  0.00  0.00    +0.000 A 
ATOM      5  C   UNL     1       4.137   4.237  19.054  0.00  0.00    +0.000 A 
ENDROOT
BRANCH   1   6
ATOM      6  N   UNL     1       4.778   2.023  19.960  0.00  0.00    +0.000 N 
ATOM      7  H   UNL     1       4.957   1.819  20.939  0.00  0.00    +0.000 HD
ATOM      8  H   UNL     1       5.508   1.705  19.333  0.00  0.00    +0.000 HD
ENDBRANCH   1   6
BRANCH   5   9
ATOM      9  C   UNL     1       5.472   4.747  18.752  0.00  0.00    +0.000 C 
ATOM     10  O   UNL     1       6.213   5.186  19.629  0.00  0.00    +0.000 OA
BRANCH   9  11
ATOM     11  C   UNL     1       6.031   4.659  17.354  0.00  0.00    +0.000 A 
ATOM     12  C   UNL     1       7.053   5.505  16.881  0.00  0.00    +0.000 A 
ATOM     13  C   UNL     1       7.415   5.470  15.524  0.00  0.00    +0.000 A 
ATOM     14  C   UNL     1       6.766   4.600  14.650  0.00  0.00    +0.000 A 
ATOM     15 CL   UNL     1       7.118   4.646  12.972  0.00  0.00    +0.000 Cl
ATOM     16  C   UNL     1       5.795   3.718  15.124  0.00  0.00    +0.000 A 
ATOM     17  C   UNL     1       5.438   3.743  16.487  0.00  0.00    +0.000 A 
ENDBRANCH   9  11
ENDBRANCH   5   9
BRANCH   4  18
ATOM     18  C   UNL     1       2.720   6.177  17.878  0.00  0.00    +0.000 C 
BRANCH  18  19
ATOM     19  N   UNL     1       2.017   7.169  18.688  0.00  0.00    +0.000 NA
ATOM     20  C   UNL     1       2.047   8.542  18.145  0.00  0.00    +0.000 C 
ATOM     21  C   UNL     1       0.930   9.355  18.836  0.00  0.00    +0.000 C 
ATOM     22  N   UNL     1       1.187   9.390  20.289  0.00  0.00    +0.000 N 
ATOM     23  C   UNL     1       1.310   8.037  20.886  0.00  0.00    +0.000 C 
ATOM     24  C   UNL     1       2.381   7.216  20.116  0.00  0.00    +0.000 C 
BRANCH  22  25
ATOM     25  C   UNL     1       0.477  10.311  21.069  0.00  0.00    +0.000 A 
ATOM     26  C   UNL     1       0.551  11.706  20.898  0.00  0.00    +0.000 A 
ATOM     27  F   UNL     1       1.289  12.238  19.911  0.00  0.00    +0.000 F 
ATOM     28  C   UNL     1      -0.138  12.592  21.718  0.00  0.00    +0.000 A 
ATOM     29  C   UNL     1      -0.924  12.091  22.746  0.00  0.00    +0.000 A 
ATOM     30  F   UNL     1      -1.586  12.943  23.536  0.00  0.00    +0.000 F 
ATOM     31  C   UNL     1      -1.030  10.728  22.962  0.00  0.00    +0.000 A 
ATOM     32  C   UNL     1      -0.338   9.856  22.127  0.00  0.00    +0.000 A 
ATOM     33  F   UNL     1      -0.439   8.541  22.379  0.00  0.00    +0.000 F 
ENDBRANCH  22  25
ENDBRANCH  18  19
ENDBRANCH   4  18
TORSDOF 6
ENDMDL
MODEL 3
REMARK VINA RESULT:      -8.5      1.820      2.130
REMARK  Name = 
REMARK  6 active torsions:
REMARK  status: ('A' for Active; 'I' for Inactive)
REMARK    1  A    between atoms: N_1  and  C_2
REMARK    2  A    between atoms: C_5  and  C_6
REMARK    3  A    between atoms: C_6  and  N_7
REMARK    4  A    between atoms: N_10  and  C_11
REMARK    5  A    between atoms: C_22  and  C_23
REMARK    6  A    between atoms: C_23  and  C_25
REMARK                            x       y       z     vdW  Elec       q    Type
REMARK                         _______ _______ _______ _____ _____    ______ ____
ROOT
ATOM      1  C   UNL     1       2.332   2.853  18.999  0.00  0.00    +0.000 A 
ATOM      2  S   UNL     1       0.782   3.331  19.531  0.00  0.00    +0.000 S 
ATOM      3  C   UNL     1       1.283   4.938  19.760  0.00  0.00    +0.000 A 
ATOM      4  C   UNL     1       2.585   5.168  19.344  0.00  0.00    +0.000 A 
ATOM      5  C   UNL     1       3.246   3.898  19.059  0.00  0.00    +0.000 A 
ENDROOT
BRANCH   1   6
ATOM      6  N   UNL     1       2.527   1.568  18.623  0.00  0.00    +0.000 N 
ATOM      7  H   UNL     1       3.087   0.963  19.216  0.00  0.00    +0.000 HD
ATOM      8  H   UNL     1       2.450   1.249  17.664  0.00  0.00    +0.000 HD
ENDBRANCH   1   6
BRANCH   5   9
ATOM      9  C   UNL     1       4.675   3.739  18.809  0.00  0.00    +0.000 C 
ATOM     10  O   UNL     1       5.412   3.152  19.600  0.00  0.00    +0.000 OA
BRANCH   9  11
ATOM     11  C   UNL     1       5.286   4.205  17.512  0.00  0.00    +0.000 A 
ATOM     12  C   UNL     1       4.605   4.155  16.280  0.00  0.00    +0.000 A 
ATOM     13  C   UNL     1       5.289   4.460  15.091  0.00  0.00    +0.000 A 
ATOM     14  C   UNL     1       6.637   4.812  15.131  0.00  0.00    +0.000 A 
ATOM     15 CL   UNL     1       7.505   5.061  13.674  0.00  0.00    +0.000 Cl
ATOM     16  C   UNL     1       7.302   4.922  16.353  0.00  0.00    +0.000 A 
ATOM     17  C   UNL     1       6.615   4.627  17.548  0.00  0.00    +0.000 A 
ENDBRANCH   9  11
ENDBRANCH   5   9
BRANCH   4  18
ATOM     18  C   UNL     1       3.196   6.563  19.272  0.00  0.00    +0.000 C 
BRANCH  18  19
ATOM     19  N   UNL     1       2.107   7.533  19.364  0.00  0.00    +0.000 NA
ATOM     20  C   UNL     1       2.238   8.697  18.465  0.00  0.00    +0.000 C 
ATOM     21  C   UNL     1       0.854   9.371  18.349  0.00  0.00    +0.000 C 
ATOM     22  N   UNL     1       0.422   9.822  19.686  0.00  0.00    +0.000 N 
ATOM     23  C   UNL     1       0.399   8.727  20.685  0.00  0.00    +0.000 C 
ATOM     24  C   UNL     1       1.780   8.014  20.719  0.00  0.00    +0.000 C 
BRANCH  22  25
ATOM     25  C   UNL     1      -0.653  10.715  19.772  0.00  0.00    +0.000 A 
ATOM     26  C   UNL     1      -1.705  10.769  18.837  0.00  0.00    +0.000 A 
ATOM     27  F   UNL     1      -1.759   9.903  17.813  0.00  0.00    +0.000 F 
ATOM     28  C   UNL     1      -2.737  11.696  18.934  0.00  0.00    +0.000 A 
ATOM     29  C   UNL     1      -2.733  12.606  19.981  0.00  0.00    +0.000 A 
ATOM     30  F   UNL     1      -3.723  13.500  20.073  0.00  0.00    +0.000 F 
ATOM     31  C   UNL     1      -1.721  12.601  20.926  0.00  0.00    +0.000 A 
ATOM     32  C   UNL     1      -0.701  11.661  20.818  0.00  0.00    +0.000 A 
ATOM     33  F   UNL     1       0.281  11.698  21.733  0.00  0.00    +0.000 F 
ENDBRANCH  22  25
ENDBRANCH  18  19
ENDBRANCH   4  18
TORSDOF 6
ENDMDL
MODEL 4
REMARK VINA RESULT:      -8.5      0.255      1.736
REMARK  Name = 
REMARK  6 active torsions:
REMARK  status: ('A' for Active; 'I' for Inactive)
REMARK    1  A    between atoms: N_1  and  C_2
REMARK    2  A    between atoms: C_5  and  C_6
REMARK    3  A    between atoms: C_6  and  N_7
REMARK    4  A    between atoms: N_10  and  C_11
REMARK    5  A    between atoms: C_22  and  C_23
REMARK    6  A    between atoms: C_23  and  C_25
REMARK                            x       y       z     vdW  Elec       q    Type
REMARK                         _______ _______ _______ _____ _____    ______ ____
ROOT
ATOM      1  C   UNL     1       3.149   2.734  18.756  0.00  0.00    +0.000 A 
ATOM      2  S   UNL     1       1.485   2.870  19.113  0.00  0.00    +0.000 S 
ATOM      3  C   UNL     1       1.475   4.529  18.747  0.00  0.00    +0.000 A 
ATOM      4  C   UNL     1       2.686   4.986  18.252  0.00  0.00    +0.000 A 
ATOM      5  C   UNL     1       3.710   3.961  18.424  0.00  0.00    +0.000 A 
ENDROOT
BRANCH   1   6
ATOM      6  N   UNL     1       3.743   1.523  18.857  0.00  0.00    +0.000 N 
ATOM      7  H   UNL     1       4.536   1.313  18.258  0.00  0.00    +0.000 HD
ATOM      8  H   UNL     1       3.279   0.702  19.228  0.00  0.00    +0.000 HD
ENDBRANCH   1   6
BRANCH   5   9
ATOM      9  C   UNL     1       5.141   4.169  18.219  0.00  0.00    +0.000 C 
ATOM     10  O   UNL     1       5.956   4.013  19.126  0.00  0.00    +0.000 OA
BRANCH   9  11
ATOM     11  C   UNL     1       5.684   4.487  16.849  0.00  0.00    +0.000 A 
ATOM     12  C   UNL     1       5.183   3.904  15.669  0.00  0.00    +0.000 A 
ATOM     13  C   UNL     1       5.838   4.128  14.446  0.00  0.00    +0.000 A 
ATOM     14  C   UNL     1       6.980   4.926  14.402  0.00  0.00    +0.000 A 
ATOM     15 CL   UNL     1       7.852   5.098  12.936  0.00  0.00    +0.000 Cl
ATOM     16  C   UNL     1       7.447   5.555  15.557  0.00  0.00    +0.000 A 
ATOM     17  C   UNL     1       6.785   5.341  16.782  0.00  0.00    +0.000 A 
ENDBRANCH   9  11
ENDBRANCH   5   9
BRANCH   4  18
ATOM     18  C   UNL     1       2.868   6.388  17.677  0.00  0.00    +0.000 C 
BRANCH  18  19
ATOM     19  N   UNL     1       2.127   7.317  18.526  0.00  0.00    +0.000 NA
ATOM     20  C   UNL     1       2.106   8.713  18.043  0.00  0.00    +0.000 C 
ATOM     21  C   UNL     1       0.959   9.453  18.764  0.00  0.00    +0.000 C 
ATOM     22  N   UNL     1       1.211   9.435  20.217  0.00  0.00    +0.000 N 
ATOM     23  C   UNL     1       1.382   8.063  20.757  0.00  0.00    +0.000 C 
ATOM     24  C   UNL     1       2.486   7.316  19.956  0.00  0.00    +0.000 C 
BRANCH  22  25
ATOM     25  C   UNL     1       0.464  10.294  21.034  0.00  0.00    +0.000 A 
ATOM     26  C   UNL     1       0.551  11.699  20.980  0.00  0.00    +0.000 A 
ATOM     27  F   UNL     1       1.340  12.304  20.078  0.00  0.00    +0.000 F 
ATOM     28  C   UNL     1      -0.176  12.520  21.834  0.00  0.00    +0.000 A 
ATOM     29  C   UNL     1      -1.014  11.942  22.777  0.00  0.00    +0.000 A 
ATOM     30  F   UNL     1      -1.712  12.732  23.600  0.00  0.00    +0.000 F 
ATOM     31  C   UNL     1      -1.134  10.567  22.876  0.00  0.00    +0.000 A 
ATOM     32  C   UNL     1      -0.405   9.761  22.008  0.00  0.00    +0.000 A 
ATOM     33  F   UNL     1      -0.521   8.430  22.147  0.00  0.00    +0.000 F 
ENDBRANCH  22  25
ENDBRANCH  18  19
ENDBRANCH   4  18
TORSDOF 6
ENDMDL
MODEL 5
REMARK VINA RESULT:      -8.5      5.318     10.072
REMARK  Name = 
REMARK  6 active torsions:
REMARK  status: ('A' for Active; 'I' for Inactive)
REMARK    1  A    between atoms: N_1  and  C_2
REMARK    2  A    between atoms: C_5  and  C_6
REMARK    3  A    between atoms: C_6  and  N_7
REMARK    4  A    between atoms: N_10  and  C_11
REMARK    5  A    between atoms: C_22  and  C_23
REMARK    6  A    between atoms: C_23  and  C_25
REMARK                            x       y       z     vdW  Elec       q    Type
REMARK                         _______ _______ _______ _____ _____    ______ ____
ROOT
ATOM      1  C   UNL     1      -2.703  11.314  18.051  0.00  0.00    +0.000 A 
ATOM      2  S   UNL     1      -2.365  10.015  16.996  0.00  0.00    +0.000 S 
ATOM      3  C   UNL     1      -0.813   9.800  17.651  0.00  0.00    +0.000 A 
ATOM      4  C   UNL     1      -0.560  10.624  18.737  0.00  0.00    +0.000 A 
ATOM      5  C   UNL     1      -1.613  11.627  18.854  0.00  0.00    +0.000 A 
ENDROOT
BRANCH   1   6
ATOM      6  N   UNL     1      -3.916  11.909  17.989  0.00  0.00    +0.000 N 
ATOM      7  H   UNL     1      -3.982  12.909  18.155  0.00  0.00    +0.000 HD
ATOM      8  H   UNL     1      -4.790  11.412  18.119  0.00  0.00    +0.000 HD
ENDBRANCH   1   6
BRANCH   5   9
ATOM      9  C   UNL     1      -1.566  12.787  19.740  0.00  0.00    +0.000 C 
ATOM     10  O   UNL     1      -1.065  13.853  19.388  0.00  0.00    +0.000 OA
BRANCH   9  11
ATOM     11  C   UNL     1      -2.227  12.747  21.095  0.00  0.00    +0.000 A 
ATOM     12  C   UNL     1      -1.690  12.046  22.191  0.00  0.00    +0.000 A 
ATOM     13  C   UNL     1      -2.436  11.923  23.376  0.00  0.00    +0.000 A 
ATOM     14  C   UNL     1      -3.704  12.495  23.464  0.00  0.00    +0.000 A 
ATOM     15 CL   UNL     1      -4.666  12.240  24.860  0.00  0.00    +0.000 Cl
ATOM     16  C   UNL     1      -4.217  13.242  22.403  0.00  0.00    +0.000 A 
ATOM     17  C   UNL     1      -3.465  13.376  21.218  0.00  0.00    +0.000 A 
ENDBRANCH   9  11
ENDBRANCH   5   9
BRANCH   4  18
ATOM     18  C   UNL     1       0.685  10.485  19.608  0.00  0.00    +0.000 C 
BRANCH  18  19
ATOM     19  N   UNL     1       1.138   9.099  19.521  0.00  0.00    +0.000 NA
ATOM     20  C   UNL     1       1.489   8.481  20.816  0.00  0.00    +0.000 C 
ATOM     21  C   UNL     1       1.511   6.949  20.626  0.00  0.00    +0.000 C 
ATOM     22  N   UNL     1       2.532   6.603  19.618  0.00  0.00    +0.000 N 
ATOM     23  C   UNL     1       2.325   7.297  18.324  0.00  0.00    +0.000 C 
ATOM     24  C   UNL     1       2.223   8.831  18.559  0.00  0.00    +0.000 C 
BRANCH  22  25
ATOM     25  C   UNL     1       2.929   5.264  19.506  0.00  0.00    +0.000 A 
ATOM     26  C   UNL     1       4.248   4.859  19.221  0.00  0.00    +0.000 A 
ATOM     27  F   UNL     1       5.231   5.763  19.091  0.00  0.00    +0.000 F 
ATOM     28  C   UNL     1       4.598   3.521  19.077  0.00  0.00    +0.000 A 
ATOM     29  C   UNL     1       3.618   2.547  19.213  0.00  0.00    +0.000 A 
ATOM     30  F   UNL     1       3.954   1.261  19.072  0.00  0.00    +0.000 F 
ATOM     31  C   UNL     1       2.306   2.890  19.489  0.00  0.00    +0.000 A 
ATOM     32  C   UNL     1       1.976   4.234  19.637  0.00  0.00    +0.000 A 
ATOM     33  F   UNL     1       0.690   4.536  19.876  0.00  0.00    +0.000 F 
ENDBRANCH  22  25
ENDBRANCH  18  19
ENDBRANCH   4  18
TORSDOF 6
ENDMDL
MODEL 6
REMARK VINA RESULT:      -8.5      5.357     10.023
REMARK  Name = 
REMARK  6 active torsions:
REMARK  status: ('A' for Active; 'I' for Inactive)
REMARK    1  A    between atoms: N_1  and  C_2
REMARK    2  A    between atoms: C_5  and  C_6
REMARK    3  A    between atoms: C_6  and  N_7
REMARK    4  A    between atoms: N_10  and  C_11
REMARK    5  A    between atoms: C_22  and  C_23
REMARK    6  A    between atoms: C_23  and  C_25
REMARK                            x       y       z     vdW  Elec       q    Type
REMARK                         _______ _______ _______ _____ _____    ______ ____
ROOT
ATOM      1  C   UNL     1      -2.654  11.243  17.933  0.00  0.00    +0.000 A 
ATOM      2  S   UNL     1      -2.212  10.025  16.820  0.00  0.00    +0.000 S 
ATOM      3  C   UNL     1      -0.698   9.807  17.560  0.00  0.00    +0.000 A 
ATOM      4  C   UNL     1      -0.539  10.563  18.710  0.00  0.00    +0.000 A 
ATOM      5  C   UNL     1      -1.626  11.529  18.823  0.00  0.00    +0.000 A 
ENDROOT
BRANCH   1   6
ATOM      6  N   UNL     1      -3.878  11.809  17.831  0.00  0.00    +0.000 N 
ATOM      7  H   UNL     1      -4.520  11.735  18.614  0.00  0.00    +0.000 HD
ATOM      8  H   UNL     1      -4.329  12.007  16.945  0.00  0.00    +0.000 HD
ENDBRANCH   1   6
BRANCH   5   9
ATOM      9  C   UNL     1      -1.670  12.628  19.783  0.00  0.00    +0.000 C 
ATOM     10  O   UNL     1      -1.149  13.717  19.548  0.00  0.00    +0.000 OA
BRANCH   9  11
ATOM     11  C   UNL     1      -2.449  12.497  21.068  0.00  0.00    +0.000 A 
ATOM     12  C   UNL     1      -3.769  12.965  21.217  0.00  0.00    +0.000 A 
ATOM     13  C   UNL     1      -4.376  12.949  22.484  0.00  0.00    +0.000 A 
ATOM     14  C   UNL     1      -3.674  12.472  23.589  0.00  0.00    +0.000 A 
ATOM     15 CL   UNL     1      -4.366  12.569  25.155  0.00  0.00    +0.000 Cl
ATOM     16  C   UNL     1      -2.388  11.952  23.438  0.00  0.00    +0.000 A 
ATOM     17  C   UNL     1      -1.781  11.956  22.165  0.00  0.00    +0.000 A 
ENDBRANCH   9  11
ENDBRANCH   5   9
BRANCH   4  18
ATOM     18  C   UNL     1       0.653  10.399  19.649  0.00  0.00    +0.000 C 
BRANCH  18  19
ATOM     19  N   UNL     1       1.106   9.013  19.556  0.00  0.00    +0.000 NA
ATOM     20  C   UNL     1       1.460   8.391  20.848  0.00  0.00    +0.000 C 
ATOM     21  C   UNL     1       1.483   6.859  20.652  0.00  0.00    +0.000 C 
ATOM     22  N   UNL     1       2.502   6.517  19.640  0.00  0.00    +0.000 N 
ATOM     23  C   UNL     1       2.291   7.216  18.349  0.00  0.00    +0.000 C 
ATOM     24  C   UNL     1       2.189   8.749  18.591  0.00  0.00    +0.000 C 
BRANCH  22  25
ATOM     25  C   UNL     1       2.900   5.180  19.522  0.00  0.00    +0.000 A 
ATOM     26  C   UNL     1       2.019   4.086  19.632  0.00  0.00    +0.000 A 
ATOM     27  F   UNL     1       0.703   4.280  19.808  0.00  0.00    +0.000 F 
ATOM     28  C   UNL     1       2.457   2.769  19.549  0.00  0.00    +0.000 A 
ATOM     29  C   UNL     1       3.808   2.516  19.356  0.00  0.00    +0.000 A 
ATOM     30  F   UNL     1       4.230   1.250  19.278  0.00  0.00    +0.000 F 
ATOM     31  C   UNL     1       4.718   3.553  19.246  0.00  0.00    +0.000 A 
ATOM     32  C   UNL     1       4.261   4.865  19.324  0.00  0.00    +0.000 A 
ATOM     33  F   UNL     1       5.171   5.849  19.241  0.00  0.00    +0.000 F 
ENDBRANCH  22  25
ENDBRANCH  18  19
ENDBRANCH   4  18
TORSDOF 6
ENDMDL
MODEL 7
REMARK VINA RESULT:      -8.4      1.849      2.052
REMARK  Name = 
REMARK  6 active torsions:
REMARK  status: ('A' for Active; 'I' for Inactive)
REMARK    1  A    between atoms: N_1  and  C_2
REMARK    2  A    between atoms: C_5  and  C_6
REMARK    3  A    between atoms: C_6  and  N_7
REMARK    4  A    between atoms: N_10  and  C_11
REMARK    5  A    between atoms: C_22  and  C_23
REMARK    6  A    between atoms: C_23  and  C_25
REMARK                            x       y       z     vdW  Elec       q    Type
REMARK                         _______ _______ _______ _____ _____    ______ ____
ROOT
ATOM      1  C   UNL     1       2.690   3.006  18.284  0.00  0.00    +0.000 A 
ATOM      2  S   UNL     1       1.067   3.421  18.612  0.00  0.00    +0.000 S 
ATOM      3  C   UNL     1       1.467   5.049  18.883  0.00  0.00    +0.000 A 
ATOM      4  C   UNL     1       2.800   5.333  18.630  0.00  0.00    +0.000 A 
ATOM      5  C   UNL     1       3.544   4.091  18.446  0.00  0.00    +0.000 A 
ENDROOT
BRANCH   1   6
ATOM      6  N   UNL     1       2.985   1.729  17.952  0.00  0.00    +0.000 N 
ATOM      7  H   UNL     1       3.772   1.273  18.404  0.00  0.00    +0.000 HD
ATOM      8  H   UNL     1       2.712   1.303  17.074  0.00  0.00    +0.000 HD
ENDBRANCH   1   6
BRANCH   5   9
ATOM      9  C   UNL     1       5.000   3.992  18.378  0.00  0.00    +0.000 C 
ATOM     10  O   UNL     1       5.675   3.681  19.357  0.00  0.00    +0.000 OA
BRANCH   9  11
ATOM     11  C   UNL     1       5.723   4.172  17.067  0.00  0.00    +0.000 A 
ATOM     12  C   UNL     1       7.073   4.564  16.983  0.00  0.00    +0.000 A 
ATOM     13  C   UNL     1       7.636   4.863  15.730  0.00  0.00    +0.000 A 
ATOM     14  C   UNL     1       6.861   4.769  14.576  0.00  0.00    +0.000 A 
ATOM     15 CL   UNL     1       7.508   5.253  13.064  0.00  0.00    +0.000 Cl
ATOM     16  C   UNL     1       5.540   4.323  14.647  0.00  0.00    +0.000 A 
ATOM     17  C   UNL     1       4.977   4.013  15.901  0.00  0.00    +0.000 A 
ENDBRANCH   9  11
ENDBRANCH   5   9
BRANCH   4  18
ATOM     18  C   UNL     1       3.356   6.753  18.618  0.00  0.00    +0.000 C 
BRANCH  18  19
ATOM     19  N   UNL     1       2.234   7.673  18.790  0.00  0.00    +0.000 NA
ATOM     20  C   UNL     1       2.278   8.870  17.927  0.00  0.00    +0.000 C 
ATOM     21  C   UNL     1       0.864   9.490  17.894  0.00  0.00    +0.000 C 
ATOM     22  N   UNL     1       0.475   9.879  19.263  0.00  0.00    +0.000 N 
ATOM     23  C   UNL     1       0.540   8.751  20.224  0.00  0.00    +0.000 C 
ATOM     24  C   UNL     1       1.950   8.096  20.173  0.00  0.00    +0.000 C 
BRANCH  22  25
ATOM     25  C   UNL     1      -0.631  10.723  19.426  0.00  0.00    +0.000 A 
ATOM     26  C   UNL     1      -0.752  11.663  20.468  0.00  0.00    +0.000 A 
ATOM     27  F   UNL     1       0.242  11.841  21.352  0.00  0.00    +0.000 F 
ATOM     28  C   UNL     1      -1.883  12.457  20.622  0.00  0.00    +0.000 A 
ATOM     29  C   UNL     1      -2.934  12.319  19.726  0.00  0.00    +0.000 A 
ATOM     30  F   UNL     1      -4.023  13.081  19.875  0.00  0.00    +0.000 F 
ATOM     31  C   UNL     1      -2.869  11.407  18.687  0.00  0.00    +0.000 A 
ATOM     32  C   UNL     1      -1.726  10.626  18.544  0.00  0.00    +0.000 A 
ATOM     33  F   UNL     1      -1.704   9.731  17.543  0.00  0.00    +0.000 F 
ENDBRANCH  22  25
ENDBRANCH  18  19
ENDBRANCH   4  18
TORSDOF 6
ENDMDL
MODEL 8
REMARK VINA RESULT:      -8.3      5.026      9.168
REMARK  Name = 
REMARK  6 active torsions:
REMARK  status: ('A' for Active; 'I' for Inactive)
REMARK    1  A    between atoms: N_1  and  C_2
REMARK    2  A    between atoms: C_5  and  C_6
REMARK    3  A    between atoms: C_6  and  N_7
REMARK    4  A    between atoms: N_10  and  C_11
REMARK    5  A    between atoms: C_22  and  C_23
REMARK    6  A    between atoms: C_23  and  C_25
REMARK                            x       y       z     vdW  Elec       q    Type
REMARK                         _______ _______ _______ _____ _____    ______ ____
ROOT
ATOM      1  C   UNL     1      -0.012  13.236  19.053  0.00  0.00    +0.000 A 
ATOM      2  S   UNL     1       1.586  13.369  19.641  0.00  0.00    +0.000 S 
ATOM      3  C   UNL     1       1.425  11.969  20.590  0.00  0.00    +0.000 A 
ATOM      4  C   UNL     1       0.214  11.320  20.403  0.00  0.00    +0.000 A 
ATOM      5  C   UNL     1      -0.688  12.166  19.629  0.00  0.00    +0.000 A 
ENDROOT
BRANCH   1   6
ATOM      6  N   UNL     1      -0.459  14.148  18.162  0.00  0.00    +0.000 N 
ATOM      7  H   UNL     1      -0.611  15.104  18.470  0.00  0.00    +0.000 HD
ATOM      8  H   UNL     1      -0.964  13.903  17.317  0.00  0.00    +0.000 HD
ENDBRANCH   1   6
BRANCH   5   9
ATOM      9  C   UNL     1      -2.110  11.904  19.427  0.00  0.00    +0.000 C 
ATOM     10  O   UNL     1      -2.959  12.267  20.239  0.00  0.00    +0.000 OA
BRANCH   9  11
ATOM     11  C   UNL     1      -2.601  11.262  18.153  0.00  0.00    +0.000 A 
ATOM     12  C   UNL     1      -1.832  10.347  17.409  0.00  0.00    +0.000 A 
ATOM     13  C   UNL     1      -2.289   9.909  16.154  0.00  0.00    +0.000 A 
ATOM     14  C   UNL     1      -3.501  10.379  15.650  0.00  0.00    +0.000 A 
ATOM     15 CL   UNL     1      -3.999   9.945  14.068  0.00  0.00    +0.000 Cl
ATOM     16  C   UNL     1      -4.295  11.239  16.409  0.00  0.00    +0.000 A 
ATOM     17  C   UNL     1      -3.844  11.671  17.672  0.00  0.00    +0.000 A 
ENDBRANCH   9  11
ENDBRANCH   5   9
BRANCH   4  18
ATOM     18  C   UNL     1      -0.088   9.947  20.996  0.00  0.00    +0.000 C 
BRANCH  18  19
ATOM     19  N   UNL     1       0.643   8.953  20.213  0.00  0.00    +0.000 NA
ATOM     20  C   UNL     1       1.603   8.141  20.988  0.00  0.00    +0.000 C 
ATOM     21  C   UNL     1       1.949   6.887  20.157  0.00  0.00    +0.000 C 
ATOM     22  N   UNL     1       2.566   7.306  18.884  0.00  0.00    +0.000 N 
ATOM     23  C   UNL     1       1.714   8.239  18.108  0.00  0.00    +0.000 C 
ATOM     24  C   UNL     1       1.313   9.450  18.998  0.00  0.00    +0.000 C 
BRANCH  22  25
ATOM     25  C   UNL     1       3.225   6.339  18.113  0.00  0.00    +0.000 A 
ATOM     26  C   UNL     1       2.758   5.022  17.941  0.00  0.00    +0.000 A 
ATOM     27  F   UNL     1       1.594   4.630  18.481  0.00  0.00    +0.000 F 
ATOM     28  C   UNL     1       3.460   4.077  17.201  0.00  0.00    +0.000 A 
ATOM     29  C   UNL     1       4.665   4.436  16.613  0.00  0.00    +0.000 A 
ATOM     30  F   UNL     1       5.341   3.528  15.903  0.00  0.00    +0.000 F 
ATOM     31  C   UNL     1       5.172   5.716  16.754  0.00  0.00    +0.000 A 
ATOM     32  C   UNL     1       4.452   6.651  17.492  0.00  0.00    +0.000 A 
ATOM     33  F   UNL     1       4.983   7.876  17.634  0.00  0.00    +0.000 F 
ENDBRANCH  22  25
ENDBRANCH  18  19
ENDBRANCH   4  18
TORSDOF 6
ENDMDL
MODEL 9
REMARK VINA RESULT:      -8.3      5.399     10.252
REMARK  Name = 
REMARK  6 active torsions:
REMARK  status: ('A' for Active; 'I' for Inactive)
REMARK    1  A    between atoms: N_1  and  C_2
REMARK    2  A    between atoms: C_5  and  C_6
REMARK    3  A    between atoms: C_6  and  N_7
REMARK    4  A    between atoms: N_10  and  C_11
REMARK    5  A    between atoms: C_22  and  C_23
REMARK    6  A    between atoms: C_23  and  C_25
REMARK                            x       y       z     vdW  Elec       q    Type
REMARK                         _______ _______ _______ _____ _____    ______ ____
ROOT
ATOM      1  C   UNL     1      -2.948  11.485  18.145  0.00  0.00    +0.000 A 
ATOM      2  S   UNL     1      -2.698  10.182  17.071  0.00  0.00    +0.000 S 
ATOM      3  C   UNL     1      -1.194   9.811  17.766  0.00  0.00    +0.000 A 
ATOM      4  C   UNL     1      -0.900  10.585  18.877  0.00  0.00    +0.000 A 
ATOM      5  C   UNL     1      -1.859  11.679  18.986  0.00  0.00    +0.000 A 
ENDROOT
BRANCH   1   6
ATOM      6  N   UNL     1      -4.099  12.191  18.061  0.00  0.00    +0.000 N 
ATOM      7  H   UNL     1      -4.973  11.691  17.928  0.00  0.00    +0.000 HD
ATOM      8  H   UNL     1      -4.137  13.167  17.790  0.00  0.00    +0.000 HD
ENDBRANCH   1   6
BRANCH   5   9
ATOM      9  C   UNL     1      -1.734  12.811  19.900  0.00  0.00    +0.000 C 
ATOM     10  O   UNL     1      -1.174  13.854  19.568  0.00  0.00    +0.000 OA
BRANCH   9  11
ATOM     11  C   UNL     1      -2.381  12.776  21.262  0.00  0.00    +0.000 A 
ATOM     12  C   UNL     1      -1.841  12.063  22.350  0.00  0.00    +0.000 A 
ATOM     13  C   UNL     1      -2.577  11.947  23.542  0.00  0.00    +0.000 A 
ATOM     14  C   UNL     1      -3.835  12.537  23.646  0.00  0.00    +0.000 A 
ATOM     15 CL   UNL     1      -4.786  12.290  25.052  0.00  0.00    +0.000 Cl
ATOM     16  C   UNL     1      -4.349  13.294  22.593  0.00  0.00    +0.000 A 
ATOM     17  C   UNL     1      -3.608  13.421  21.401  0.00  0.00    +0.000 A 
ENDBRANCH   9  11
ENDBRANCH   5   9
BRANCH   4  18
ATOM     18  C   UNL     1       0.299  10.314  19.780  0.00  0.00    +0.000 C 
BRANCH  18  19
ATOM     19  N   UNL     1       1.059   9.213  19.194  0.00  0.00    +0.000 NA
ATOM     20  C   UNL     1       1.748   8.347  20.172  0.00  0.00    +0.000 C 
ATOM     21  C   UNL     1       2.116   7.024  19.467  0.00  0.00    +0.000 C 
ATOM     22  N   UNL     1       3.021   7.315  18.338  0.00  0.00    +0.000 N 
ATOM     23  C   UNL     1       2.451   8.291  17.377  0.00  0.00    +0.000 C 
ATOM     24  C   UNL     1       2.014   9.578  18.131  0.00  0.00    +0.000 C 
BRANCH  22  25
ATOM     25  C   UNL     1       3.713   6.249  17.748  0.00  0.00    +0.000 A 
ATOM     26  C   UNL     1       3.165   4.965  17.563  0.00  0.00    +0.000 A 
ATOM     27  F   UNL     1       1.894   4.705  17.906  0.00  0.00    +0.000 F 
ATOM     28  C   UNL     1       3.896   3.920  17.009  0.00  0.00    +0.000 A 
ATOM     29  C   UNL     1       5.212   4.142  16.628  0.00  0.00    +0.000 A 
ATOM     30  F   UNL     1       5.915   3.136  16.097  0.00  0.00    +0.000 F 
ATOM     31  C   UNL     1       5.801   5.383  16.791  0.00  0.00    +0.000 A 
ATOM     32  C   UNL     1       5.052   6.420  17.340  0.00  0.00    +0.000 A 
ATOM     33  F   UNL     1       5.659   7.605  17.511  0.00  0.00    +0.000 F 
ENDBRANCH  22  25
ENDBRANCH  18  19
ENDBRANCH   4  18
TORSDOF 6
ENDMDL
