MODEL 1
REMARK VINA RESULT:      -7.0      0.000      0.000
REMARK  Name = 
REMARK  9 active torsions:
REMARK  status: ('A' for Active; 'I' for Inactive)
REMARK    1  A    between atoms: C_1  and  O_2
REMARK    2  A    between atoms: O_2  and  C_3
REMARK    3  A    between atoms: C_6  and  N_7
REMARK    4  A    between atoms: N_10  and  C_11
REMARK    5  A    between atoms: C_11  and  C_12
REMARK    6  A    between atoms: C_14  and  C_15
REMARK    7  A    between atoms: C_15  and  S_16
REMARK    8  A    between atoms: S_16  and  C_17
REMARK    9  A    between atoms: C_20  and  C_21
REMARK                            x       y       z     vdW  Elec       q    Type
REMARK                         _______ _______ _______ _____ _____    ______ ____
ROOT
ATOM      1  N   UNL     1       3.193   6.649  18.625  0.00  0.00    +0.000 N 
ATOM      2  C   UNL     1       4.287   6.869  17.674  0.00  0.00    +0.000 C 
ATOM      3  C   UNL     1       5.529   6.016  17.972  0.00  0.00    +0.000 C 
ATOM      4  N   UNL     1       5.233   4.592  18.215  0.00  0.00    +0.000 NA
ATOM      5  C   UNL     1       4.260   4.525  19.342  0.00  0.00    +0.000 C 
ATOM      6  C   UNL     1       3.924   3.103  19.802  0.00  0.00    +0.000 C 
ATOM      7  C   UNL     1       2.970   5.343  19.089  0.00  0.00    +0.000 C 
ATOM      8  O   UNL     1       1.860   4.887  19.382  0.00  0.00    +0.000 OA
ENDROOT
BRANCH   1  12
ATOM      9  C   UNL     1       0.558   9.889  19.484  0.00  0.00    +0.000 A 
ATOM     10  C   UNL     1       0.976   9.028  20.491  0.00  0.00    +0.000 A 
ATOM     11  C   UNL     1       1.820   7.950  20.198  0.00  0.00    +0.000 A 
ATOM     12  C   UNL     1       2.254   7.699  18.889  0.00  0.00    +0.000 A 
ATOM     13  C   UNL     1       1.805   8.565  17.881  0.00  0.00    +0.000 A 
ATOM     14  C   UNL     1       0.961   9.646  18.174  0.00  0.00    +0.000 A 
BRANCH   9  16
ATOM     15  C   UNL     1       0.131  11.572  21.086  0.00  0.00    +0.000 C 
ATOM     16  O   UNL     1      -0.258  10.906  19.890  0.00  0.00    +0.000 OA
ENDBRANCH   9  16
ENDBRANCH   1  12
BRANCH   4  17
ATOM     17  C   UNL     1       4.766   3.879  17.006  0.00  0.00    +0.000 C 
BRANCH  17  18
ATOM     18  C   UNL     1       5.580   4.132  15.771  0.00  0.00    +0.000 A 
ATOM     19  N   UNL     1       5.251   3.964  14.508  0.00  0.00    +0.000 NA
ATOM     20  C   UNL     1       6.448   4.178  13.863  0.00  0.00    +0.000 A 
ATOM     21  N   UNL     1       7.469   4.498  14.673  0.00  0.00    +0.000 NA
ATOM     22  O   UNL     1       6.891   4.478  15.946  0.00  0.00    +0.000 OA
BRANCH  20  23
ATOM     23  C   UNL     1       6.635   3.898  12.413  0.00  0.00    +0.000 C 
BRANCH  23  24
ATOM     24  S   UNL     1       5.263   2.986  11.636  0.00  0.00    +0.000 S 
ATOM     25  C   UNL     1       6.108   1.430  11.262  0.00  0.00    +0.000 C 
ENDBRANCH  23  24
ENDBRANCH  20  23
ENDBRANCH  17  18
ENDBRANCH   4  17
TORSDOF 6
ENDMDL
MODEL 2
REMARK VINA RESULT:      -7.0      3.110      4.272
REMARK  Name = 
REMARK  9 active torsions:
REMARK  status: ('A' for Active; 'I' for Inactive)
REMARK    1  A    between atoms: C_1  and  O_2
REMARK    2  A    between atoms: O_2  and  C_3
REMARK    3  A    between atoms: C_6  and  N_7
REMARK    4  A    between atoms: N_10  and  C_11
REMARK    5  A    between atoms: C_11  and  C_12
REMARK    6  A    between atoms: C_14  and  C_15
REMARK    7  A    between atoms: C_15  and  S_16
REMARK    8  A    between atoms: S_16  and  C_17
REMARK    9  A    between atoms: C_20  and  C_21
REMARK                            x       y       z     vdW  Elec       q    Type
REMARK                         _______ _______ _______ _____ _____    ______ ____
ROOT
ATOM      1  N   UNL     1       4.618   5.303  18.122  0.00  0.00    +0.000 N 
ATOM      2  C   UNL     1       4.378   5.310  16.676  0.00  0.00    +0.000 C 
ATOM      3  C   UNL     1       5.140   6.421  15.941  0.00  0.00    +0.000 C 
ATOM      4  N   UNL     1       6.567   6.509  16.302  0.00  0.00    +0.000 NA
ATOM      5  C   UNL     1       6.640   6.702  17.779  0.00  0.00    +0.000 C 
ATOM      6  C   UNL     1       8.058   6.924  18.316  0.00  0.00    +0.000 C 
ATOM      7  C   UNL     1       5.913   5.595  18.580  0.00  0.00    +0.000 C 
ATOM      8  O   UNL     1       6.420   5.107  19.595  0.00  0.00    +0.000 OA
ENDROOT
BRANCH   1  12
ATOM      9  C   UNL     1       1.787   3.753  20.908  0.00  0.00    +0.000 A 
ATOM     10  C   UNL     1       2.547   2.899  20.118  0.00  0.00    +0.000 A 
ATOM     11  C   UNL     1       3.456   3.414  19.187  0.00  0.00    +0.000 A 
ATOM     12  C   UNL     1       3.615   4.796  19.011  0.00  0.00    +0.000 A 
ATOM     13  C   UNL     1       2.825   5.644  19.801  0.00  0.00    +0.000 A 
ATOM     14  C   UNL     1       1.916   5.128  20.736  0.00  0.00    +0.000 A 
BRANCH   9  16
ATOM     15  C   UNL     1       1.436   1.950  22.393  0.00  0.00    +0.000 C 
ATOM     16  O   UNL     1       0.940   3.136  21.784  0.00  0.00    +0.000 OA
ENDBRANCH   9  16
ENDBRANCH   1  12
BRANCH   4  17
ATOM     17  C   UNL     1       7.361   5.354  15.831  0.00  0.00    +0.000 C 
BRANCH  17  18
ATOM     18  C   UNL     1       7.001   4.858  14.461  0.00  0.00    +0.000 A 
ATOM     19  N   UNL     1       6.155   3.912  14.114  0.00  0.00    +0.000 NA
ATOM     20  C   UNL     1       6.393   3.788  12.764  0.00  0.00    +0.000 A 
ATOM     21  N   UNL     1       7.315   4.635  12.280  0.00  0.00    +0.000 NA
ATOM     22  O   UNL     1       7.715   5.356  13.409  0.00  0.00    +0.000 OA
BRANCH  20  23
ATOM     23  C   UNL     1       5.813   2.686  11.948  0.00  0.00    +0.000 C 
BRANCH  23  24
ATOM     24  S   UNL     1       7.043   1.637  11.110  0.00  0.00    +0.000 S 
ATOM     25  C   UNL     1       6.197   0.041  11.208  0.00  0.00    +0.000 C 
ENDBRANCH  23  24
ENDBRANCH  20  23
ENDBRANCH  17  18
ENDBRANCH   4  17
TORSDOF 6
ENDMDL
MODEL 3
REMARK VINA RESULT:      -6.8      0.782      1.285
REMARK  Name = 
REMARK  9 active torsions:
REMARK  status: ('A' for Active; 'I' for Inactive)
REMARK    1  A    between atoms: C_1  and  O_2
REMARK    2  A    between atoms: O_2  and  C_3
REMARK    3  A    between atoms: C_6  and  N_7
REMARK    4  A    between atoms: N_10  and  C_11
REMARK    5  A    between atoms: C_11  and  C_12
REMARK    6  A    between atoms: C_14  and  C_15
REMARK    7  A    between atoms: C_15  and  S_16
REMARK    8  A    between atoms: S_16  and  C_17
REMARK    9  A    between atoms: C_20  and  C_21
REMARK                            x       y       z     vdW  Elec       q    Type
REMARK                         _______ _______ _______ _____ _____    ______ ____
ROOT
ATOM      1  N   UNL     1       3.094   6.427  19.024  0.00  0.00    +0.000 N 
ATOM      2  C   UNL     1       4.362   6.561  18.302  0.00  0.00    +0.000 C 
ATOM      3  C   UNL     1       5.404   5.510  18.708  0.00  0.00    +0.000 C 
ATOM      4  N   UNL     1       4.884   4.130  18.737  0.00  0.00    +0.000 NA
ATOM      5  C   UNL     1       3.721   4.113  19.669  0.00  0.00    +0.000 C 
ATOM      6  C   UNL     1       3.121   2.723  19.904  0.00  0.00    +0.000 C 
ATOM      7  C   UNL     1       2.618   5.134  19.295  0.00  0.00    +0.000 C 
ATOM      8  O   UNL     1       1.424   4.827  19.345  0.00  0.00    +0.000 OA
ENDROOT
BRANCH   1  12
ATOM      9  C   UNL     1       0.480   9.749  19.585  0.00  0.00    +0.000 A 
ATOM     10  C   UNL     1       1.049   9.495  18.343  0.00  0.00    +0.000 A 
ATOM     11  C   UNL     1       1.927   8.418  18.172  0.00  0.00    +0.000 A 
ATOM     12  C   UNL     1       2.270   7.580  19.241  0.00  0.00    +0.000 A 
ATOM     13  C   UNL     1       1.704   7.864  20.493  0.00  0.00    +0.000 A 
ATOM     14  C   UNL     1       0.823   8.941  20.665  0.00  0.00    +0.000 A 
BRANCH   9  16
ATOM     15  C   UNL     1      -1.256  10.954  18.529  0.00  0.00    +0.000 C 
ATOM     16  O   UNL     1      -0.365  10.822  19.630  0.00  0.00    +0.000 OA
ENDBRANCH   9  16
ENDBRANCH   1  12
BRANCH   4  17
ATOM     17  C   UNL     1       4.555   3.603  17.395  0.00  0.00    +0.000 C 
BRANCH  17  18
ATOM     18  C   UNL     1       5.499   4.020  16.305  0.00  0.00    +0.000 A 
ATOM     19  N   UNL     1       5.304   4.056  15.004  0.00  0.00    +0.000 NA
ATOM     20  C   UNL     1       6.565   4.334  14.527  0.00  0.00    +0.000 A 
ATOM     21  N   UNL     1       7.498   4.499  15.478  0.00  0.00    +0.000 NA
ATOM     22  O   UNL     1       6.787   4.299  16.666  0.00  0.00    +0.000 OA
BRANCH  20  23
ATOM     23  C   UNL     1       6.903   4.274  13.079  0.00  0.00    +0.000 C 
BRANCH  23  24
ATOM     24  S   UNL     1       5.801   3.214  12.089  0.00  0.00    +0.000 S 
ATOM     25  C   UNL     1       7.032   2.132  11.323  0.00  0.00    +0.000 C 
ENDBRANCH  23  24
ENDBRANCH  20  23
ENDBRANCH  17  18
ENDBRANCH   4  17
TORSDOF 6
ENDMDL
MODEL 4
REMARK VINA RESULT:      -6.5      3.144      4.371
REMARK  Name = 
REMARK  9 active torsions:
REMARK  status: ('A' for Active; 'I' for Inactive)
REMARK    1  A    between atoms: C_1  and  O_2
REMARK    2  A    between atoms: O_2  and  C_3
REMARK    3  A    between atoms: C_6  and  N_7
REMARK    4  A    between atoms: N_10  and  C_11
REMARK    5  A    between atoms: C_11  and  C_12
REMARK    6  A    between atoms: C_14  and  C_15
REMARK    7  A    between atoms: C_15  and  S_16
REMARK    8  A    between atoms: S_16  and  C_17
REMARK    9  A    between atoms: C_20  and  C_21
REMARK                            x       y       z     vdW  Elec       q    Type
REMARK                         _______ _______ _______ _____ _____    ______ ____
ROOT
ATOM      1  N   UNL     1       4.704   5.276  18.319  0.00  0.00    +0.000 N 
ATOM      2  C   UNL     1       4.384   5.250  16.890  0.00  0.00    +0.000 C 
ATOM      3  C   UNL     1       5.076   6.365  16.093  0.00  0.00    +0.000 C 
ATOM      4  N   UNL     1       6.518   6.495  16.373  0.00  0.00    +0.000 NA
ATOM      5  C   UNL     1       6.668   6.718  17.840  0.00  0.00    +0.000 C 
ATOM      6  C   UNL     1       8.107   6.984  18.293  0.00  0.00    +0.000 C 
ATOM      7  C   UNL     1       6.015   5.608  18.700  0.00  0.00    +0.000 C 
ATOM      8  O   UNL     1       6.589   5.152  19.693  0.00  0.00    +0.000 OA
ENDROOT
BRANCH   1  12
ATOM      9  C   UNL     1       2.064   3.749  21.299  0.00  0.00    +0.000 A 
ATOM     10  C   UNL     1       2.967   2.913  20.654  0.00  0.00    +0.000 A 
ATOM     11  C   UNL     1       3.813   3.415  19.659  0.00  0.00    +0.000 A 
ATOM     12  C   UNL     1       3.765   4.761  19.272  0.00  0.00    +0.000 A 
ATOM     13  C   UNL     1       2.833   5.587  19.917  0.00  0.00    +0.000 A 
ATOM     14  C   UNL     1       1.987   5.085  20.917  0.00  0.00    +0.000 A 
BRANCH   9  16
ATOM     15  C   UNL     1       1.218   1.730  22.187  0.00  0.00    +0.000 C 
ATOM     16  O   UNL     1       1.296   3.149  22.256  0.00  0.00    +0.000 OA
ENDBRANCH   9  16
ENDBRANCH   1  12
BRANCH   4  17
ATOM     17  C   UNL     1       7.314   5.351  15.879  0.00  0.00    +0.000 C 
BRANCH  17  18
ATOM     18  C   UNL     1       7.101   5.013  14.433  0.00  0.00    +0.000 A 
ATOM     19  N   UNL     1       6.243   4.174  13.891  0.00  0.00    +0.000 NA
ATOM     20  C   UNL     1       6.644   4.154  12.575  0.00  0.00    +0.000 A 
ATOM     21  N   UNL     1       7.677   4.963  12.294  0.00  0.00    +0.000 NA
ATOM     22  O   UNL     1       7.978   5.544  13.530  0.00  0.00    +0.000 OA
BRANCH  20  23
ATOM     23  C   UNL     1       6.099   3.182  11.589  0.00  0.00    +0.000 C 
BRANCH  23  24
ATOM     24  S   UNL     1       4.301   2.917  11.702  0.00  0.00    +0.000 S 
ATOM     25  C   UNL     1       3.772   3.790  10.208  0.00  0.00    +0.000 C 
ENDBRANCH  23  24
ENDBRANCH  20  23
ENDBRANCH  17  18
ENDBRANCH   4  17
TORSDOF 6
ENDMDL
MODEL 5
REMARK VINA RESULT:      -6.2      4.462      8.772
REMARK  Name = 
REMARK  9 active torsions:
REMARK  status: ('A' for Active; 'I' for Inactive)
REMARK    1  A    between atoms: C_1  and  O_2
REMARK    2  A    between atoms: O_2  and  C_3
REMARK    3  A    between atoms: C_6  and  N_7
REMARK    4  A    between atoms: N_10  and  C_11
REMARK    5  A    between atoms: C_11  and  C_12
REMARK    6  A    between atoms: C_14  and  C_15
REMARK    7  A    between atoms: C_15  and  S_16
REMARK    8  A    between atoms: S_16  and  C_17
REMARK    9  A    between atoms: C_20  and  C_21
REMARK                            x       y       z     vdW  Elec       q    Type
REMARK                         _______ _______ _______ _____ _____    ______ ____
ROOT
ATOM      1  N   UNL     1       1.794   8.416  18.942  0.00  0.00    +0.000 N 
ATOM      2  C   UNL     1       1.745   9.578  18.051  0.00  0.00    +0.000 C 
ATOM      3  C   UNL     1       0.506  10.458  18.271  0.00  0.00    +0.000 C 
ATOM      4  N   UNL     1       0.248  10.786  19.686  0.00  0.00    +0.000 NA
ATOM      5  C   UNL     1       0.124   9.498  20.426  0.00  0.00    +0.000 C 
ATOM      6  C   UNL     1      -0.256   9.653  21.902  0.00  0.00    +0.000 C 
ATOM      7  C   UNL     1       1.357   8.576  20.267  0.00  0.00    +0.000 C 
ATOM      8  O   UNL     1       1.825   7.968  21.233  0.00  0.00    +0.000 OA
ENDROOT
BRANCH   1  12
ATOM      9  C   UNL     1       3.671   4.846  17.558  0.00  0.00    +0.000 A 
ATOM     10  C   UNL     1       2.570   4.787  18.403  0.00  0.00    +0.000 A 
ATOM     11  C   UNL     1       1.974   5.963  18.875  0.00  0.00    +0.000 A 
ATOM     12  C   UNL     1       2.475   7.225  18.526  0.00  0.00    +0.000 A 
ATOM     13  C   UNL     1       3.600   7.266  17.690  0.00  0.00    +0.000 A 
ATOM     14  C   UNL     1       4.196   6.088  17.215  0.00  0.00    +0.000 A 
BRANCH   9  16
ATOM     15  C   UNL     1       3.682   2.505  17.875  0.00  0.00    +0.000 C 
ATOM     16  O   UNL     1       4.162   3.636  17.158  0.00  0.00    +0.000 OA
ENDBRANCH   9  16
ENDBRANCH   1  12
BRANCH   4  17
ATOM     17  C   UNL     1       1.263  11.691  20.269  0.00  0.00    +0.000 C 
BRANCH  17  18
ATOM     18  C   UNL     1       1.561  12.913  19.452  0.00  0.00    +0.000 A 
ATOM     19  N   UNL     1       2.594  13.164  18.675  0.00  0.00    +0.000 NA
ATOM     20  C   UNL     1       2.404  14.489  18.355  0.00  0.00    +0.000 A 
ATOM     21  N   UNL     1       1.293  15.035  18.874  0.00  0.00    +0.000 NA
ATOM     22  O   UNL     1       0.724  13.983  19.598  0.00  0.00    +0.000 OA
BRANCH  20  23
ATOM     23  C   UNL     1       3.436  15.296  17.649  0.00  0.00    +0.000 C 
BRANCH  23  24
ATOM     24  S   UNL     1       5.153  14.904  18.116  0.00  0.00    +0.000 S 
ATOM     25  C   UNL     1       5.146  15.507  19.822  0.00  0.00    +0.000 C 
ENDBRANCH  23  24
ENDBRANCH  20  23
ENDBRANCH  17  18
ENDBRANCH   4  17
TORSDOF 6
ENDMDL
MODEL 6
REMARK VINA RESULT:      -6.1      3.302      8.068
REMARK  Name = 
REMARK  9 active torsions:
REMARK  status: ('A' for Active; 'I' for Inactive)
REMARK    1  A    between atoms: C_1  and  O_2
REMARK    2  A    between atoms: O_2  and  C_3
REMARK    3  A    between atoms: C_6  and  N_7
REMARK    4  A    between atoms: N_10  and  C_11
REMARK    5  A    between atoms: C_11  and  C_12
REMARK    6  A    between atoms: C_14  and  C_15
REMARK    7  A    between atoms: C_15  and  S_16
REMARK    8  A    between atoms: S_16  and  C_17
REMARK    9  A    between atoms: C_20  and  C_21
REMARK                            x       y       z     vdW  Elec       q    Type
REMARK                         _______ _______ _______ _____ _____    ______ ____
ROOT
ATOM      1  N   UNL     1       4.011   4.932  18.008  0.00  0.00    +0.000 N 
ATOM      2  C   UNL     1       2.942   5.932  17.934  0.00  0.00    +0.000 C 
ATOM      3  C   UNL     1       1.605   5.432  18.498  0.00  0.00    +0.000 C 
ATOM      4  N   UNL     1       1.716   4.783  19.818  0.00  0.00    +0.000 NA
ATOM      5  C   UNL     1       2.689   3.661  19.681  0.00  0.00    +0.000 C 
ATOM      6  C   UNL     1       2.844   2.805  20.942  0.00  0.00    +0.000 C 
ATOM      7  C   UNL     1       4.070   4.107  19.143  0.00  0.00    +0.000 C 
ATOM      8  O   UNL     1       5.115   3.669  19.633  0.00  0.00    +0.000 OA
ENDROOT
BRANCH   1  12
ATOM      9  C   UNL     1       7.078   5.134  15.053  0.00  0.00    +0.000 A 
ATOM     10  C   UNL     1       6.002   4.268  14.902  0.00  0.00    +0.000 A 
ATOM     11  C   UNL     1       5.012   4.188  15.888  0.00  0.00    +0.000 A 
ATOM     12  C   UNL     1       5.082   4.959  17.056  0.00  0.00    +0.000 A 
ATOM     13  C   UNL     1       6.187   5.811  17.204  0.00  0.00    +0.000 A 
ATOM     14  C   UNL     1       7.178   5.894  16.215  0.00  0.00    +0.000 A 
BRANCH   9  16
ATOM     15  C   UNL     1       7.455   4.778  12.748  0.00  0.00    +0.000 C 
ATOM     16  O   UNL     1       7.977   5.130  14.024  0.00  0.00    +0.000 OA
ENDBRANCH   9  16
ENDBRANCH   1  12
BRANCH   4  17
ATOM     17  C   UNL     1       2.070   5.725  20.902  0.00  0.00    +0.000 C 
BRANCH  17  18
ATOM     18  C   UNL     1       1.365   7.048  20.843  0.00  0.00    +0.000 A 
ATOM     19  N   UNL     1       1.813   8.212  20.421  0.00  0.00    +0.000 NA
ATOM     20  C   UNL     1       0.795   9.065  20.783  0.00  0.00    +0.000 A 
ATOM     21  N   UNL     1      -0.252   8.467  21.371  0.00  0.00    +0.000 NA
ATOM     22  O   UNL     1       0.121   7.120  21.403  0.00  0.00    +0.000 OA
BRANCH  20  23
ATOM     23  C   UNL     1       0.926  10.545  20.698  0.00  0.00    +0.000 C 
BRANCH  23  24
ATOM     24  S   UNL     1       0.759  11.223  19.015  0.00  0.00    +0.000 S 
ATOM     25  C   UNL     1      -0.979  11.725  19.064  0.00  0.00    +0.000 C 
ENDBRANCH  23  24
ENDBRANCH  20  23
ENDBRANCH  17  18
ENDBRANCH   4  17
TORSDOF 6
ENDMDL
MODEL 7
REMARK VINA RESULT:      -6.1      4.732      8.942
REMARK  Name = 
REMARK  9 active torsions:
REMARK  status: ('A' for Active; 'I' for Inactive)
REMARK    1  A    between atoms: C_1  and  O_2
REMARK    2  A    between atoms: O_2  and  C_3
REMARK    3  A    between atoms: C_6  and  N_7
REMARK    4  A    between atoms: N_10  and  C_11
REMARK    5  A    between atoms: C_11  and  C_12
REMARK    6  A    between atoms: C_14  and  C_15
REMARK    7  A    between atoms: C_15  and  S_16
REMARK    8  A    between atoms: S_16  and  C_17
REMARK    9  A    between atoms: C_20  and  C_21
REMARK                            x       y       z     vdW  Elec       q    Type
REMARK                         _______ _______ _______ _____ _____    ______ ____
ROOT
ATOM      1  N   UNL     1       1.491   8.556  19.874  0.00  0.00    +0.000 N 
ATOM      2  C   UNL     1       1.559   9.526  18.777  0.00  0.00    +0.000 C 
ATOM      3  C   UNL     1       0.403  10.536  18.790  0.00  0.00    +0.000 C 
ATOM      4  N   UNL     1       0.158  11.151  20.108  0.00  0.00    +0.000 NA
ATOM      5  C   UNL     1      -0.093  10.044  21.075  0.00  0.00    +0.000 C 
ATOM      6  C   UNL     1      -0.476  10.511  22.482  0.00  0.00    +0.000 C 
ATOM      7  C   UNL     1       1.053   9.005  21.130  0.00  0.00    +0.000 C 
ATOM      8  O   UNL     1       1.452   8.555  22.209  0.00  0.00    +0.000 OA
ENDROOT
BRANCH   1  12
ATOM      9  C   UNL     1       3.019   4.616  19.305  0.00  0.00    +0.000 A 
ATOM     10  C   UNL     1       2.173   4.903  20.369  0.00  0.00    +0.000 A 
ATOM     11  C   UNL     1       1.696   6.204  20.566  0.00  0.00    +0.000 A 
ATOM     12  C   UNL     1       2.065   7.253  19.712  0.00  0.00    +0.000 A 
ATOM     13  C   UNL     1       2.937   6.951  18.656  0.00  0.00    +0.000 A 
ATOM     14  C   UNL     1       3.414   5.647  18.457  0.00  0.00    +0.000 A 
BRANCH   9  16
ATOM     15  C   UNL     1       3.752   2.861  17.904  0.00  0.00    +0.000 C 
ATOM     16  O   UNL     1       3.415   3.312  19.211  0.00  0.00    +0.000 OA
ENDBRANCH   9  16
ENDBRANCH   1  12
BRANCH   4  17
ATOM     17  C   UNL     1       1.243  12.058  20.539  0.00  0.00    +0.000 C 
BRANCH  17  18
ATOM     18  C   UNL     1       1.545  13.177  19.585  0.00  0.00    +0.000 A 
ATOM     19  N   UNL     1       2.649  13.422  18.912  0.00  0.00    +0.000 NA
ATOM     20  C   UNL     1       2.392  14.661  18.370  0.00  0.00    +0.000 A 
ATOM     21  N   UNL     1       1.178  15.154  18.656  0.00  0.00    +0.000 NA
ATOM     22  O   UNL     1       0.606  14.162  19.459  0.00  0.00    +0.000 OA
BRANCH  20  23
ATOM     23  C   UNL     1       3.439  15.464  17.680  0.00  0.00    +0.000 C 
BRANCH  23  24
ATOM     24  S   UNL     1       5.149  14.996  18.099  0.00  0.00    +0.000 S 
ATOM     25  C   UNL     1       5.720  16.555  18.818  0.00  0.00    +0.000 C 
ENDBRANCH  23  24
ENDBRANCH  20  23
ENDBRANCH  17  18
ENDBRANCH   4  17
TORSDOF 6
ENDMDL
MODEL 8
REMARK VINA RESULT:      -6.1      4.752      9.970
REMARK  Name = 
REMARK  9 active torsions:
REMARK  status: ('A' for Active; 'I' for Inactive)
REMARK    1  A    between atoms: C_1  and  O_2
REMARK    2  A    between atoms: O_2  and  C_3
REMARK    3  A    between atoms: C_6  and  N_7
REMARK    4  A    between atoms: N_10  and  C_11
REMARK    5  A    between atoms: C_11  and  C_12
REMARK    6  A    between atoms: C_14  and  C_15
REMARK    7  A    between atoms: C_15  and  S_16
REMARK    8  A    between atoms: S_16  and  C_17
REMARK    9  A    between atoms: C_20  and  C_21
REMARK                            x       y       z     vdW  Elec       q    Type
REMARK                         _______ _______ _______ _____ _____    ______ ____
ROOT
ATOM      1  N   UNL     1       1.812   8.200  18.774  0.00  0.00    +0.000 N 
ATOM      2  C   UNL     1       1.592   9.435  18.017  0.00  0.00    +0.000 C 
ATOM      3  C   UNL     1       0.302  10.167  18.413  0.00  0.00    +0.000 C 
ATOM      4  N   UNL     1       0.127  10.327  19.869  0.00  0.00    +0.000 NA
ATOM      5  C   UNL     1       0.174   8.966  20.475  0.00  0.00    +0.000 C 
ATOM      6  C   UNL     1      -0.102   8.936  21.981  0.00  0.00    +0.000 C 
ATOM      7  C   UNL     1       1.467   8.186  20.135  0.00  0.00    +0.000 C 
ATOM      8  O   UNL     1       2.061   7.532  20.998  0.00  0.00    +0.000 OA
ENDROOT
BRANCH   1  12
ATOM      9  C   UNL     1       4.160   5.004  17.207  0.00  0.00    +0.000 A 
ATOM     10  C   UNL     1       4.614   6.316  17.145  0.00  0.00    +0.000 A 
ATOM     11  C   UNL     1       3.828   7.363  17.637  0.00  0.00    +0.000 A 
ATOM     12  C   UNL     1       2.561   7.127  18.189  0.00  0.00    +0.000 A 
ATOM     13  C   UNL     1       2.107   5.800  18.223  0.00  0.00    +0.000 A 
ATOM     14  C   UNL     1       2.896   4.749  17.732  0.00  0.00    +0.000 A 
BRANCH   9  16
ATOM     15  C   UNL     1       5.479   4.303  15.377  0.00  0.00    +0.000 C 
ATOM     16  O   UNL     1       5.015   4.067  16.701  0.00  0.00    +0.000 OA
ENDBRANCH   9  16
ENDBRANCH   1  12
BRANCH   4  17
ATOM     17  C   UNL     1       1.100  11.262  20.474  0.00  0.00    +0.000 C 
BRANCH  17  18
ATOM     18  C   UNL     1       0.505  12.275  21.407  0.00  0.00    +0.000 A 
ATOM     19  N   UNL     1      -0.684  12.289  21.973  0.00  0.00    +0.000 NA
ATOM     20  C   UNL     1      -0.717  13.537  22.552  0.00  0.00    +0.000 A 
ATOM     21  N   UNL     1       0.404  14.257  22.391  0.00  0.00    +0.000 NA
ATOM     22  O   UNL     1       1.224  13.414  21.636  0.00  0.00    +0.000 OA
BRANCH  20  23
ATOM     23  C   UNL     1      -1.956  14.108  23.147  0.00  0.00    +0.000 C 
BRANCH  23  24
ATOM     24  S   UNL     1      -3.478  13.187  22.754  0.00  0.00    +0.000 S 
ATOM     25  C   UNL     1      -4.484  14.537  22.089  0.00  0.00    +0.000 C 
ENDBRANCH  23  24
ENDBRANCH  20  23
ENDBRANCH  17  18
ENDBRANCH   4  17
TORSDOF 6
ENDMDL
MODEL 9
REMARK VINA RESULT:      -6.1      4.971      9.350
REMARK  Name = 
REMARK  9 active torsions:
REMARK  status: ('A' for Active; 'I' for Inactive)
REMARK    1  A    between atoms: C_1  and  O_2
REMARK    2  A    between atoms: O_2  and  C_3
REMARK    3  A    between atoms: C_6  and  N_7
REMARK    4  A    between atoms: N_10  and  C_11
REMARK    5  A    between atoms: C_11  and  C_12
REMARK    6  A    between atoms: C_14  and  C_15
REMARK    7  A    between atoms: C_15  and  S_16
REMARK    8  A    between atoms: S_16  and  C_17
REMARK    9  A    between atoms: C_20  and  C_21
REMARK                            x       y       z     vdW  Elec       q    Type
REMARK                         _______ _______ _______ _____ _____    ______ ____
ROOT
ATOM      1  N   UNL     1       1.556   8.340  19.674  0.00  0.00    +0.000 N 
ATOM      2  C   UNL     1       1.559   9.222  18.505  0.00  0.00    +0.000 C 
ATOM      3  C   UNL     1       0.354  10.173  18.461  0.00  0.00    +0.000 C 
ATOM      4  N   UNL     1       0.099  10.877  19.731  0.00  0.00    +0.000 NA
ATOM      5  C   UNL     1      -0.081   9.839  20.786  0.00  0.00    +0.000 C 
ATOM      6  C   UNL     1      -0.464  10.397  22.160  0.00  0.00    +0.000 C 
ATOM      7  C   UNL     1       1.117   8.864  20.901  0.00  0.00    +0.000 C 
ATOM      8  O   UNL     1       1.554   8.521  22.003  0.00  0.00    +0.000 OA
ENDROOT
BRANCH   1  12
ATOM      9  C   UNL     1       3.613   4.606  19.571  0.00  0.00    +0.000 A 
ATOM     10  C   UNL     1       3.940   5.622  18.682  0.00  0.00    +0.000 A 
ATOM     11  C   UNL     1       3.244   6.836  18.703  0.00  0.00    +0.000 A 
ATOM     12  C   UNL     1       2.193   7.057  19.604  0.00  0.00    +0.000 A 
ATOM     13  C   UNL     1       1.860   6.014  20.480  0.00  0.00    +0.000 A 
ATOM     14  C   UNL     1       2.559   4.798  20.461  0.00  0.00    +0.000 A 
BRANCH   9  16
ATOM     15  C   UNL     1       3.635   2.251  19.392  0.00  0.00    +0.000 C 
ATOM     16  O   UNL     1       4.364   3.471  19.461  0.00  0.00    +0.000 OA
ENDBRANCH   9  16
ENDBRANCH   1  12
BRANCH   4  17
ATOM     17  C   UNL     1       1.144  11.867  20.069  0.00  0.00    +0.000 C 
BRANCH  17  18
ATOM     18  C   UNL     1       0.924  13.236  19.495  0.00  0.00    +0.000 A 
ATOM     19  N   UNL     1       1.809  14.107  19.055  0.00  0.00    +0.000 NA
ATOM     20  C   UNL     1       1.035  15.224  18.837  0.00  0.00    +0.000 A 
ATOM     21  N   UNL     1      -0.272  15.057  19.092  0.00  0.00    +0.000 NA
ATOM     22  O   UNL     1      -0.350  13.729  19.522  0.00  0.00    +0.000 OA
BRANCH  20  23
ATOM     23  C   UNL     1       1.624  16.554  18.523  0.00  0.00    +0.000 C 
BRANCH  23  24
ATOM     24  S   UNL     1       3.168  16.489  17.558  0.00  0.00    +0.000 S 
ATOM     25  C   UNL     1       4.370  16.651  18.900  0.00  0.00    +0.000 C 
ENDBRANCH  23  24
ENDBRANCH  20  23
ENDBRANCH  17  18
ENDBRANCH   4  17
TORSDOF 6
ENDMDL
