MODEL 1
REMARK VINA RESULT:      -8.0      0.000      0.000
REMARK  Name = 
REMARK  8 active torsions:
REMARK  status: ('A' for Active; 'I' for Inactive)
REMARK    1  A    between atoms: C_1  and  C_2
REMARK    2  A    between atoms: C_3  and  C_4
REMARK    3  A    between atoms: C_8  and  O_9
REMARK    4  A    between atoms: O_9  and  C_10
REMARK    5  A    between atoms: C_10  and  C_11
REMARK    6  A    between atoms: C_13  and  C_14
REMARK    7  A    between atoms: C_14  and  C_15
REMARK    8  A    between atoms: C_14  and  C_16
REMARK                            x       y       z     vdW  Elec       q    Type
REMARK                         _______ _______ _______ _____ _____    ______ ____
ROOT
ATOM      1  C   UNL     1       2.488   2.034  19.484  0.00  0.00    +0.000 C 
ATOM      2  C   UNL     1       3.435   3.105  19.012  0.00  0.00    +0.000 A 
ATOM      3  C   UNL     1       3.129   4.124  18.180  0.00  0.00    +0.000 A 
ATOM      4  C   UNL     1       1.778   4.335  17.544  0.00  0.00    +0.000 C 
ATOM      5  C   UNL     1       4.173   5.122  17.871  0.00  0.00    +0.000 A 
ATOM      6  C   UNL     1       3.939   6.266  17.098  0.00  0.00    +0.000 A 
ATOM      7  C   UNL     1       4.955   7.199  16.858  0.00  0.00    +0.000 A 
ATOM      8  C   UNL     1       6.233   7.012  17.385  0.00  0.00    +0.000 A 
ATOM      9  C   UNL     1       6.493   5.861  18.126  0.00  0.00    +0.000 A 
ATOM     10  C   UNL     1       5.460   4.948  18.370  0.00  0.00    +0.000 A 
ATOM     11  O   UNL     1       5.779   3.844  19.176  0.00  0.00    +0.000 OA
ATOM     12  C   UNL     1       4.811   2.936  19.567  0.00  0.00    +0.000 A 
ATOM     13  O   UNL     1       5.084   2.016  20.334  0.00  0.00    +0.000 OA
ENDROOT
BRANCH   8  14
ATOM     14  O   UNL     1       7.287   7.869  17.201  0.00  0.00    +0.000 OA
BRANCH  14  15
ATOM     15  C   UNL     1       8.192   7.940  18.307  0.00  0.00    +0.000 C 
BRANCH  15  16
ATOM     16  C   UNL     1       8.625   9.345  18.494  0.00  0.00    +0.000 A 
ATOM     17  N   UNL     1       9.480   9.825  19.371  0.00  0.00    +0.000 NA
ATOM     18  C   UNL     1       9.571  11.139  18.997  0.00  0.00    +0.000 A 
ATOM     19  N   UNL     1       8.826  11.476  17.935  0.00  0.00    +0.000 NA
ATOM     20  O   UNL     1       8.192  10.274  17.595  0.00  0.00    +0.000 OA
BRANCH  18  21
ATOM     21  C   UNL     1      10.455  12.106  19.713  0.00  0.00    +0.000 C 
ATOM     22  C   UNL     1      10.075  12.207  21.191  0.00  0.00    +0.000 C 
ATOM     23  C   UNL     1      11.929  11.715  19.573  0.00  0.00    +0.000 C 
ENDBRANCH  18  21
ENDBRANCH  15  16
ENDBRANCH  14  15
ENDBRANCH   8  14
TORSDOF 4
ENDMDL
MODEL 2
REMARK VINA RESULT:      -7.6      6.142      7.713
REMARK  Name = 
REMARK  8 active torsions:
REMARK  status: ('A' for Active; 'I' for Inactive)
REMARK    1  A    between atoms: C_1  and  C_2
REMARK    2  A    between atoms: C_3  and  C_4
REMARK    3  A    between atoms: C_8  and  O_9
REMARK    4  A    between atoms: O_9  and  C_10
REMARK    5  A    between atoms: C_10  and  C_11
REMARK    6  A    between atoms: C_13  and  C_14
REMARK    7  A    between atoms: C_14  and  C_15
REMARK    8  A    between atoms: C_14  and  C_16
REMARK                            x       y       z     vdW  Elec       q    Type
REMARK                         _______ _______ _______ _____ _____    ______ ____
ROOT
ATOM      1  C   UNL     1       5.519   3.998  15.603  0.00  0.00    +0.000 C 
ATOM      2  C   UNL     1       4.668   4.721  16.614  0.00  0.00    +0.000 A 
ATOM      3  C   UNL     1       3.828   4.145  17.501  0.00  0.00    +0.000 A 
ATOM      4  C   UNL     1       3.567   2.663  17.595  0.00  0.00    +0.000 C 
ATOM      5  C   UNL     1       3.116   5.009  18.463  0.00  0.00    +0.000 A 
ATOM      6  C   UNL     1       2.295   4.512  19.482  0.00  0.00    +0.000 A 
ATOM      7  C   UNL     1       1.665   5.371  20.390  0.00  0.00    +0.000 A 
ATOM      8  C   UNL     1       1.839   6.752  20.302  0.00  0.00    +0.000 A 
ATOM      9  C   UNL     1       2.623   7.266  19.272  0.00  0.00    +0.000 A 
ATOM     10  C   UNL     1       3.260   6.391  18.384  0.00  0.00    +0.000 A 
ATOM     11  O   UNL     1       4.083   6.977  17.410  0.00  0.00    +0.000 OA
ATOM     12  C   UNL     1       4.841   6.203  16.549  0.00  0.00    +0.000 A 
ATOM     13  O   UNL     1       5.615   6.724  15.751  0.00  0.00    +0.000 OA
ENDROOT
BRANCH   8  14
ATOM     14  O   UNL     1       1.262   7.667  21.144  0.00  0.00    +0.000 OA
BRANCH  14  15
ATOM     15  C   UNL     1       0.991   8.937  20.542  0.00  0.00    +0.000 C 
BRANCH  15  16
ATOM     16  C   UNL     1       0.308   9.809  21.527  0.00  0.00    +0.000 A 
ATOM     17  N   UNL     1      -0.194  11.010  21.343  0.00  0.00    +0.000 NA
ATOM     18  C   UNL     1      -0.793  11.261  22.548  0.00  0.00    +0.000 A 
ATOM     19  N   UNL     1      -0.690  10.272  23.446  0.00  0.00    +0.000 NA
ATOM     20  O   UNL     1       0.046   9.295  22.764  0.00  0.00    +0.000 OA
BRANCH  18  21
ATOM     21  C   UNL     1      -1.522  12.536  22.819  0.00  0.00    +0.000 C 
ATOM     22  C   UNL     1      -1.695  13.353  21.537  0.00  0.00    +0.000 C 
ATOM     23  C   UNL     1      -2.887  12.266  23.461  0.00  0.00    +0.000 C 
ENDBRANCH  18  21
ENDBRANCH  15  16
ENDBRANCH  14  15
ENDBRANCH   8  14
TORSDOF 4
ENDMDL
MODEL 3
REMARK VINA RESULT:      -7.5      5.056      7.181
REMARK  Name = 
REMARK  8 active torsions:
REMARK  status: ('A' for Active; 'I' for Inactive)
REMARK    1  A    between atoms: C_1  and  C_2
REMARK    2  A    between atoms: C_3  and  C_4
REMARK    3  A    between atoms: C_8  and  O_9
REMARK    4  A    between atoms: O_9  and  C_10
REMARK    5  A    between atoms: C_10  and  C_11
REMARK    6  A    between atoms: C_13  and  C_14
REMARK    7  A    between atoms: C_14  and  C_15
REMARK    8  A    between atoms: C_14  and  C_16
REMARK                            x       y       z     vdW  Elec       q    Type
REMARK                         _______ _______ _______ _____ _____    ______ ____
ROOT
ATOM      1  C   UNL     1      -0.146  11.806  21.584  0.00  0.00    +0.000 C 
ATOM      2  C   UNL     1       0.471  10.540  21.050  0.00  0.00    +0.000 A 
ATOM      3  C   UNL     1       0.776  10.290  19.759  0.00  0.00    +0.000 A 
ATOM      4  C   UNL     1       0.505  11.235  18.615  0.00  0.00    +0.000 C 
ATOM      5  C   UNL     1       1.436   9.012  19.424  0.00  0.00    +0.000 A 
ATOM      6  C   UNL     1       1.880   8.689  18.136  0.00  0.00    +0.000 A 
ATOM      7  C   UNL     1       2.528   7.476  17.875  0.00  0.00    +0.000 A 
ATOM      8  C   UNL     1       2.750   6.553  18.896  0.00  0.00    +0.000 A 
ATOM      9  C   UNL     1       2.283   6.841  20.176  0.00  0.00    +0.000 A 
ATOM     10  C   UNL     1       1.652   8.067  20.423  0.00  0.00    +0.000 A 
ATOM     11  O   UNL     1       1.264   8.316  21.748  0.00  0.00    +0.000 OA
ATOM     12  C   UNL     1       0.728   9.535  22.124  0.00  0.00    +0.000 A 
ATOM     13  O   UNL     1       0.462   9.769  23.300  0.00  0.00    +0.000 OA
ENDROOT
BRANCH   8  14
ATOM     14  O   UNL     1       3.374   5.343  18.733  0.00  0.00    +0.000 OA
BRANCH  14  15
ATOM     15  C   UNL     1       4.774   5.354  19.026  0.00  0.00    +0.000 C 
BRANCH  15  16
ATOM     16  C   UNL     1       5.536   5.121  17.775  0.00  0.00    +0.000 A 
ATOM     17  N   UNL     1       5.100   5.166  16.535  0.00  0.00    +0.000 NA
ATOM     18  C   UNL     1       6.253   4.992  15.818  0.00  0.00    +0.000 A 
ATOM     19  N   UNL     1       7.363   4.855  16.557  0.00  0.00    +0.000 NA
ATOM     20  O   UNL     1       6.885   4.944  17.870  0.00  0.00    +0.000 OA
BRANCH  18  21
ATOM     21  C   UNL     1       6.261   4.979  14.325  0.00  0.00    +0.000 C 
ATOM     22  C   UNL     1       7.676   5.186  13.781  0.00  0.00    +0.000 C 
ATOM     23  C   UNL     1       5.673   3.673  13.780  0.00  0.00    +0.000 C 
ENDBRANCH  18  21
ENDBRANCH  15  16
ENDBRANCH  14  15
ENDBRANCH   8  14
TORSDOF 4
ENDMDL
MODEL 4
REMARK VINA RESULT:      -7.5      4.040      6.513
REMARK  Name = 
REMARK  8 active torsions:
REMARK  status: ('A' for Active; 'I' for Inactive)
REMARK    1  A    between atoms: C_1  and  C_2
REMARK    2  A    between atoms: C_3  and  C_4
REMARK    3  A    between atoms: C_8  and  O_9
REMARK    4  A    between atoms: O_9  and  C_10
REMARK    5  A    between atoms: C_10  and  C_11
REMARK    6  A    between atoms: C_13  and  C_14
REMARK    7  A    between atoms: C_14  and  C_15
REMARK    8  A    between atoms: C_14  and  C_16
REMARK                            x       y       z     vdW  Elec       q    Type
REMARK                         _______ _______ _______ _____ _____    ______ ____
ROOT
ATOM      1  C   UNL     1       1.085  10.871  19.849  0.00  0.00    +0.000 C 
ATOM      2  C   UNL     1       1.419   9.425  19.590  0.00  0.00    +0.000 A 
ATOM      3  C   UNL     1       1.372   8.426  20.497  0.00  0.00    +0.000 A 
ATOM      4  C   UNL     1       1.015   8.605  21.951  0.00  0.00    +0.000 C 
ATOM      5  C   UNL     1       1.676   7.052  20.050  0.00  0.00    +0.000 A 
ATOM      6  C   UNL     1       1.567   5.931  20.882  0.00  0.00    +0.000 A 
ATOM      7  C   UNL     1       1.836   4.643  20.402  0.00  0.00    +0.000 A 
ATOM      8  C   UNL     1       2.222   4.443  19.077  0.00  0.00    +0.000 A 
ATOM      9  C   UNL     1       2.370   5.550  18.245  0.00  0.00    +0.000 A 
ATOM     10  C   UNL     1       2.079   6.829  18.737  0.00  0.00    +0.000 A 
ATOM     11  O   UNL     1       2.191   7.890  17.826  0.00  0.00    +0.000 OA
ATOM     12  C   UNL     1       1.827   9.179  18.175  0.00  0.00    +0.000 A 
ATOM     13  O   UNL     1       1.856  10.086  17.348  0.00  0.00    +0.000 OA
ENDROOT
BRANCH   8  14
ATOM     14  O   UNL     1       2.506   3.222  18.522  0.00  0.00    +0.000 OA
BRANCH  14  15
ATOM     15  C   UNL     1       3.801   2.710  18.852  0.00  0.00    +0.000 C 
BRANCH  15  16
ATOM     16  C   UNL     1       4.838   3.593  18.267  0.00  0.00    +0.000 A 
ATOM     17  N   UNL     1       5.756   4.298  18.892  0.00  0.00    +0.000 NA
ATOM     18  C   UNL     1       6.488   4.806  17.852  0.00  0.00    +0.000 A 
ATOM     19  N   UNL     1       6.069   4.436  16.634  0.00  0.00    +0.000 NA
ATOM     20  O   UNL     1       4.964   3.621  16.909  0.00  0.00    +0.000 OA
BRANCH  18  21
ATOM     21  C   UNL     1       7.674   5.685  18.075  0.00  0.00    +0.000 C 
ATOM     22  C   UNL     1       7.436   7.084  17.504  0.00  0.00    +0.000 C 
ATOM     23  C   UNL     1       8.022   5.775  19.565  0.00  0.00    +0.000 C 
ENDBRANCH  18  21
ENDBRANCH  15  16
ENDBRANCH  14  15
ENDBRANCH   8  14
TORSDOF 4
ENDMDL
MODEL 5
REMARK VINA RESULT:      -7.4      0.943      1.382
REMARK  Name = 
REMARK  8 active torsions:
REMARK  status: ('A' for Active; 'I' for Inactive)
REMARK    1  A    between atoms: C_1  and  C_2
REMARK    2  A    between atoms: C_3  and  C_4
REMARK    3  A    between atoms: C_8  and  O_9
REMARK    4  A    between atoms: O_9  and  C_10
REMARK    5  A    between atoms: C_10  and  C_11
REMARK    6  A    between atoms: C_13  and  C_14
REMARK    7  A    between atoms: C_14  and  C_15
REMARK    8  A    between atoms: C_14  and  C_16
REMARK                            x       y       z     vdW  Elec       q    Type
REMARK                         _______ _______ _______ _____ _____    ______ ____
ROOT
ATOM      1  C   UNL     1       2.139   2.171  19.483  0.00  0.00    +0.000 C 
ATOM      2  C   UNL     1       3.237   3.139  19.129  0.00  0.00    +0.000 A 
ATOM      3  C   UNL     1       3.121   4.204  18.307  0.00  0.00    +0.000 A 
ATOM      4  C   UNL     1       1.863   4.578  17.562  0.00  0.00    +0.000 C 
ATOM      5  C   UNL     1       4.291   5.085  18.122  0.00  0.00    +0.000 A 
ATOM      6  C   UNL     1       4.255   6.264  17.368  0.00  0.00    +0.000 A 
ATOM      7  C   UNL     1       5.385   7.082  17.247  0.00  0.00    +0.000 A 
ATOM      8  C   UNL     1       6.582   6.742  17.878  0.00  0.00    +0.000 A 
ATOM      9  C   UNL     1       6.646   5.553  18.601  0.00  0.00    +0.000 A 
ATOM     10  C   UNL     1       5.501   4.756  18.726  0.00  0.00    +0.000 A 
ATOM     11  O   UNL     1       5.623   3.606  19.521  0.00  0.00    +0.000 OA
ATOM     12  C   UNL     1       4.530   2.804  19.798  0.00  0.00    +0.000 A 
ATOM     13  O   UNL     1       4.630   1.844  20.555  0.00  0.00    +0.000 OA
ENDROOT
BRANCH   8  14
ATOM     14  O   UNL     1       7.735   7.479  17.814  0.00  0.00    +0.000 OA
BRANCH  14  15
ATOM     15  C   UNL     1       7.544   8.845  17.430  0.00  0.00    +0.000 C 
BRANCH  15  16
ATOM     16  C   UNL     1       8.536   9.693  18.133  0.00  0.00    +0.000 A 
ATOM     17  N   UNL     1       9.017  10.860  17.765  0.00  0.00    +0.000 NA
ATOM     18  C   UNL     1       9.785  11.209  18.844  0.00  0.00    +0.000 A 
ATOM     19  N   UNL     1       9.784  10.321  19.848  0.00  0.00    +0.000 NA
ATOM     20  O   UNL     1       8.946   9.303  19.375  0.00  0.00    +0.000 OA
BRANCH  18  21
ATOM     21  C   UNL     1      10.541  12.495  18.894  0.00  0.00    +0.000 C 
ATOM     22  C   UNL     1      11.819  12.414  18.057  0.00  0.00    +0.000 C 
ATOM     23  C   UNL     1       9.673  13.665  18.419  0.00  0.00    +0.000 C 
ENDBRANCH  18  21
ENDBRANCH  15  16
ENDBRANCH  14  15
ENDBRANCH   8  14
TORSDOF 4
ENDMDL
MODEL 6
REMARK VINA RESULT:      -7.4      4.797      6.647
REMARK  Name = 
REMARK  8 active torsions:
REMARK  status: ('A' for Active; 'I' for Inactive)
REMARK    1  A    between atoms: C_1  and  C_2
REMARK    2  A    between atoms: C_3  and  C_4
REMARK    3  A    between atoms: C_8  and  O_9
REMARK    4  A    between atoms: O_9  and  C_10
REMARK    5  A    between atoms: C_10  and  C_11
REMARK    6  A    between atoms: C_13  and  C_14
REMARK    7  A    between atoms: C_14  and  C_15
REMARK    8  A    between atoms: C_14  and  C_16
REMARK                            x       y       z     vdW  Elec       q    Type
REMARK                         _______ _______ _______ _____ _____    ______ ____
ROOT
ATOM      1  C   UNL     1       1.606   3.308  21.457  0.00  0.00    +0.000 C 
ATOM      2  C   UNL     1       2.690   3.602  20.453  0.00  0.00    +0.000 A 
ATOM      3  C   UNL     1       2.647   4.552  19.494  0.00  0.00    +0.000 A 
ATOM      4  C   UNL     1       1.469   5.460  19.240  0.00  0.00    +0.000 C 
ATOM      5  C   UNL     1       3.831   4.741  18.633  0.00  0.00    +0.000 A 
ATOM      6  C   UNL     1       3.929   5.755  17.672  0.00  0.00    +0.000 A 
ATOM      7  C   UNL     1       5.087   5.913  16.900  0.00  0.00    +0.000 A 
ATOM      8  C   UNL     1       6.177   5.059  17.069  0.00  0.00    +0.000 A 
ATOM      9  C   UNL     1       6.082   4.023  17.994  0.00  0.00    +0.000 A 
ATOM     10  C   UNL     1       4.923   3.891  18.770  0.00  0.00    +0.000 A 
ATOM     11  O   UNL     1       4.923   2.863  19.725  0.00  0.00    +0.000 OA
ATOM     12  C   UNL     1       3.875   2.708  20.615  0.00  0.00    +0.000 A 
ATOM     13  O   UNL     1       3.919   1.854  21.496  0.00  0.00    +0.000 OA
ENDROOT
BRANCH   8  14
ATOM     14  O   UNL     1       7.347   5.137  16.358  0.00  0.00    +0.000 OA
BRANCH  14  15
ATOM     15  C   UNL     1       7.258   5.905  15.154  0.00  0.00    +0.000 C 
BRANCH  15  16
ATOM     16  C   UNL     1       7.035   4.991  14.008  0.00  0.00    +0.000 A 
ATOM     17  N   UNL     1       6.150   4.026  13.895  0.00  0.00    +0.000 NA
ATOM     18  C   UNL     1       6.330   3.618  12.601  0.00  0.00    +0.000 A 
ATOM     19  N   UNL     1       7.269   4.293  11.922  0.00  0.00    +0.000 NA
ATOM     20  O   UNL     1       7.742   5.215  12.864  0.00  0.00    +0.000 OA
BRANCH  18  21
ATOM     21  C   UNL     1       5.519   2.520  11.997  0.00  0.00    +0.000 C 
ATOM     22  C   UNL     1       4.323   3.079  11.225  0.00  0.00    +0.000 C 
ATOM     23  C   UNL     1       6.375   1.641  11.079  0.00  0.00    +0.000 C 
ENDBRANCH  18  21
ENDBRANCH  15  16
ENDBRANCH  14  15
ENDBRANCH   8  14
TORSDOF 4
ENDMDL
MODEL 7
REMARK VINA RESULT:      -7.4      6.056      8.048
REMARK  Name = 
REMARK  8 active torsions:
REMARK  status: ('A' for Active; 'I' for Inactive)
REMARK    1  A    between atoms: C_1  and  C_2
REMARK    2  A    between atoms: C_3  and  C_4
REMARK    3  A    between atoms: C_8  and  O_9
REMARK    4  A    between atoms: O_9  and  C_10
REMARK    5  A    between atoms: C_10  and  C_11
REMARK    6  A    between atoms: C_13  and  C_14
REMARK    7  A    between atoms: C_14  and  C_15
REMARK    8  A    between atoms: C_14  and  C_16
REMARK                            x       y       z     vdW  Elec       q    Type
REMARK                         _______ _______ _______ _____ _____    ______ ____
ROOT
ATOM      1  C   UNL     1       2.743   1.979  19.484  0.00  0.00    +0.000 C 
ATOM      2  C   UNL     1       2.523   3.464  19.612  0.00  0.00    +0.000 A 
ATOM      3  C   UNL     1       2.716   4.381  18.640  0.00  0.00    +0.000 A 
ATOM      4  C   UNL     1       3.233   4.069  17.258  0.00  0.00    +0.000 C 
ATOM      5  C   UNL     1       2.390   5.792  18.926  0.00  0.00    +0.000 A 
ATOM      6  C   UNL     1       2.464   6.808  17.966  0.00  0.00    +0.000 A 
ATOM      7  C   UNL     1       2.114   8.128  18.278  0.00  0.00    +0.000 A 
ATOM      8  C   UNL     1       1.682   8.466  19.560  0.00  0.00    +0.000 A 
ATOM      9  C   UNL     1       1.639   7.475  20.537  0.00  0.00    +0.000 A 
ATOM     10  C   UNL     1       1.975   6.157  20.203  0.00  0.00    +0.000 A 
ATOM     11  O   UNL     1       1.847   5.201  21.222  0.00  0.00    +0.000 OA
ATOM     12  C   UNL     1       2.051   3.855  20.974  0.00  0.00    +0.000 A 
ATOM     13  O   UNL     1       1.864   3.018  21.853  0.00  0.00    +0.000 OA
ENDROOT
BRANCH   8  14
ATOM     14  O   UNL     1       1.323   9.728  19.955  0.00  0.00    +0.000 OA
BRANCH  14  15
ATOM     15  C   UNL     1      -0.006   9.829  20.478  0.00  0.00    +0.000 C 
BRANCH  15  16
ATOM     16  C   UNL     1      -0.858  10.558  19.509  0.00  0.00    +0.000 A 
ATOM     17  N   UNL     1      -1.296  10.148  18.338  0.00  0.00    +0.000 NA
ATOM     18  C   UNL     1      -2.117  11.176  17.961  0.00  0.00    +0.000 A 
ATOM     19  N   UNL     1      -2.207  12.180  18.844  0.00  0.00    +0.000 NA
ATOM     20  O   UNL     1      -1.364  11.767  19.885  0.00  0.00    +0.000 OA
BRANCH  18  21
ATOM     21  C   UNL     1      -2.866  11.157  16.670  0.00  0.00    +0.000 C 
ATOM     22  C   UNL     1      -2.513   9.916  15.848  0.00  0.00    +0.000 C 
ATOM     23  C   UNL     1      -4.379  11.218  16.908  0.00  0.00    +0.000 C 
ENDBRANCH  18  21
ENDBRANCH  15  16
ENDBRANCH  14  15
ENDBRANCH   8  14
TORSDOF 4
ENDMDL
MODEL 8
REMARK VINA RESULT:      -7.4      3.921      6.662
REMARK  Name = 
REMARK  8 active torsions:
REMARK  status: ('A' for Active; 'I' for Inactive)
REMARK    1  A    between atoms: C_1  and  C_2
REMARK    2  A    between atoms: C_3  and  C_4
REMARK    3  A    between atoms: C_8  and  O_9
REMARK    4  A    between atoms: O_9  and  C_10
REMARK    5  A    between atoms: C_10  and  C_11
REMARK    6  A    between atoms: C_13  and  C_14
REMARK    7  A    between atoms: C_14  and  C_15
REMARK    8  A    between atoms: C_14  and  C_16
REMARK                            x       y       z     vdW  Elec       q    Type
REMARK                         _______ _______ _______ _____ _____    ______ ____
ROOT
ATOM      1  C   UNL     1       1.022  11.035  19.833  0.00  0.00    +0.000 C 
ATOM      2  C   UNL     1       1.389   9.599  19.563  0.00  0.00    +0.000 A 
ATOM      3  C   UNL     1       1.335   8.586  20.454  0.00  0.00    +0.000 A 
ATOM      4  C   UNL     1       0.933   8.736  21.900  0.00  0.00    +0.000 C 
ATOM      5  C   UNL     1       1.677   7.224  19.996  0.00  0.00    +0.000 A 
ATOM      6  C   UNL     1       1.565   6.089  20.808  0.00  0.00    +0.000 A 
ATOM      7  C   UNL     1       1.872   4.814  20.318  0.00  0.00    +0.000 A 
ATOM      8  C   UNL     1       2.298   4.640  19.002  0.00  0.00    +0.000 A 
ATOM      9  C   UNL     1       2.450   5.762  18.191  0.00  0.00    +0.000 A 
ATOM     10  C   UNL     1       2.122   7.028  18.693  0.00  0.00    +0.000 A 
ATOM     11  O   UNL     1       2.240   8.105  17.800  0.00  0.00    +0.000 OA
ATOM     12  C   UNL     1       1.843   9.381  18.157  0.00  0.00    +0.000 A 
ATOM     13  O   UNL     1       1.879  10.301  17.345  0.00  0.00    +0.000 OA
ENDROOT
BRANCH   8  14
ATOM     14  O   UNL     1       2.621   3.433  18.438  0.00  0.00    +0.000 OA
BRANCH  14  15
ATOM     15  C   UNL     1       3.756   2.790  19.027  0.00  0.00    +0.000 C 
BRANCH  15  16
ATOM     16  C   UNL     1       4.965   3.612  18.781  0.00  0.00    +0.000 A 
ATOM     17  N   UNL     1       5.446   4.030  17.631  0.00  0.00    +0.000 NA
ATOM     18  C   UNL     1       6.484   4.831  18.026  0.00  0.00    +0.000 A 
ATOM     19  N   UNL     1       6.648   4.928  19.353  0.00  0.00    +0.000 NA
ATOM     20  O   UNL     1       5.630   4.113  19.862  0.00  0.00    +0.000 OA
BRANCH  18  21
ATOM     21  C   UNL     1       7.345   5.553  17.043  0.00  0.00    +0.000 C 
ATOM     22  C   UNL     1       6.825   5.367  15.617  0.00  0.00    +0.000 C 
ATOM     23  C   UNL     1       7.436   7.045  17.380  0.00  0.00    +0.000 C 
ENDBRANCH  18  21
ENDBRANCH  15  16
ENDBRANCH  14  15
ENDBRANCH   8  14
TORSDOF 4
ENDMDL
MODEL 9
REMARK VINA RESULT:      -7.4      4.924      6.852
REMARK  Name = 
REMARK  8 active torsions:
REMARK  status: ('A' for Active; 'I' for Inactive)
REMARK    1  A    between atoms: C_1  and  C_2
REMARK    2  A    between atoms: C_3  and  C_4
REMARK    3  A    between atoms: C_8  and  O_9
REMARK    4  A    between atoms: O_9  and  C_10
REMARK    5  A    between atoms: C_10  and  C_11
REMARK    6  A    between atoms: C_13  and  C_14
REMARK    7  A    between atoms: C_14  and  C_15
REMARK    8  A    between atoms: C_14  and  C_16
REMARK                            x       y       z     vdW  Elec       q    Type
REMARK                         _______ _______ _______ _____ _____    ______ ____
ROOT
ATOM      1  C   UNL     1       0.358   3.487  20.263  0.00  0.00    +0.000 C 
ATOM      2  C   UNL     1       1.615   3.648  19.448  0.00  0.00    +0.000 A 
ATOM      3  C   UNL     1       2.390   4.753  19.396  0.00  0.00    +0.000 A 
ATOM      4  C   UNL     1       2.095   6.042  20.123  0.00  0.00    +0.000 C 
ATOM      5  C   UNL     1       3.625   4.713  18.588  0.00  0.00    +0.000 A 
ATOM      6  C   UNL     1       4.546   5.766  18.537  0.00  0.00    +0.000 A 
ATOM      7  C   UNL     1       5.719   5.667  17.779  0.00  0.00    +0.000 A 
ATOM      8  C   UNL     1       6.001   4.512  17.051  0.00  0.00    +0.000 A 
ATOM      9  C   UNL     1       5.078   3.469  17.060  0.00  0.00    +0.000 A 
ATOM     10  C   UNL     1       3.918   3.578  17.838  0.00  0.00    +0.000 A 
ATOM     11  O   UNL     1       3.065   2.464  17.849  0.00  0.00    +0.000 OA
ATOM     12  C   UNL     1       1.947   2.422  18.663  0.00  0.00    +0.000 A 
ATOM     13  O   UNL     1       1.249   1.414  18.722  0.00  0.00    +0.000 OA
ENDROOT
BRANCH   8  14
ATOM     14  O   UNL     1       7.121   4.328  16.281  0.00  0.00    +0.000 OA
BRANCH  14  15
ATOM     15  C   UNL     1       7.349   5.357  15.313  0.00  0.00    +0.000 C 
BRANCH  15  16
ATOM     16  C   UNL     1       7.139   4.803  13.954  0.00  0.00    +0.000 A 
ATOM     17  N   UNL     1       6.265   3.899  13.568  0.00  0.00    +0.000 NA
ATOM     18  C   UNL     1       6.451   3.878  12.212  0.00  0.00    +0.000 A 
ATOM     19  N   UNL     1       7.383   4.728  11.757  0.00  0.00    +0.000 NA
ATOM     20  O   UNL     1       7.844   5.351  12.923  0.00  0.00    +0.000 OA
BRANCH  18  21
ATOM     21  C   UNL     1       5.654   2.986  11.318  0.00  0.00    +0.000 C 
ATOM     22  C   UNL     1       6.036   1.519  11.523  0.00  0.00    +0.000 C 
ATOM     23  C   UNL     1       4.151   3.177  11.546  0.00  0.00    +0.000 C 
ENDBRANCH  18  21
ENDBRANCH  15  16
ENDBRANCH  14  15
ENDBRANCH   8  14
TORSDOF 4
ENDMDL
