MODEL 1
REMARK VINA RESULT:      -7.5      0.000      0.000
REMARK  Name = 
REMARK  9 active torsions:
REMARK  status: ('A' for Active; 'I' for Inactive)
REMARK    1  A    between atoms: C_1  and  C_2
REMARK    2  A    between atoms: C_2  and  N_3
REMARK    3  A    between atoms: N_3  and  C_4
REMARK    4  A    between atoms: N_3  and  C_6
REMARK    5  A    between atoms: C_4  and  C_5
REMARK    6  A    between atoms: C_6  and  C_7
REMARK    7  A    between atoms: C_13  and  N_14
REMARK    8  A    between atoms: N_17  and  C_18
REMARK    9  A    between atoms: C_22  and  C_23
REMARK                            x       y       z     vdW  Elec       q    Type
REMARK                         _______ _______ _______ _____ _____    ______ ____
ROOT
ATOM      1  N   UNL     1       1.050  10.449  19.438  0.00  0.00    +0.000 NA
ATOM      2  C   UNL     1       1.432   9.671  20.627  0.00  0.00    +0.000 C 
ATOM      3  C   UNL     1       1.433   8.132  20.485  0.00  0.00    +0.000 C 
ATOM      4  N   UNL     1       2.065   7.673  19.231  0.00  0.00    +0.000 N 
ATOM      5  C   UNL     1       1.822   8.464  18.011  0.00  0.00    +0.000 C 
ATOM      6  C   UNL     1       1.858   9.975  18.302  0.00  0.00    +0.000 C 
ENDROOT
BRANCH   1  13
ATOM      7  C   UNL     1      -3.210  12.464  19.943  0.00  0.00    +0.000 C 
ATOM      8  O   UNL     1      -4.393  12.149  19.775  0.00  0.00    +0.000 OA
ATOM      9  N   UNL     1      -2.248  12.245  18.973  0.00  0.00    +0.000 N 
ATOM     10  C   UNL     1      -2.647  11.717  17.687  0.00  0.00    +0.000 C 
ATOM     11  C   UNL     1      -2.475  10.211  17.695  0.00  0.00    +0.000 C 
ATOM     12  C   UNL     1      -1.026   9.841  18.019  0.00  0.00    +0.000 C 
ATOM     13  C   UNL     1      -0.407  10.595  19.221  0.00  0.00    +0.000 C 
ATOM     14  C   UNL     1      -0.824  12.093  19.256  0.00  0.00    +0.000 C 
BRANCH   7  15
ATOM     15  C   UNL     1      -2.788  13.185  21.232  0.00  0.00    +0.000 C 
BRANCH  15  16
ATOM     16  N   UNL     1      -2.801  12.260  22.396  0.00  0.00    +0.000 NA
BRANCH  16  18
ATOM     17  C   UNL     1      -1.038  10.596  23.103  0.00  0.00    +0.000 C 
ATOM     18  C   UNL     1      -1.434  12.057  22.914  0.00  0.00    +0.000 C 
ENDBRANCH  16  18
BRANCH  16  19
ATOM     19  C   UNL     1      -3.774  12.696  23.408  0.00  0.00    +0.000 C 
ATOM     20  C   UNL     1      -3.434  13.983  24.154  0.00  0.00    +0.000 C 
ENDBRANCH  16  19
ENDBRANCH  15  16
ENDBRANCH   7  15
ENDBRANCH   1  13
BRANCH   4  21
ATOM     21  C   UNL     1       2.679   6.431  19.174  0.00  0.00    +0.000 A 
ATOM     22  C   UNL     1       3.803   6.207  18.367  0.00  0.00    +0.000 A 
ATOM     23  C   UNL     1       4.520   5.010  18.405  0.00  0.00    +0.000 A 
ATOM     24  C   UNL     1       4.128   3.990  19.259  0.00  0.00    +0.000 A 
ATOM     25  C   UNL     1       2.995   4.149  20.057  0.00  0.00    +0.000 A 
ATOM     26  C   UNL     1       2.272   5.355  19.986  0.00  0.00    +0.000 A 
BRANCH  25  27
ATOM     27  C   UNL     1       2.554   3.071  21.011  0.00  0.00    +0.000 C 
ATOM     28  F   UNL     1       1.579   2.263  20.509  0.00  0.00    +0.000 F 
ATOM     29  F   UNL     1       3.576   2.241  21.366  0.00  0.00    +0.000 F 
ATOM     30  F   UNL     1       2.060   3.570  22.179  0.00  0.00    +0.000 F 
ENDBRANCH  25  27
ENDBRANCH   4  21
TORSDOF 7
ENDMDL
MODEL 2
REMARK VINA RESULT:      -7.5      2.499      2.989
REMARK  Name = 
REMARK  9 active torsions:
REMARK  status: ('A' for Active; 'I' for Inactive)
REMARK    1  A    between atoms: C_1  and  C_2
REMARK    2  A    between atoms: C_2  and  N_3
REMARK    3  A    between atoms: N_3  and  C_4
REMARK    4  A    between atoms: N_3  and  C_6
REMARK    5  A    between atoms: C_4  and  C_5
REMARK    6  A    between atoms: C_6  and  C_7
REMARK    7  A    between atoms: C_13  and  N_14
REMARK    8  A    between atoms: N_17  and  C_18
REMARK    9  A    between atoms: C_22  and  C_23
REMARK                            x       y       z     vdW  Elec       q    Type
REMARK                         _______ _______ _______ _____ _____    ______ ____
ROOT
ATOM      1  N   UNL     1       0.429  10.957  19.683  0.00  0.00    +0.000 NA
ATOM      2  C   UNL     1       0.905  10.041  20.731  0.00  0.00    +0.000 C 
ATOM      3  C   UNL     1       1.157   8.574  20.316  0.00  0.00    +0.000 C 
ATOM      4  N   UNL     1       1.879   8.457  19.034  0.00  0.00    +0.000 N 
ATOM      5  C   UNL     1       1.538   9.413  17.964  0.00  0.00    +0.000 C 
ATOM      6  C   UNL     1       1.326  10.831  18.523  0.00  0.00    +0.000 C 
ENDROOT
BRANCH   1  13
ATOM      7  C   UNL     1      -4.064  12.427  20.032  0.00  0.00    +0.000 C 
ATOM      8  O   UNL     1      -5.192  11.964  19.838  0.00  0.00    +0.000 OA
ATOM      9  N   UNL     1      -3.053  12.316  19.093  0.00  0.00    +0.000 N 
ATOM     10  C   UNL     1      -3.345  11.721  17.807  0.00  0.00    +0.000 C 
ATOM     11  C   UNL     1      -2.985  10.249  17.850  0.00  0.00    +0.000 C 
ATOM     12  C   UNL     1      -1.512  10.070  18.220  0.00  0.00    +0.000 C 
ATOM     13  C   UNL     1      -1.028  10.915  19.424  0.00  0.00    +0.000 C 
ATOM     14  C   UNL     1      -1.631  12.349  19.418  0.00  0.00    +0.000 C 
BRANCH   7  15
ATOM     15  C   UNL     1      -3.774  13.216  21.317  0.00  0.00    +0.000 C 
BRANCH  15  16
ATOM     16  N   UNL     1      -4.175  12.447  22.525  0.00  0.00    +0.000 NA
BRANCH  16  18
ATOM     17  C   UNL     1      -1.752  12.953  23.023  0.00  0.00    +0.000 C 
ATOM     18  C   UNL     1      -2.999  12.142  23.362  0.00  0.00    +0.000 C 
ENDBRANCH  16  18
BRANCH  16  19
ATOM     19  C   UNL     1      -5.271  13.116  23.239  0.00  0.00    +0.000 C 
ATOM     20  C   UNL     1      -4.995  14.543  23.705  0.00  0.00    +0.000 C 
ENDBRANCH  16  19
ENDBRANCH  15  16
ENDBRANCH   7  15
ENDBRANCH   1  13
BRANCH   4  21
ATOM     21  C   UNL     1       2.686   7.356  18.786  0.00  0.00    +0.000 A 
ATOM     22  C   UNL     1       2.601   6.196  19.568  0.00  0.00    +0.000 A 
ATOM     23  C   UNL     1       3.298   5.030  19.249  0.00  0.00    +0.000 A 
ATOM     24  C   UNL     1       4.113   4.990  18.128  0.00  0.00    +0.000 A 
ATOM     25  C   UNL     1       4.261   6.130  17.336  0.00  0.00    +0.000 A 
ATOM     26  C   UNL     1       3.567   7.303  17.690  0.00  0.00    +0.000 A 
BRANCH  25  27
ATOM     27  C   UNL     1       5.119   6.116  16.099  0.00  0.00    +0.000 C 
ATOM     28  F   UNL     1       6.446   6.294  16.353  0.00  0.00    +0.000 F 
ATOM     29  F   UNL     1       5.029   4.938  15.417  0.00  0.00    +0.000 F 
ATOM     30  F   UNL     1       4.776   7.088  15.208  0.00  0.00    +0.000 F 
ENDBRANCH  25  27
ENDBRANCH   4  21
TORSDOF 7
ENDMDL
MODEL 3
REMARK VINA RESULT:      -7.4      1.189      1.398
REMARK  Name = 
REMARK  9 active torsions:
REMARK  status: ('A' for Active; 'I' for Inactive)
REMARK    1  A    between atoms: C_1  and  C_2
REMARK    2  A    between atoms: C_2  and  N_3
REMARK    3  A    between atoms: N_3  and  C_4
REMARK    4  A    between atoms: N_3  and  C_6
REMARK    5  A    between atoms: C_4  and  C_5
REMARK    6  A    between atoms: C_6  and  C_7
REMARK    7  A    between atoms: C_13  and  N_14
REMARK    8  A    between atoms: N_17  and  C_18
REMARK    9  A    between atoms: C_22  and  C_23
REMARK                            x       y       z     vdW  Elec       q    Type
REMARK                         _______ _______ _______ _____ _____    ______ ____
ROOT
ATOM      1  N   UNL     1       1.121  10.292  19.406  0.00  0.00    +0.000 NA
ATOM      2  C   UNL     1       1.449   9.253  20.395  0.00  0.00    +0.000 C 
ATOM      3  C   UNL     1       1.500   7.795  19.886  0.00  0.00    +0.000 C 
ATOM      4  N   UNL     1       2.219   7.660  18.603  0.00  0.00    +0.000 N 
ATOM      5  C   UNL     1       2.031   8.721  17.596  0.00  0.00    +0.000 C 
ATOM      6  C   UNL     1       2.009  10.116  18.245  0.00  0.00    +0.000 C 
ENDROOT
BRANCH   1  13
ATOM      7  C   UNL     1      -3.133  12.337  19.839  0.00  0.00    +0.000 C 
ATOM      8  O   UNL     1      -4.311  12.049  19.603  0.00  0.00    +0.000 OA
ATOM      9  N   UNL     1      -2.132  12.158  18.900  0.00  0.00    +0.000 N 
ATOM     10  C   UNL     1      -2.481  11.707  17.571  0.00  0.00    +0.000 C 
ATOM     11  C   UNL     1      -2.328  10.200  17.503  0.00  0.00    +0.000 C 
ATOM     12  C   UNL     1      -0.899   9.792  17.868  0.00  0.00    +0.000 C 
ATOM     13  C   UNL     1      -0.323  10.470  19.135  0.00  0.00    +0.000 C 
ATOM     14  C   UNL     1      -0.724  11.970  19.235  0.00  0.00    +0.000 C 
BRANCH   7  15
ATOM     15  C   UNL     1      -2.759  12.980  21.182  0.00  0.00    +0.000 C 
BRANCH  15  16
ATOM     16  N   UNL     1      -3.337  12.222  22.323  0.00  0.00    +0.000 NA
BRANCH  16  18
ATOM     17  C   UNL     1      -1.102  11.108  22.699  0.00  0.00    +0.000 C 
ATOM     18  C   UNL     1      -2.286  11.863  23.295  0.00  0.00    +0.000 C 
ENDBRANCH  16  18
BRANCH  16  19
ATOM     19  C   UNL     1      -4.484  12.933  22.905  0.00  0.00    +0.000 C 
ATOM     20  C   UNL     1      -4.687  12.761  24.408  0.00  0.00    +0.000 C 
ENDBRANCH  16  19
ENDBRANCH  15  16
ENDBRANCH   7  15
ENDBRANCH   1  13
BRANCH   4  21
ATOM     21  C   UNL     1       2.869   6.475  18.289  0.00  0.00    +0.000 A 
ATOM     22  C   UNL     1       4.245   6.444  18.022  0.00  0.00    +0.000 A 
ATOM     23  C   UNL     1       4.942   5.248  17.846  0.00  0.00    +0.000 A 
ATOM     24  C   UNL     1       4.275   4.034  17.930  0.00  0.00    +0.000 A 
ATOM     25  C   UNL     1       2.899   4.012  18.159  0.00  0.00    +0.000 A 
ATOM     26  C   UNL     1       2.211   5.231  18.310  0.00  0.00    +0.000 A 
BRANCH  25  27
ATOM     27  C   UNL     1       2.148   2.713  18.279  0.00  0.00    +0.000 C 
ATOM     28  F   UNL     1       2.386   1.848  17.253  0.00  0.00    +0.000 F 
ATOM     29  F   UNL     1       2.466   2.032  19.417  0.00  0.00    +0.000 F 
ATOM     30  F   UNL     1       0.797   2.885  18.315  0.00  0.00    +0.000 F 
ENDBRANCH  25  27
ENDBRANCH   4  21
TORSDOF 7
ENDMDL
MODEL 4
REMARK VINA RESULT:      -7.2      0.571      1.040
REMARK  Name = 
REMARK  9 active torsions:
REMARK  status: ('A' for Active; 'I' for Inactive)
REMARK    1  A    between atoms: C_1  and  C_2
REMARK    2  A    between atoms: C_2  and  N_3
REMARK    3  A    between atoms: N_3  and  C_4
REMARK    4  A    between atoms: N_3  and  C_6
REMARK    5  A    between atoms: C_4  and  C_5
REMARK    6  A    between atoms: C_6  and  C_7
REMARK    7  A    between atoms: C_13  and  N_14
REMARK    8  A    between atoms: N_17  and  C_18
REMARK    9  A    between atoms: C_22  and  C_23
REMARK                            x       y       z     vdW  Elec       q    Type
REMARK                         _______ _______ _______ _____ _____    ______ ____
ROOT
ATOM      1  N   UNL     1       1.051  10.396  19.292  0.00  0.00    +0.000 NA
ATOM      2  C   UNL     1       1.396   9.665  20.521  0.00  0.00    +0.000 C 
ATOM      3  C   UNL     1       1.403   8.122  20.438  0.00  0.00    +0.000 C 
ATOM      4  N   UNL     1       2.074   7.617  19.223  0.00  0.00    +0.000 N 
ATOM      5  C   UNL     1       1.870   8.360  17.967  0.00  0.00    +0.000 C 
ATOM      6  C   UNL     1       1.895   9.881  18.201  0.00  0.00    +0.000 C 
ENDROOT
BRANCH   1  13
ATOM      7  C   UNL     1      -3.228  12.412  19.598  0.00  0.00    +0.000 C 
ATOM      8  O   UNL     1      -4.403  12.088  19.401  0.00  0.00    +0.000 OA
ATOM      9  N   UNL     1      -2.233  12.167  18.667  0.00  0.00    +0.000 N 
ATOM     10  C   UNL     1      -2.590  11.599  17.385  0.00  0.00    +0.000 C 
ATOM     11  C   UNL     1      -2.415  10.094  17.444  0.00  0.00    +0.000 C 
ATOM     12  C   UNL     1      -0.976   9.739  17.826  0.00  0.00    +0.000 C 
ATOM     13  C   UNL     1      -0.398  10.531  19.023  0.00  0.00    +0.000 C 
ATOM     14  C   UNL     1      -0.820  12.028  19.000  0.00  0.00    +0.000 C 
BRANCH   7  15
ATOM     15  C   UNL     1      -2.850  13.172  20.877  0.00  0.00    +0.000 C 
BRANCH  15  16
ATOM     16  N   UNL     1      -2.871  12.277  22.064  0.00  0.00    +0.000 NA
BRANCH  16  18
ATOM     17  C   UNL     1      -0.644  13.380  22.509  0.00  0.00    +0.000 C 
ATOM     18  C   UNL     1      -1.518  12.136  22.635  0.00  0.00    +0.000 C 
ENDBRANCH  16  18
BRANCH  16  19
ATOM     19  C   UNL     1      -3.895  12.702  23.029  0.00  0.00    +0.000 C 
ATOM     20  C   UNL     1      -4.752  13.895  22.616  0.00  0.00    +0.000 C 
ENDBRANCH  16  19
ENDBRANCH  15  16
ENDBRANCH   7  15
ENDBRANCH   1  13
BRANCH   4  21
ATOM     21  C   UNL     1       2.692   6.374  19.233  0.00  0.00    +0.000 A 
ATOM     22  C   UNL     1       3.954   6.179  18.656  0.00  0.00    +0.000 A 
ATOM     23  C   UNL     1       4.653   4.978  18.781  0.00  0.00    +0.000 A 
ATOM     24  C   UNL     1       4.102   3.923  19.493  0.00  0.00    +0.000 A 
ATOM     25  C   UNL     1       2.832   4.053  20.057  0.00  0.00    +0.000 A 
ATOM     26  C   UNL     1       2.134   5.266  19.898  0.00  0.00    +0.000 A 
BRANCH  25  27
ATOM     27  C   UNL     1       2.214   2.936  20.855  0.00  0.00    +0.000 C 
ATOM     28  F   UNL     1       3.070   2.362  21.745  0.00  0.00    +0.000 F 
ATOM     29  F   UNL     1       1.143   3.354  21.590  0.00  0.00    +0.000 F 
ATOM     30  F   UNL     1       1.753   1.921  20.073  0.00  0.00    +0.000 F 
ENDBRANCH  25  27
ENDBRANCH   4  21
TORSDOF 7
ENDMDL
MODEL 5
REMARK VINA RESULT:      -7.2      2.602      3.145
REMARK  Name = 
REMARK  9 active torsions:
REMARK  status: ('A' for Active; 'I' for Inactive)
REMARK    1  A    between atoms: C_1  and  C_2
REMARK    2  A    between atoms: C_2  and  N_3
REMARK    3  A    between atoms: N_3  and  C_4
REMARK    4  A    between atoms: N_3  and  C_6
REMARK    5  A    between atoms: C_4  and  C_5
REMARK    6  A    between atoms: C_6  and  C_7
REMARK    7  A    between atoms: C_13  and  N_14
REMARK    8  A    between atoms: N_17  and  C_18
REMARK    9  A    between atoms: C_22  and  C_23
REMARK                            x       y       z     vdW  Elec       q    Type
REMARK                         _______ _______ _______ _____ _____    ______ ____
ROOT
ATOM      1  N   UNL     1       0.386  10.838  19.643  0.00  0.00    +0.000 NA
ATOM      2  C   UNL     1       0.833   9.895  20.680  0.00  0.00    +0.000 C 
ATOM      3  C   UNL     1       1.101   8.440  20.233  0.00  0.00    +0.000 C 
ATOM      4  N   UNL     1       1.864   8.360  18.971  0.00  0.00    +0.000 N 
ATOM      5  C   UNL     1       1.553   9.344  17.917  0.00  0.00    +0.000 C 
ATOM      6  C   UNL     1       1.320  10.746  18.508  0.00  0.00    +0.000 C 
ENDROOT
BRANCH   1  13
ATOM      7  C   UNL     1      -4.095  12.378  19.766  0.00  0.00    +0.000 C 
ATOM      8  O   UNL     1      -5.222  11.918  19.558  0.00  0.00    +0.000 OA
ATOM      9  N   UNL     1      -3.055  12.207  18.868  0.00  0.00    +0.000 N 
ATOM     10  C   UNL     1      -3.313  11.551  17.605  0.00  0.00    +0.000 C 
ATOM     11  C   UNL     1      -2.975  10.078  17.734  0.00  0.00    +0.000 C 
ATOM     12  C   UNL     1      -1.517   9.901  18.162  0.00  0.00    +0.000 C 
ATOM     13  C   UNL     1      -1.061  10.800  19.337  0.00  0.00    +0.000 C 
ATOM     14  C   UNL     1      -1.644  12.239  19.239  0.00  0.00    +0.000 C 
BRANCH   7  15
ATOM     15  C   UNL     1      -3.837  13.227  21.019  0.00  0.00    +0.000 C 
BRANCH  15  16
ATOM     16  N   UNL     1      -4.588  12.704  22.190  0.00  0.00    +0.000 NA
BRANCH  16  18
ATOM     17  C   UNL     1      -4.264  12.392  24.675  0.00  0.00    +0.000 C 
ATOM     18  C   UNL     1      -3.663  12.322  23.274  0.00  0.00    +0.000 C 
ENDBRANCH  16  18
BRANCH  16  19
ATOM     19  C   UNL     1      -5.649  13.636  22.598  0.00  0.00    +0.000 C 
ATOM     20  C   UNL     1      -6.089  14.652  21.548  0.00  0.00    +0.000 C 
ENDBRANCH  16  19
ENDBRANCH  15  16
ENDBRANCH   7  15
ENDBRANCH   1  13
BRANCH   4  21
ATOM     21  C   UNL     1       2.681   7.268  18.719  0.00  0.00    +0.000 A 
ATOM     22  C   UNL     1       2.542   6.070  19.434  0.00  0.00    +0.000 A 
ATOM     23  C   UNL     1       3.255   4.917  19.100  0.00  0.00    +0.000 A 
ATOM     24  C   UNL     1       4.139   4.929  18.031  0.00  0.00    +0.000 A 
ATOM     25  C   UNL     1       4.340   6.106  17.310  0.00  0.00    +0.000 A 
ATOM     26  C   UNL     1       3.629   7.265  17.678  0.00  0.00    +0.000 A 
BRANCH  25  27
ATOM     27  C   UNL     1       5.275   6.150  16.130  0.00  0.00    +0.000 C 
ATOM     28  F   UNL     1       4.825   6.928  15.106  0.00  0.00    +0.000 F 
ATOM     29  F   UNL     1       6.503   6.644  16.458  0.00  0.00    +0.000 F 
ATOM     30  F   UNL     1       5.502   4.920  15.591  0.00  0.00    +0.000 F 
ENDBRANCH  25  27
ENDBRANCH   4  21
TORSDOF 7
ENDMDL
MODEL 6
REMARK VINA RESULT:      -7.1      1.336      1.733
REMARK  Name = 
REMARK  9 active torsions:
REMARK  status: ('A' for Active; 'I' for Inactive)
REMARK    1  A    between atoms: C_1  and  C_2
REMARK    2  A    between atoms: C_2  and  N_3
REMARK    3  A    between atoms: N_3  and  C_4
REMARK    4  A    between atoms: N_3  and  C_6
REMARK    5  A    between atoms: C_4  and  C_5
REMARK    6  A    between atoms: C_6  and  C_7
REMARK    7  A    between atoms: C_13  and  N_14
REMARK    8  A    between atoms: N_17  and  C_18
REMARK    9  A    between atoms: C_22  and  C_23
REMARK                            x       y       z     vdW  Elec       q    Type
REMARK                         _______ _______ _______ _____ _____    ______ ____
ROOT
ATOM      1  N   UNL     1       1.075  10.327  19.455  0.00  0.00    +0.000 NA
ATOM      2  C   UNL     1       1.403   9.241  20.391  0.00  0.00    +0.000 C 
ATOM      3  C   UNL     1       1.469   7.812  19.808  0.00  0.00    +0.000 C 
ATOM      4  N   UNL     1       2.199   7.749  18.526  0.00  0.00    +0.000 N 
ATOM      5  C   UNL     1       2.011   8.859  17.574  0.00  0.00    +0.000 C 
ATOM      6  C   UNL     1       1.974  10.218  18.294  0.00  0.00    +0.000 C 
ENDROOT
BRANCH   1  13
ATOM      7  C   UNL     1      -3.158  12.428  19.824  0.00  0.00    +0.000 C 
ATOM      8  O   UNL     1      -4.339  12.143  19.603  0.00  0.00    +0.000 OA
ATOM      9  N   UNL     1      -2.161  12.205  18.890  0.00  0.00    +0.000 N 
ATOM     10  C   UNL     1      -2.519  11.709  17.579  0.00  0.00    +0.000 C 
ATOM     11  C   UNL     1      -2.380  10.200  17.566  0.00  0.00    +0.000 C 
ATOM     12  C   UNL     1      -0.954   9.792  17.941  0.00  0.00    +0.000 C 
ATOM     13  C   UNL     1      -0.368  10.510  19.181  0.00  0.00    +0.000 C 
ATOM     14  C   UNL     1      -0.754  12.016  19.228  0.00  0.00    +0.000 C 
BRANCH   7  15
ATOM     15  C   UNL     1      -2.775  13.116  21.143  0.00  0.00    +0.000 C 
BRANCH  15  16
ATOM     16  N   UNL     1      -3.854  12.981  22.156  0.00  0.00    +0.000 NA
BRANCH  16  18
ATOM     17  C   UNL     1      -4.175  12.562  24.625  0.00  0.00    +0.000 C 
ATOM     18  C   UNL     1      -3.349  12.308  23.368  0.00  0.00    +0.000 C 
ENDBRANCH  16  18
BRANCH  16  19
ATOM     19  C   UNL     1      -4.508  14.273  22.408  0.00  0.00    +0.000 C 
ATOM     20  C   UNL     1      -5.878  14.467  21.765  0.00  0.00    +0.000 C 
ENDBRANCH  16  19
ENDBRANCH  15  16
ENDBRANCH   7  15
ENDBRANCH   1  13
BRANCH   4  21
ATOM     21  C   UNL     1       2.859   6.586  18.157  0.00  0.00    +0.000 A 
ATOM     22  C   UNL     1       4.189   6.610  17.711  0.00  0.00    +0.000 A 
ATOM     23  C   UNL     1       4.915   5.442  17.473  0.00  0.00    +0.000 A 
ATOM     24  C   UNL     1       4.326   4.203  17.672  0.00  0.00    +0.000 A 
ATOM     25  C   UNL     1       2.994   4.124  18.080  0.00  0.00    +0.000 A 
ATOM     26  C   UNL     1       2.272   5.315  18.292  0.00  0.00    +0.000 A 
BRANCH  25  27
ATOM     27  C   UNL     1       2.329   2.796  18.328  0.00  0.00    +0.000 C 
ATOM     28  F   UNL     1       0.973   2.834  18.209  0.00  0.00    +0.000 F 
ATOM     29  F   UNL     1       2.749   1.835  17.456  0.00  0.00    +0.000 F 
ATOM     30  F   UNL     1       2.581   2.304  19.572  0.00  0.00    +0.000 F 
ENDBRANCH  25  27
ENDBRANCH   4  21
TORSDOF 7
ENDMDL
MODEL 7
REMARK VINA RESULT:      -7.1      5.131      7.840
REMARK  Name = 
REMARK  9 active torsions:
REMARK  status: ('A' for Active; 'I' for Inactive)
REMARK    1  A    between atoms: C_1  and  C_2
REMARK    2  A    between atoms: C_2  and  N_3
REMARK    3  A    between atoms: N_3  and  C_4
REMARK    4  A    between atoms: N_3  and  C_6
REMARK    5  A    between atoms: C_4  and  C_5
REMARK    6  A    between atoms: C_6  and  C_7
REMARK    7  A    between atoms: C_13  and  N_14
REMARK    8  A    between atoms: N_17  and  C_18
REMARK    9  A    between atoms: C_22  and  C_23
REMARK                            x       y       z     vdW  Elec       q    Type
REMARK                         _______ _______ _______ _____ _____    ______ ____
ROOT
ATOM      1  N   UNL     1       6.178   5.789  18.379  0.00  0.00    +0.000 NA
ATOM      2  C   UNL     1       7.082   4.731  17.902  0.00  0.00    +0.000 C 
ATOM      3  C   UNL     1       6.753   4.097  16.531  0.00  0.00    +0.000 C 
ATOM      4  N   UNL     1       6.398   5.099  15.507  0.00  0.00    +0.000 N 
ATOM      5  C   UNL     1       5.584   6.254  15.929  0.00  0.00    +0.000 C 
ATOM      6  C   UNL     1       6.029   6.784  17.304  0.00  0.00    +0.000 C 
ENDROOT
BRANCH   1  13
ATOM      7  C   UNL     1       1.848   6.214  20.259  0.00  0.00    +0.000 C 
ATOM      8  O   UNL     1       1.113   5.566  21.012  0.00  0.00    +0.000 OA
ATOM      9  N   UNL     1       2.482   5.634  19.174  0.00  0.00    +0.000 N 
ATOM     10  C   UNL     1       2.208   4.251  18.852  0.00  0.00    +0.000 C 
ATOM     11  C   UNL     1       3.269   3.375  19.490  0.00  0.00    +0.000 C 
ATOM     12  C   UNL     1       4.662   3.790  19.012  0.00  0.00    +0.000 C 
ATOM     13  C   UNL     1       4.942   5.312  19.039  0.00  0.00    +0.000 C 
ATOM     14  C   UNL     1       3.712   6.147  18.579  0.00  0.00    +0.000 C 
BRANCH   7  15
ATOM     15  C   UNL     1       2.019   7.724  20.476  0.00  0.00    +0.000 C 
BRANCH  15  16
ATOM     16  N   UNL     1       0.790   8.467  20.090  0.00  0.00    +0.000 NA
BRANCH  16  18
ATOM     17  C   UNL     1       0.923   9.223  22.496  0.00  0.00    +0.000 C 
ATOM     18  C   UNL     1       0.048   8.903  21.289  0.00  0.00    +0.000 C 
ENDBRANCH  16  18
BRANCH  16  19
ATOM     19  C   UNL     1       1.100   9.548  19.143  0.00  0.00    +0.000 C 
ATOM     20  C   UNL     1       1.713   9.118  17.813  0.00  0.00    +0.000 C 
ENDBRANCH  16  19
ENDBRANCH  15  16
ENDBRANCH   7  15
ENDBRANCH   1  13
BRANCH   4  21
ATOM     21  C   UNL     1       6.642   4.842  14.166  0.00  0.00    +0.000 A 
ATOM     22  C   UNL     1       7.586   5.582  13.439  0.00  0.00    +0.000 A 
ATOM     23  C   UNL     1       7.949   5.247  12.134  0.00  0.00    +0.000 A 
ATOM     24  C   UNL     1       7.371   4.151  11.509  0.00  0.00    +0.000 A 
ATOM     25  C   UNL     1       6.401   3.404  12.176  0.00  0.00    +0.000 A 
ATOM     26  C   UNL     1       6.031   3.773  13.484  0.00  0.00    +0.000 A 
BRANCH  25  27
ATOM     27  C   UNL     1       5.769   2.196  11.537  0.00  0.00    +0.000 C 
ATOM     28  F   UNL     1       4.517   2.427  11.051  0.00  0.00    +0.000 F 
ATOM     29  F   UNL     1       6.494   1.728  10.480  0.00  0.00    +0.000 F 
ATOM     30  F   UNL     1       5.647   1.146  12.396  0.00  0.00    +0.000 F 
ENDBRANCH  25  27
ENDBRANCH   4  21
TORSDOF 7
ENDMDL
MODEL 8
REMARK VINA RESULT:      -6.9      0.874      1.313
REMARK  Name = 
REMARK  9 active torsions:
REMARK  status: ('A' for Active; 'I' for Inactive)
REMARK    1  A    between atoms: C_1  and  C_2
REMARK    2  A    between atoms: C_2  and  N_3
REMARK    3  A    between atoms: N_3  and  C_4
REMARK    4  A    between atoms: N_3  and  C_6
REMARK    5  A    between atoms: C_4  and  C_5
REMARK    6  A    between atoms: C_6  and  C_7
REMARK    7  A    between atoms: C_13  and  N_14
REMARK    8  A    between atoms: N_17  and  C_18
REMARK    9  A    between atoms: C_22  and  C_23
REMARK                            x       y       z     vdW  Elec       q    Type
REMARK                         _______ _______ _______ _____ _____    ______ ____
ROOT
ATOM      1  N   UNL     1       0.959  10.549  19.556  0.00  0.00    +0.000 NA
ATOM      2  C   UNL     1       1.377   9.756  20.723  0.00  0.00    +0.000 C 
ATOM      3  C   UNL     1       1.384   8.219  20.557  0.00  0.00    +0.000 C 
ATOM      4  N   UNL     1       1.983   7.783  19.280  0.00  0.00    +0.000 N 
ATOM      5  C   UNL     1       1.703   8.590  18.079  0.00  0.00    +0.000 C 
ATOM      6  C   UNL     1       1.738  10.097  18.392  0.00  0.00    +0.000 C 
ENDROOT
BRANCH   1  13
ATOM      7  C   UNL     1      -3.285  12.577  20.141  0.00  0.00    +0.000 C 
ATOM      8  O   UNL     1      -4.472  12.258  20.019  0.00  0.00    +0.000 OA
ATOM      9  N   UNL     1      -2.353  12.333  19.148  0.00  0.00    +0.000 N 
ATOM     10  C   UNL     1      -2.793  11.770  17.889  0.00  0.00    +0.000 C 
ATOM     11  C   UNL     1      -2.619  10.264  17.932  0.00  0.00    +0.000 C 
ATOM     12  C   UNL     1      -1.161   9.904  18.220  0.00  0.00    +0.000 C 
ATOM     13  C   UNL     1      -0.504  10.689  19.381  0.00  0.00    +0.000 C 
ATOM     14  C   UNL     1      -0.921  12.188  19.390  0.00  0.00    +0.000 C 
BRANCH   7  15
ATOM     15  C   UNL     1      -2.824  13.332  21.396  0.00  0.00    +0.000 C 
BRANCH  15  16
ATOM     16  N   UNL     1      -3.931  13.475  22.378  0.00  0.00    +0.000 NA
BRANCH  16  18
ATOM     17  C   UNL     1      -4.448  12.395  24.601  0.00  0.00    +0.000 C 
ATOM     18  C   UNL     1      -3.458  13.178  23.744  0.00  0.00    +0.000 C 
ENDBRANCH  16  18
BRANCH  16  19
ATOM     19  C   UNL     1      -4.598  14.778  22.237  0.00  0.00    +0.000 C 
ATOM     20  C   UNL     1      -4.219  15.839  23.265  0.00  0.00    +0.000 C 
ENDBRANCH  16  19
ENDBRANCH  15  16
ENDBRANCH   7  15
ENDBRANCH   1  13
BRANCH   4  21
ATOM     21  C   UNL     1       2.603   6.545  19.187  0.00  0.00    +0.000 A 
ATOM     22  C   UNL     1       3.711   6.342  18.353  0.00  0.00    +0.000 A 
ATOM     23  C   UNL     1       4.435   5.149  18.353  0.00  0.00    +0.000 A 
ATOM     24  C   UNL     1       4.067   4.111  19.196  0.00  0.00    +0.000 A 
ATOM     25  C   UNL     1       2.950   4.249  20.021  0.00  0.00    +0.000 A 
ATOM     26  C   UNL     1       2.219   5.453  19.987  0.00  0.00    +0.000 A 
BRANCH  25  27
ATOM     27  C   UNL     1       2.534   3.152  20.964  0.00  0.00    +0.000 C 
ATOM     28  F   UNL     1       3.538   2.280  21.262  0.00  0.00    +0.000 F 
ATOM     29  F   UNL     1       2.097   3.635  22.163  0.00  0.00    +0.000 F 
ATOM     30  F   UNL     1       1.514   2.393  20.475  0.00  0.00    +0.000 F 
ENDBRANCH  25  27
ENDBRANCH   4  21
TORSDOF 7
ENDMDL
MODEL 9
REMARK VINA RESULT:      -6.9      1.080      1.711
REMARK  Name = 
REMARK  9 active torsions:
REMARK  status: ('A' for Active; 'I' for Inactive)
REMARK    1  A    between atoms: C_1  and  C_2
REMARK    2  A    between atoms: C_2  and  N_3
REMARK    3  A    between atoms: N_3  and  C_4
REMARK    4  A    between atoms: N_3  and  C_6
REMARK    5  A    between atoms: C_4  and  C_5
REMARK    6  A    between atoms: C_6  and  C_7
REMARK    7  A    between atoms: C_13  and  N_14
REMARK    8  A    between atoms: N_17  and  C_18
REMARK    9  A    between atoms: C_22  and  C_23
REMARK                            x       y       z     vdW  Elec       q    Type
REMARK                         _______ _______ _______ _____ _____    ______ ____
ROOT
ATOM      1  N   UNL     1       1.027  10.322  19.292  0.00  0.00    +0.000 NA
ATOM      2  C   UNL     1       1.334   9.549  20.506  0.00  0.00    +0.000 C 
ATOM      3  C   UNL     1       1.360   8.010  20.367  0.00  0.00    +0.000 C 
ATOM      4  N   UNL     1       2.080   7.556  19.160  0.00  0.00    +0.000 N 
ATOM      5  C   UNL     1       1.914   8.343  17.925  0.00  0.00    +0.000 C 
ATOM      6  C   UNL     1       1.916   9.854  18.215  0.00  0.00    +0.000 C 
ENDROOT
BRANCH   1  13
ATOM      7  C   UNL     1      -3.303  12.225  19.592  0.00  0.00    +0.000 C 
ATOM      8  O   UNL     1      -4.463  11.900  19.319  0.00  0.00    +0.000 OA
ATOM      9  N   UNL     1      -2.267  12.082  18.686  0.00  0.00    +0.000 N 
ATOM     10  C   UNL     1      -2.559  11.624  17.345  0.00  0.00    +0.000 C 
ATOM     11  C   UNL     1      -2.353  10.123  17.280  0.00  0.00    +0.000 C 
ATOM     12  C   UNL     1      -0.924   9.761  17.689  0.00  0.00    +0.000 C 
ATOM     13  C   UNL     1      -0.412  10.454  18.975  0.00  0.00    +0.000 C 
ATOM     14  C   UNL     1      -0.865  11.940  19.066  0.00  0.00    +0.000 C 
BRANCH   7  15
ATOM     15  C   UNL     1      -2.994  12.876  20.948  0.00  0.00    +0.000 C 
BRANCH  15  16
ATOM     16  N   UNL     1      -3.104  14.357  20.874  0.00  0.00    +0.000 NA
BRANCH  16  18
ATOM     17  C   UNL     1      -4.968  14.004  22.540  0.00  0.00    +0.000 C 
ATOM     18  C   UNL     1      -4.421  14.807  21.364  0.00  0.00    +0.000 C 
ENDBRANCH  16  18
BRANCH  16  19
ATOM     19  C   UNL     1      -1.959  15.007  21.529  0.00  0.00    +0.000 C 
ATOM     20  C   UNL     1      -1.146  14.132  22.478  0.00  0.00    +0.000 C 
ENDBRANCH  16  19
ENDBRANCH  15  16
ENDBRANCH   7  15
ENDBRANCH   1  13
BRANCH   4  21
ATOM     21  C   UNL     1       2.709   6.319  19.149  0.00  0.00    +0.000 A 
ATOM     22  C   UNL     1       3.872   6.097  18.399  0.00  0.00    +0.000 A 
ATOM     23  C   UNL     1       4.598   4.909  18.486  0.00  0.00    +0.000 A 
ATOM     24  C   UNL     1       4.175   3.894  19.332  0.00  0.00    +0.000 A 
ATOM     25  C   UNL     1       3.004   4.051  20.073  0.00  0.00    +0.000 A 
ATOM     26  C   UNL     1       2.273   5.249  19.953  0.00  0.00    +0.000 A 
BRANCH  25  27
ATOM     27  C   UNL     1       2.528   2.980  21.018  0.00  0.00    +0.000 C 
ATOM     28  F   UNL     1       1.840   3.465  22.090  0.00  0.00    +0.000 F 
ATOM     29  F   UNL     1       1.689   2.090  20.414  0.00  0.00    +0.000 F 
ATOM     30  F   UNL     1       3.548   2.239  21.533  0.00  0.00    +0.000 F 
ENDBRANCH  25  27
ENDBRANCH   4  21
TORSDOF 7
ENDMDL
