MODEL 1
REMARK VINA RESULT:      -6.1      0.000      0.000
REMARK  Name = 
REMARK  2 active torsions:
REMARK  status: ('A' for Active; 'I' for Inactive)
REMARK    1  A    between atoms: O_1  and  C_2
REMARK    2  A    between atoms: C_6  and  O_7
REMARK                            x       y       z     vdW  Elec       q    Type
REMARK                         _______ _______ _______ _____ _____    ______ ____
ROOT
ATOM      1  C   UNL     1       6.630   4.468  14.362  0.00  0.00    +0.000 A 
ATOM      2  N   UNL     1       7.605   4.934  15.212  0.00  0.00    +0.000 NA
ATOM      3  C   UNL     1       6.997   4.854  16.356  0.00  0.00    +0.000 A 
ATOM      4  N   UNL     1       7.512   5.180  17.580  0.00  0.00    +0.000 NA
ATOM      5  C   UNL     1       6.680   5.038  18.558  0.00  0.00    +0.000 A 
ATOM      6  N   UNL     1       5.382   4.620  18.476  0.00  0.00    +0.000 N 
ATOM      7  C   UNL     1       4.873   4.230  17.247  0.00  0.00    +0.000 A 
ATOM      8  C   UNL     1       5.634   4.332  16.158  0.00  0.00    +0.000 A 
ATOM      9  N   UNL     1       5.477   4.097  14.823  0.00  0.00    +0.000 NA
ATOM     10  S   UNL     1       3.234   3.652  17.281  0.00  0.00    +0.000 S 
ATOM     11  C   UNL     1       3.060   4.256  19.010  0.00  0.00    +0.000 C 
ATOM     12  C   UNL     1       4.484   4.374  19.594  0.00  0.00    +0.000 C 
ENDROOT
BRANCH   1  13
ATOM     13  O   UNL     1       6.991   4.448  13.081  0.00  0.00    +0.000 OA
ATOM     14  H   UNL     1       7.493   3.629  12.940  0.00  0.00    +0.000 HD
ENDBRANCH   1  13
BRANCH   5  15
ATOM     15  O   UNL     1       7.120   5.323  19.792  0.00  0.00    +0.000 OA
ATOM     16  H   UNL     1       7.210   6.289  19.845  0.00  0.00    +0.000 HD
ENDBRANCH   5  15
TORSDOF 2
ENDMDL
MODEL 2
REMARK VINA RESULT:      -6.0      3.131      5.487
REMARK  Name = 
REMARK  2 active torsions:
REMARK  status: ('A' for Active; 'I' for Inactive)
REMARK    1  A    between atoms: O_1  and  C_2
REMARK    2  A    between atoms: C_6  and  O_7
REMARK                            x       y       z     vdW  Elec       q    Type
REMARK                         _______ _______ _______ _____ _____    ______ ____
ROOT
ATOM      1  C   UNL     1       2.054   3.171  21.431  0.00  0.00    +0.000 A 
ATOM      2  N   UNL     1       3.172   2.460  21.066  0.00  0.00    +0.000 NA
ATOM      3  C   UNL     1       3.737   3.290  20.244  0.00  0.00    +0.000 A 
ATOM      4  N   UNL     1       4.917   3.106  19.577  0.00  0.00    +0.000 NA
ATOM      5  C   UNL     1       5.238   4.079  18.791  0.00  0.00    +0.000 A 
ATOM      6  N   UNL     1       4.523   5.222  18.568  0.00  0.00    +0.000 N 
ATOM      7  C   UNL     1       3.358   5.443  19.285  0.00  0.00    +0.000 A 
ATOM      8  C   UNL     1       2.919   4.510  20.129  0.00  0.00    +0.000 A 
ATOM      9  N   UNL     1       1.837   4.353  20.946  0.00  0.00    +0.000 NA
ATOM     10  S   UNL     1       2.576   6.962  18.967  0.00  0.00    +0.000 S 
ATOM     11  C   UNL     1       3.690   7.230  17.527  0.00  0.00    +0.000 C 
ATOM     12  C   UNL     1       4.940   6.353  17.752  0.00  0.00    +0.000 C 
ENDROOT
BRANCH   1  13
ATOM     13  O   UNL     1       1.262   2.533  22.291  0.00  0.00    +0.000 OA
ATOM     14  H   UNL     1       1.626   2.684  23.177  0.00  0.00    +0.000 HD
ENDBRANCH   1  13
BRANCH   5  15
ATOM     15  O   UNL     1       6.391   3.976  18.116  0.00  0.00    +0.000 OA
ATOM     16  H   UNL     1       6.671   4.880  17.892  0.00  0.00    +0.000 HD
ENDBRANCH   5  15
TORSDOF 2
ENDMDL
MODEL 3
REMARK VINA RESULT:      -5.9      1.191      1.248
REMARK  Name = 
REMARK  2 active torsions:
REMARK  status: ('A' for Active; 'I' for Inactive)
REMARK    1  A    between atoms: O_1  and  C_2
REMARK    2  A    between atoms: C_6  and  O_7
REMARK                            x       y       z     vdW  Elec       q    Type
REMARK                         _______ _______ _______ _____ _____    ______ ____
ROOT
ATOM      1  C   UNL     1       6.351   4.105  13.786  0.00  0.00    +0.000 A 
ATOM      2  N   UNL     1       7.246   5.094  14.117  0.00  0.00    +0.000 NA
ATOM      3  C   UNL     1       6.978   5.261  15.376  0.00  0.00    +0.000 A 
ATOM      4  N   UNL     1       7.592   6.131  16.235  0.00  0.00    +0.000 NA
ATOM      5  C   UNL     1       7.108   6.121  17.432  0.00  0.00    +0.000 A 
ATOM      6  N   UNL     1       6.072   5.359  17.891  0.00  0.00    +0.000 N 
ATOM      7  C   UNL     1       5.486   4.432  17.044  0.00  0.00    +0.000 A 
ATOM      8  C   UNL     1       5.896   4.347  15.779  0.00  0.00    +0.000 A 
ATOM      9  N   UNL     1       5.548   3.618  14.679  0.00  0.00    +0.000 NA
ATOM     10  S   UNL     1       4.227   3.473  17.762  0.00  0.00    +0.000 S 
ATOM     11  C   UNL     1       4.227   4.580  19.232  0.00  0.00    +0.000 C 
ATOM     12  C   UNL     1       5.597   5.287  19.265  0.00  0.00    +0.000 C 
ENDROOT
BRANCH   1  13
ATOM     13  O   UNL     1       6.403   3.731  12.509  0.00  0.00    +0.000 OA
ATOM     14  H   UNL     1       5.547   3.326  12.297  0.00  0.00    +0.000 HD
ENDBRANCH   1  13
BRANCH   5  15
ATOM     15  O   UNL     1       7.672   6.937  18.335  0.00  0.00    +0.000 OA
ATOM     16  H   UNL     1       8.135   7.632  17.838  0.00  0.00    +0.000 HD
ENDBRANCH   5  15
TORSDOF 2
ENDMDL
MODEL 4
REMARK VINA RESULT:      -5.9      2.507      4.208
REMARK  Name = 
REMARK  2 active torsions:
REMARK  status: ('A' for Active; 'I' for Inactive)
REMARK    1  A    between atoms: O_1  and  C_2
REMARK    2  A    between atoms: C_6  and  O_7
REMARK                            x       y       z     vdW  Elec       q    Type
REMARK                         _______ _______ _______ _____ _____    ______ ____
ROOT
ATOM      1  C   UNL     1       2.537   2.444  18.304  0.00  0.00    +0.000 A 
ATOM      2  N   UNL     1       3.146   2.801  19.483  0.00  0.00    +0.000 NA
ATOM      3  C   UNL     1       4.152   3.493  19.043  0.00  0.00    +0.000 A 
ATOM      4  N   UNL     1       5.106   4.120  19.796  0.00  0.00    +0.000 NA
ATOM      5  C   UNL     1       6.020   4.715  19.104  0.00  0.00    +0.000 A 
ATOM      6  N   UNL     1       6.117   4.759  17.742  0.00  0.00    +0.000 N 
ATOM      7  C   UNL     1       5.122   4.179  16.972  0.00  0.00    +0.000 A 
ATOM      8  C   UNL     1       4.123   3.531  17.570  0.00  0.00    +0.000 A 
ATOM      9  N   UNL     1       3.027   2.825  17.166  0.00  0.00    +0.000 NA
ATOM     10  S   UNL     1       5.320   4.361  15.255  0.00  0.00    +0.000 S 
ATOM     11  C   UNL     1       7.030   4.988  15.523  0.00  0.00    +0.000 C 
ATOM     12  C   UNL     1       7.098   5.511  16.973  0.00  0.00    +0.000 C 
ENDROOT
BRANCH   1  13
ATOM     13  O   UNL     1       1.445   1.697  18.461  0.00  0.00    +0.000 OA
ATOM     14  H   UNL     1       0.743   2.106  17.932  0.00  0.00    +0.000 HD
ENDBRANCH   1  13
BRANCH   5  15
ATOM     15  O   UNL     1       6.980   5.366  19.775  0.00  0.00    +0.000 OA
ATOM     16  H   UNL     1       6.789   6.316  19.694  0.00  0.00    +0.000 HD
ENDBRANCH   5  15
TORSDOF 2
ENDMDL
MODEL 5
REMARK VINA RESULT:      -5.8      2.281      2.636
REMARK  Name = 
REMARK  2 active torsions:
REMARK  status: ('A' for Active; 'I' for Inactive)
REMARK    1  A    between atoms: O_1  and  C_2
REMARK    2  A    between atoms: C_6  and  O_7
REMARK                            x       y       z     vdW  Elec       q    Type
REMARK                         _______ _______ _______ _____ _____    ______ ____
ROOT
ATOM      1  C   UNL     1       6.437   5.183  15.634  0.00  0.00    +0.000 A 
ATOM      2  N   UNL     1       6.002   6.440  15.978  0.00  0.00    +0.000 NA
ATOM      3  C   UNL     1       4.979   6.154  16.724  0.00  0.00    +0.000 A 
ATOM      4  N   UNL     1       4.158   7.041  17.364  0.00  0.00    +0.000 NA
ATOM      5  C   UNL     1       3.190   6.490  18.017  0.00  0.00    +0.000 A 
ATOM      6  N   UNL     1       2.920   5.154  18.109  0.00  0.00    +0.000 N 
ATOM      7  C   UNL     1       3.782   4.246  17.515  0.00  0.00    +0.000 A 
ATOM      8  C   UNL     1       4.820   4.692  16.808  0.00  0.00    +0.000 A 
ATOM      9  N   UNL     1       5.822   4.130  16.072  0.00  0.00    +0.000 NA
ATOM     10  S   UNL     1       3.372   2.575  17.760  0.00  0.00    +0.000 S 
ATOM     11  C   UNL     1       1.741   3.080  18.446  0.00  0.00    +0.000 C 
ATOM     12  C   UNL     1       1.883   4.540  18.925  0.00  0.00    +0.000 C 
ENDROOT
BRANCH   1  13
ATOM     13  O   UNL     1       7.506   5.178  14.840  0.00  0.00    +0.000 OA
ATOM     14  H   UNL     1       7.241   5.593  14.004  0.00  0.00    +0.000 HD
ENDBRANCH   1  13
BRANCH   5  15
ATOM     15  O   UNL     1       2.354   7.298  18.684  0.00  0.00    +0.000 OA
ATOM     16  H   UNL     1       2.638   8.210  18.506  0.00  0.00    +0.000 HD
ENDBRANCH   5  15
TORSDOF 2
ENDMDL
MODEL 6
REMARK VINA RESULT:      -5.6      2.766      3.539
REMARK  Name = 
REMARK  2 active torsions:
REMARK  status: ('A' for Active; 'I' for Inactive)
REMARK    1  A    between atoms: O_1  and  C_2
REMARK    2  A    between atoms: C_6  and  O_7
REMARK                            x       y       z     vdW  Elec       q    Type
REMARK                         _______ _______ _______ _____ _____    ______ ____
ROOT
ATOM      1  C   UNL     1       4.862   6.045  16.498  0.00  0.00    +0.000 A 
ATOM      2  N   UNL     1       5.036   4.726  16.154  0.00  0.00    +0.000 NA
ATOM      3  C   UNL     1       4.337   4.135  17.074  0.00  0.00    +0.000 A 
ATOM      4  N   UNL     1       4.140   2.789  17.214  0.00  0.00    +0.000 NA
ATOM      5  C   UNL     1       3.427   2.462  18.240  0.00  0.00    +0.000 A 
ATOM      6  N   UNL     1       2.887   3.310  19.165  0.00  0.00    +0.000 N 
ATOM      7  C   UNL     1       3.031   4.678  18.997  0.00  0.00    +0.000 A 
ATOM      8  C   UNL     1       3.749   5.141  17.974  0.00  0.00    +0.000 A 
ATOM      9  N   UNL     1       4.135   6.369  17.521  0.00  0.00    +0.000 NA
ATOM     10  S   UNL     1       2.241   5.654  20.198  0.00  0.00    +0.000 S 
ATOM     11  C   UNL     1       1.939   4.150  21.216  0.00  0.00    +0.000 C 
ATOM     12  C   UNL     1       2.007   2.938  20.264  0.00  0.00    +0.000 C 
ENDROOT
BRANCH   1  13
ATOM     13  O   UNL     1       5.497   6.902  15.700  0.00  0.00    +0.000 OA
ATOM     14  H   UNL     1       4.818   7.371  15.189  0.00  0.00    +0.000 HD
ENDBRANCH   1  13
BRANCH   5  15
ATOM     15  O   UNL     1       3.177   1.160  18.432  0.00  0.00    +0.000 OA
ATOM     16  H   UNL     1       2.854   0.805  17.586  0.00  0.00    +0.000 HD
ENDBRANCH   5  15
TORSDOF 2
ENDMDL
MODEL 7
REMARK VINA RESULT:      -5.6      2.444      2.825
REMARK  Name = 
REMARK  2 active torsions:
REMARK  status: ('A' for Active; 'I' for Inactive)
REMARK    1  A    between atoms: O_1  and  C_2
REMARK    2  A    between atoms: C_6  and  O_7
REMARK                            x       y       z     vdW  Elec       q    Type
REMARK                         _______ _______ _______ _____ _____    ______ ____
ROOT
ATOM      1  C   UNL     1       6.495   5.443  16.035  0.00  0.00    +0.000 A 
ATOM      2  N   UNL     1       5.768   6.609  16.018  0.00  0.00    +0.000 NA
ATOM      3  C   UNL     1       4.922   6.389  16.977  0.00  0.00    +0.000 A 
ATOM      4  N   UNL     1       3.948   7.239  17.421  0.00  0.00    +0.000 NA
ATOM      5  C   UNL     1       3.217   6.758  18.372  0.00  0.00    +0.000 A 
ATOM      6  N   UNL     1       3.323   5.520  18.938  0.00  0.00    +0.000 N 
ATOM      7  C   UNL     1       4.346   4.675  18.536  0.00  0.00    +0.000 A 
ATOM      8  C   UNL     1       5.167   5.057  17.559  0.00  0.00    +0.000 A 
ATOM      9  N   UNL     1       6.221   4.508  16.889  0.00  0.00    +0.000 NA
ATOM     10  S   UNL     1       4.419   3.157  19.378  0.00  0.00    +0.000 S 
ATOM     11  C   UNL     1       2.772   3.497  20.127  0.00  0.00    +0.000 C 
ATOM     12  C   UNL     1       2.556   5.023  20.072  0.00  0.00    +0.000 C 
ENDROOT
BRANCH   1  13
ATOM     13  O   UNL     1       7.460   5.391  15.118  0.00  0.00    +0.000 OA
ATOM     14  H   UNL     1       7.026   5.394  14.250  0.00  0.00    +0.000 HD
ENDBRANCH   1  13
BRANCH   5  15
ATOM     15  O   UNL     1       2.252   7.543  18.869  0.00  0.00    +0.000 OA
ATOM     16  H   UNL     1       2.692   8.292  19.306  0.00  0.00    +0.000 HD
ENDBRANCH   5  15
TORSDOF 2
ENDMDL
MODEL 8
REMARK VINA RESULT:      -5.6      2.509      3.140
REMARK  Name = 
REMARK  2 active torsions:
REMARK  status: ('A' for Active; 'I' for Inactive)
REMARK    1  A    between atoms: O_1  and  C_2
REMARK    2  A    between atoms: C_6  and  O_7
REMARK                            x       y       z     vdW  Elec       q    Type
REMARK                         _______ _______ _______ _____ _____    ______ ____
ROOT
ATOM      1  C   UNL     1       5.144   5.550  16.015  0.00  0.00    +0.000 A 
ATOM      2  N   UNL     1       4.744   6.596  16.811  0.00  0.00    +0.000 NA
ATOM      3  C   UNL     1       4.042   5.973  17.707  0.00  0.00    +0.000 A 
ATOM      4  N   UNL     1       3.404   6.530  18.781  0.00  0.00    +0.000 NA
ATOM      5  C   UNL     1       2.745   5.685  19.502  0.00  0.00    +0.000 A 
ATOM      6  N   UNL     1       2.626   4.342  19.286  0.00  0.00    +0.000 N 
ATOM      7  C   UNL     1       3.319   3.760  18.236  0.00  0.00    +0.000 A 
ATOM      8  C   UNL     1       4.035   4.529  17.416  0.00  0.00    +0.000 A 
ATOM      9  N   UNL     1       4.788   4.335  16.295  0.00  0.00    +0.000 NA
ATOM     10  S   UNL     1       3.144   2.036  18.106  0.00  0.00    +0.000 S 
ATOM     11  C   UNL     1       1.786   2.083  19.348  0.00  0.00    +0.000 C 
ATOM     12  C   UNL     1       1.959   3.386  20.157  0.00  0.00    +0.000 C 
ENDROOT
BRANCH   1  13
ATOM     13  O   UNL     1       5.896   5.913  14.978  0.00  0.00    +0.000 OA
ATOM     14  H   UNL     1       5.927   5.157  14.371  0.00  0.00    +0.000 HD
ENDBRANCH   1  13
BRANCH   5  15
ATOM     15  O   UNL     1       2.107   6.158  20.582  0.00  0.00    +0.000 OA
ATOM     16  H   UNL     1       2.176   5.477  21.272  0.00  0.00    +0.000 HD
ENDBRANCH   5  15
TORSDOF 2
ENDMDL
MODEL 9
REMARK VINA RESULT:      -5.6      2.626      3.069
REMARK  Name = 
REMARK  2 active torsions:
REMARK  status: ('A' for Active; 'I' for Inactive)
REMARK    1  A    between atoms: O_1  and  C_2
REMARK    2  A    between atoms: C_6  and  O_7
REMARK                            x       y       z     vdW  Elec       q    Type
REMARK                         _______ _______ _______ _____ _____    ______ ____
ROOT
ATOM      1  C   UNL     1       5.473   6.445  17.221  0.00  0.00    +0.000 A 
ATOM      2  N   UNL     1       6.290   5.682  18.019  0.00  0.00    +0.000 NA
ATOM      3  C   UNL     1       5.460   4.772  18.427  0.00  0.00    +0.000 A 
ATOM      4  N   UNL     1       5.740   3.718  19.253  0.00  0.00    +0.000 NA
ATOM      5  C   UNL     1       4.720   2.976  19.530  0.00  0.00    +0.000 A 
ATOM      6  N   UNL     1       3.437   3.154  19.097  0.00  0.00    +0.000 N 
ATOM      7  C   UNL     1       3.156   4.183  18.212  0.00  0.00    +0.000 A 
ATOM      8  C   UNL     1       4.127   5.021  17.850  0.00  0.00    +0.000 A 
ATOM      9  N   UNL     1       4.225   6.133  17.065  0.00  0.00    +0.000 NA
ATOM     10  S   UNL     1       1.504   4.265  17.679  0.00  0.00    +0.000 S 
ATOM     11  C   UNL     1       1.033   3.032  18.962  0.00  0.00    +0.000 C 
ATOM     12  C   UNL     1       2.314   2.259  19.339  0.00  0.00    +0.000 C 
ENDROOT
BRANCH   1  13
ATOM     13  O   UNL     1       6.082   7.488  16.660  0.00  0.00    +0.000 OA
ATOM     14  H   UNL     1       6.973   7.535  17.041  0.00  0.00    +0.000 HD
ENDBRANCH   1  13
BRANCH   5  15
ATOM     15  O   UNL     1       4.923   1.914  20.321  0.00  0.00    +0.000 OA
ATOM     16  H   UNL     1       5.813   1.577  20.121  0.00  0.00    +0.000 HD
ENDBRANCH   5  15
TORSDOF 2
ENDMDL
