MODEL 1
REMARK VINA RESULT:      -7.4      0.000      0.000
REMARK  Name = 
REMARK  10 active torsions:
REMARK  status: ('A' for Active; 'I' for Inactive)
REMARK    1  A    between atoms: C_2  and  C_3
REMARK    2  A    between atoms: C_6  and  O_7
REMARK    3  A    between atoms: O_7  and  C_8
REMARK    4  A    between atoms: C_8  and  C_9
REMARK    5  A    between atoms: C_9  and  O_11
REMARK    6  A    between atoms: O_11  and  C_12
REMARK    7  A    between atoms: C_12  and  C_13
REMARK    8  A    between atoms: N_15  and  C_16
REMARK    9  A    between atoms: C_16  and  C_17
REMARK   10  A    between atoms: C_17  and  C_18
REMARK                            x       y       z     vdW  Elec       q    Type
REMARK                         _______ _______ _______ _____ _____    ______ ____
ROOT
ATOM      1  O   UNL     1       8.399   6.999  18.420  0.00  0.00    +0.000 OA
ENDROOT
BRANCH   1   2
ATOM      2  C   UNL     1       7.695   7.879  17.652  0.00  0.00    +0.000 C 
ATOM      3  O   UNL     1       6.786   7.560  16.892  0.00  0.00    +0.000 OA
BRANCH   2   4
ATOM      4  C   UNL     1       8.139   9.316  17.912  0.00  0.00    +0.000 C 
BRANCH   4   5
ATOM      5  O   UNL     1       8.905   9.417  19.105  0.00  0.00    +0.000 OA
BRANCH   5   9
ATOM      6  C   UNL     1      11.036  13.009  19.345  0.00  0.00    +0.000 A 
ATOM      7  C   UNL     1      10.748  12.393  18.126  0.00  0.00    +0.000 A 
ATOM      8  C   UNL     1      10.039  11.186  18.101  0.00  0.00    +0.000 A 
ATOM      9  C   UNL     1       9.626  10.567  19.284  0.00  0.00    +0.000 A 
ATOM     10  C   UNL     1       9.914  11.181  20.504  0.00  0.00    +0.000 A 
ATOM     11  C   UNL     1      10.617  12.400  20.534  0.00  0.00    +0.000 A 
BRANCH   6  13
ATOM     12  N   UNL     1      12.322  15.264  19.407  0.00  0.00    +0.000 NA
ATOM     13  C   UNL     1      11.752  14.256  19.377  0.00  0.00    +0.000 C 
ENDBRANCH   6  13
ENDBRANCH   5   9
ENDBRANCH   4   5
ENDBRANCH   2   4
ENDBRANCH   1   2
BRANCH   1  14
ATOM     14  C   UNL     1       7.595   6.052  19.141  0.00  0.00    +0.000 C 
BRANCH  14  15
ATOM     15  C   UNL     1       7.025   5.019  18.162  0.00  0.00    +0.000 C 
ATOM     16  O   UNL     1       7.751   4.382  17.393  0.00  0.00    +0.000 OA
ATOM     17  N   UNL     1       5.653   4.847  18.186  0.00  0.00    +0.000 N 
ATOM     18  H   UNL     1       5.075   5.417  18.792  0.00  0.00    +0.000 HD
BRANCH  17  19
ATOM     19  C   UNL     1       5.041   3.885  17.275  0.00  0.00    +0.000 C 
BRANCH  19  20
ATOM     20  C   UNL     1       3.512   3.984  17.161  0.00  0.00    +0.000 C 
BRANCH  20  21
ATOM     21  C   UNL     1       2.787   3.889  18.498  0.00  0.00    +0.000 C 
ATOM     22  C   UNL     1       2.325   4.989  19.128  0.00  0.00    +0.000 C 
ATOM     23  C   UNL     1       1.625   4.971  20.458  0.00  0.00    +0.000 C 
ATOM     24  C   UNL     1       1.787   3.648  21.205  0.00  0.00    +0.000 C 
ATOM     25  C   UNL     1       1.580   2.471  20.262  0.00  0.00    +0.000 C 
ATOM     26  C   UNL     1       2.578   2.510  19.094  0.00  0.00    +0.000 C 
ENDBRANCH  20  21
ENDBRANCH  19  20
ENDBRANCH  17  19
ENDBRANCH  14  15
ENDBRANCH   1  14
TORSDOF 10
ENDMDL
MODEL 2
REMARK VINA RESULT:      -7.3      3.398      8.824
REMARK  Name = 
REMARK  10 active torsions:
REMARK  status: ('A' for Active; 'I' for Inactive)
REMARK    1  A    between atoms: C_2  and  C_3
REMARK    2  A    between atoms: C_6  and  O_7
REMARK    3  A    between atoms: O_7  and  C_8
REMARK    4  A    between atoms: C_8  and  C_9
REMARK    5  A    between atoms: C_9  and  O_11
REMARK    6  A    between atoms: O_11  and  C_12
REMARK    7  A    between atoms: C_12  and  C_13
REMARK    8  A    between atoms: N_15  and  C_16
REMARK    9  A    between atoms: C_16  and  C_17
REMARK   10  A    between atoms: C_17  and  C_18
REMARK                            x       y       z     vdW  Elec       q    Type
REMARK                         _______ _______ _______ _____ _____    ______ ____
ROOT
ATOM      1  O   UNL     1       4.916   6.167  16.895  0.00  0.00    +0.000 OA
ENDROOT
BRANCH   1   2
ATOM      2  C   UNL     1       4.234   5.088  17.375  0.00  0.00    +0.000 C 
ATOM      3  O   UNL     1       4.665   3.939  17.369  0.00  0.00    +0.000 OA
BRANCH   2   4
ATOM      4  C   UNL     1       2.897   5.505  17.982  0.00  0.00    +0.000 C 
BRANCH   4   5
ATOM      5  O   UNL     1       3.079   6.284  19.157  0.00  0.00    +0.000 OA
BRANCH   5   9
ATOM      6  C   UNL     1       0.793   9.788  19.139  0.00  0.00    +0.000 A 
ATOM      7  C   UNL     1       1.409   9.294  17.988  0.00  0.00    +0.000 A 
ATOM      8  C   UNL     1       2.171   8.122  18.050  0.00  0.00    +0.000 A 
ATOM      9  C   UNL     1       2.348   7.438  19.256  0.00  0.00    +0.000 A 
ATOM     10  C   UNL     1       1.733   7.931  20.408  0.00  0.00    +0.000 A 
ATOM     11  C   UNL     1       0.957   9.104  20.349  0.00  0.00    +0.000 A 
BRANCH   6  13
ATOM     12  N   UNL     1      -0.637  11.952  19.027  0.00  0.00    +0.000 NA
ATOM     13  C   UNL     1      -0.002  10.985  19.080  0.00  0.00    +0.000 C 
ENDBRANCH   6  13
ENDBRANCH   5   9
ENDBRANCH   4   5
ENDBRANCH   2   4
ENDBRANCH   1   2
BRANCH   1  14
ATOM     14  C   UNL     1       6.287   5.908  16.551  0.00  0.00    +0.000 C 
BRANCH  14  15
ATOM     15  C   UNL     1       7.205   6.625  17.548  0.00  0.00    +0.000 C 
ATOM     16  O   UNL     1       7.668   6.048  18.537  0.00  0.00    +0.000 OA
ATOM     17  N   UNL     1       7.479   7.953  17.279  0.00  0.00    +0.000 N 
ATOM     18  H   UNL     1       7.048   8.416  16.487  0.00  0.00    +0.000 HD
BRANCH  17  19
ATOM     19  C   UNL     1       8.341   8.701  18.189  0.00  0.00    +0.000 C 
BRANCH  19  20
ATOM     20  C   UNL     1       8.596  10.161  17.787  0.00  0.00    +0.000 C 
BRANCH  20  21
ATOM     21  C   UNL     1       9.614  10.874  18.670  0.00  0.00    +0.000 C 
ATOM     22  C   UNL     1       9.374  11.101  19.978  0.00  0.00    +0.000 C 
ATOM     23  C   UNL     1      10.320  11.819  20.899  0.00  0.00    +0.000 C 
ATOM     24  C   UNL     1      11.420  12.578  20.159  0.00  0.00    +0.000 C 
ATOM     25  C   UNL     1      12.005  11.722  19.044  0.00  0.00    +0.000 C 
ATOM     26  C   UNL     1      10.923  11.304  18.037  0.00  0.00    +0.000 C 
ENDBRANCH  20  21
ENDBRANCH  19  20
ENDBRANCH  17  19
ENDBRANCH  14  15
ENDBRANCH   1  14
TORSDOF 10
ENDMDL
MODEL 3
REMARK VINA RESULT:      -7.3      0.423      1.447
REMARK  Name = 
REMARK  10 active torsions:
REMARK  status: ('A' for Active; 'I' for Inactive)
REMARK    1  A    between atoms: C_2  and  C_3
REMARK    2  A    between atoms: C_6  and  O_7
REMARK    3  A    between atoms: O_7  and  C_8
REMARK    4  A    between atoms: C_8  and  C_9
REMARK    5  A    between atoms: C_9  and  O_11
REMARK    6  A    between atoms: O_11  and  C_12
REMARK    7  A    between atoms: C_12  and  C_13
REMARK    8  A    between atoms: N_15  and  C_16
REMARK    9  A    between atoms: C_16  and  C_17
REMARK   10  A    between atoms: C_17  and  C_18
REMARK                            x       y       z     vdW  Elec       q    Type
REMARK                         _______ _______ _______ _____ _____    ______ ____
ROOT
ATOM      1  O   UNL     1       8.265   6.987  18.517  0.00  0.00    +0.000 OA
ENDROOT
BRANCH   1   2
ATOM      2  C   UNL     1       7.575   7.799  17.665  0.00  0.00    +0.000 C 
ATOM      3  O   UNL     1       6.628   7.432  16.976  0.00  0.00    +0.000 OA
BRANCH   2   4
ATOM      4  C   UNL     1       8.089   9.235  17.733  0.00  0.00    +0.000 C 
BRANCH   4   5
ATOM      5  O   UNL     1       8.781   9.483  18.950  0.00  0.00    +0.000 OA
BRANCH   5   9
ATOM      6  C   UNL     1      10.925  13.024  19.555  0.00  0.00    +0.000 A 
ATOM      7  C   UNL     1      10.434  12.260  20.614  0.00  0.00    +0.000 A 
ATOM      8  C   UNL     1       9.714  11.087  20.357  0.00  0.00    +0.000 A 
ATOM      9  C   UNL     1       9.456  10.670  19.048  0.00  0.00    +0.000 A 
ATOM     10  C   UNL     1       9.946  11.434  17.987  0.00  0.00    +0.000 A 
ATOM     11  C   UNL     1      10.680  12.608  18.241  0.00  0.00    +0.000 A 
BRANCH   6  13
ATOM     12  N   UNL     1      12.275  15.192  20.020  0.00  0.00    +0.000 NA
ATOM     13  C   UNL     1      11.677  14.223  19.812  0.00  0.00    +0.000 C 
ENDBRANCH   6  13
ENDBRANCH   5   9
ENDBRANCH   4   5
ENDBRANCH   2   4
ENDBRANCH   1   2
BRANCH   1  14
ATOM     14  C   UNL     1       7.465   6.003  19.192  0.00  0.00    +0.000 C 
BRANCH  14  15
ATOM     15  C   UNL     1       7.033   4.926  18.190  0.00  0.00    +0.000 C 
ATOM     16  O   UNL     1       7.856   4.291  17.523  0.00  0.00    +0.000 OA
ATOM     17  N   UNL     1       5.672   4.711  18.074  0.00  0.00    +0.000 N 
ATOM     18  H   UNL     1       5.017   5.279  18.597  0.00  0.00    +0.000 HD
BRANCH  17  19
ATOM     19  C   UNL     1       5.189   3.705  17.134  0.00  0.00    +0.000 C 
BRANCH  19  20
ATOM     20  C   UNL     1       3.683   3.765  16.839  0.00  0.00    +0.000 C 
BRANCH  20  21
ATOM     21  C   UNL     1       2.807   3.685  18.084  0.00  0.00    +0.000 C 
ATOM     22  C   UNL     1       2.562   2.509  18.697  0.00  0.00    +0.000 C 
ATOM     23  C   UNL     1       1.689   2.354  19.912  0.00  0.00    +0.000 C 
ATOM     24  C   UNL     1       0.822   3.581  20.189  0.00  0.00    +0.000 C 
ATOM     25  C   UNL     1       1.637   4.858  20.042  0.00  0.00    +0.000 C 
ATOM     26  C   UNL     1       2.234   4.978  18.631  0.00  0.00    +0.000 C 
ENDBRANCH  20  21
ENDBRANCH  19  20
ENDBRANCH  17  19
ENDBRANCH  14  15
ENDBRANCH   1  14
TORSDOF 10
ENDMDL
MODEL 4
REMARK VINA RESULT:      -7.2      3.985      6.603
REMARK  Name = 
REMARK  10 active torsions:
REMARK  status: ('A' for Active; 'I' for Inactive)
REMARK    1  A    between atoms: C_2  and  C_3
REMARK    2  A    between atoms: C_6  and  O_7
REMARK    3  A    between atoms: O_7  and  C_8
REMARK    4  A    between atoms: C_8  and  C_9
REMARK    5  A    between atoms: C_9  and  O_11
REMARK    6  A    between atoms: O_11  and  C_12
REMARK    7  A    between atoms: C_12  and  C_13
REMARK    8  A    between atoms: N_15  and  C_16
REMARK    9  A    between atoms: C_16  and  C_17
REMARK   10  A    between atoms: C_17  and  C_18
REMARK                            x       y       z     vdW  Elec       q    Type
REMARK                         _______ _______ _______ _____ _____    ______ ____
ROOT
ATOM      1  O   UNL     1       2.439   1.881  18.241  0.00  0.00    +0.000 OA
ENDROOT
BRANCH   1   2
ATOM      2  C   UNL     1       2.475   2.976  17.428  0.00  0.00    +0.000 C 
ATOM      3  O   UNL     1       1.492   3.642  17.120  0.00  0.00    +0.000 OA
BRANCH   2   4
ATOM      4  C   UNL     1       3.906   3.304  17.009  0.00  0.00    +0.000 C 
BRANCH   4   5
ATOM      5  O   UNL     1       4.729   3.576  18.136  0.00  0.00    +0.000 OA
BRANCH   5   9
ATOM      6  C   UNL     1       6.939   7.114  17.808  0.00  0.00    +0.000 A 
ATOM      7  C   UNL     1       5.746   6.912  17.112  0.00  0.00    +0.000 A 
ATOM      8  C   UNL     1       5.050   5.706  17.249  0.00  0.00    +0.000 A 
ATOM      9  C   UNL     1       5.538   4.679  18.062  0.00  0.00    +0.000 A 
ATOM     10  C   UNL     1       6.731   4.878  18.759  0.00  0.00    +0.000 A 
ATOM     11  C   UNL     1       7.429   6.093  18.632  0.00  0.00    +0.000 A 
BRANCH   6  13
ATOM     12  N   UNL     1       8.226   9.357  17.589  0.00  0.00    +0.000 NA
ATOM     13  C   UNL     1       7.652   8.356  17.682  0.00  0.00    +0.000 C 
ENDBRANCH   6  13
ENDBRANCH   5   9
ENDBRANCH   4   5
ENDBRANCH   2   4
ENDBRANCH   1   2
BRANCH   1  14
ATOM     14  C   UNL     1       1.570   2.005  19.378  0.00  0.00    +0.000 C 
BRANCH  14  15
ATOM     15  C   UNL     1       2.009   3.206  20.224  0.00  0.00    +0.000 C 
ATOM     16  O   UNL     1       2.953   3.132  21.018  0.00  0.00    +0.000 OA
ATOM     17  N   UNL     1       1.287   4.372  20.051  0.00  0.00    +0.000 N 
ATOM     18  H   UNL     1       0.488   4.393  19.429  0.00  0.00    +0.000 HD
BRANCH  17  19
ATOM     19  C   UNL     1       1.646   5.553  20.829  0.00  0.00    +0.000 C 
BRANCH  19  20
ATOM     20  C   UNL     1       2.657   6.492  20.154  0.00  0.00    +0.000 C 
BRANCH  20  21
ATOM     21  C   UNL     1       2.048   7.797  19.654  0.00  0.00    +0.000 C 
ATOM     22  C   UNL     1       2.235   8.221  18.388  0.00  0.00    +0.000 C 
ATOM     23  C   UNL     1       1.686   9.507  17.837  0.00  0.00    +0.000 C 
ATOM     24  C   UNL     1       1.195  10.465  18.921  0.00  0.00    +0.000 C 
ATOM     25  C   UNL     1       0.378   9.717  19.966  0.00  0.00    +0.000 C 
ATOM     26  C   UNL     1       1.202   8.600  20.623  0.00  0.00    +0.000 C 
ENDBRANCH  20  21
ENDBRANCH  19  20
ENDBRANCH  17  19
ENDBRANCH  14  15
ENDBRANCH   1  14
TORSDOF 10
ENDMDL
MODEL 5
REMARK VINA RESULT:      -7.2      1.368      1.775
REMARK  Name = 
REMARK  10 active torsions:
REMARK  status: ('A' for Active; 'I' for Inactive)
REMARK    1  A    between atoms: C_2  and  C_3
REMARK    2  A    between atoms: C_6  and  O_7
REMARK    3  A    between atoms: O_7  and  C_8
REMARK    4  A    between atoms: C_8  and  C_9
REMARK    5  A    between atoms: C_9  and  O_11
REMARK    6  A    between atoms: O_11  and  C_12
REMARK    7  A    between atoms: C_12  and  C_13
REMARK    8  A    between atoms: N_15  and  C_16
REMARK    9  A    between atoms: C_16  and  C_17
REMARK   10  A    between atoms: C_17  and  C_18
REMARK                            x       y       z     vdW  Elec       q    Type
REMARK                         _______ _______ _______ _____ _____    ______ ____
ROOT
ATOM      1  O   UNL     1       7.212   6.765  16.930  0.00  0.00    +0.000 OA
ENDROOT
BRANCH   1   2
ATOM      2  C   UNL     1       7.830   7.404  17.965  0.00  0.00    +0.000 C 
ATOM      3  O   UNL     1       8.316   6.835  18.937  0.00  0.00    +0.000 OA
BRANCH   2   4
ATOM      4  C   UNL     1       7.899   8.910  17.721  0.00  0.00    +0.000 C 
BRANCH   4   5
ATOM      5  O   UNL     1       8.766   9.548  18.648  0.00  0.00    +0.000 OA
BRANCH   5   9
ATOM      6  C   UNL     1      10.423  13.249  17.616  0.00  0.00    +0.000 A 
ATOM      7  C   UNL     1      11.195  12.201  18.122  0.00  0.00    +0.000 A 
ATOM      8  C   UNL     1      10.589  10.985  18.461  0.00  0.00    +0.000 A 
ATOM      9  C   UNL     1       9.211  10.801  18.321  0.00  0.00    +0.000 A 
ATOM     10  C   UNL     1       8.437  11.848  17.817  0.00  0.00    +0.000 A 
ATOM     11  C   UNL     1       9.043  13.068  17.464  0.00  0.00    +0.000 A 
BRANCH   6  13
ATOM     12  N   UNL     1      11.537  15.503  16.969  0.00  0.00    +0.000 NA
ATOM     13  C   UNL     1      11.040  14.496  17.253  0.00  0.00    +0.000 C 
ENDBRANCH   6  13
ENDBRANCH   5   9
ENDBRANCH   4   5
ENDBRANCH   2   4
ENDBRANCH   1   2
BRANCH   1  14
ATOM     14  C   UNL     1       7.095   5.342  17.086  0.00  0.00    +0.000 C 
BRANCH  14  15
ATOM     15  C   UNL     1       5.741   4.880  16.534  0.00  0.00    +0.000 C 
ATOM     16  O   UNL     1       5.272   5.343  15.489  0.00  0.00    +0.000 OA
ATOM     17  N   UNL     1       5.074   3.921  17.275  0.00  0.00    +0.000 N 
ATOM     18  H   UNL     1       5.457   3.594  18.153  0.00  0.00    +0.000 HD
BRANCH  17  19
ATOM     19  C   UNL     1       3.776   3.440  16.813  0.00  0.00    +0.000 C 
BRANCH  19  20
ATOM     20  C   UNL     1       2.568   4.229  17.339  0.00  0.00    +0.000 C 
BRANCH  20  21
ATOM     21  C   UNL     1       2.287   4.008  18.821  0.00  0.00    +0.000 C 
ATOM     22  C   UNL     1       2.452   4.995  19.724  0.00  0.00    +0.000 C 
ATOM     23  C   UNL     1       2.218   4.840  21.201  0.00  0.00    +0.000 C 
ATOM     24  C   UNL     1       2.116   3.382  21.643  0.00  0.00    +0.000 C 
ATOM     25  C   UNL     1       1.237   2.591  20.684  0.00  0.00    +0.000 C 
ATOM     26  C   UNL     1       1.791   2.640  19.252  0.00  0.00    +0.000 C 
ENDBRANCH  20  21
ENDBRANCH  19  20
ENDBRANCH  17  19
ENDBRANCH  14  15
ENDBRANCH   1  14
TORSDOF 10
ENDMDL
MODEL 6
REMARK VINA RESULT:      -7.2      6.198      8.000
REMARK  Name = 
REMARK  10 active torsions:
REMARK  status: ('A' for Active; 'I' for Inactive)
REMARK    1  A    between atoms: C_2  and  C_3
REMARK    2  A    between atoms: C_6  and  O_7
REMARK    3  A    between atoms: O_7  and  C_8
REMARK    4  A    between atoms: C_8  and  C_9
REMARK    5  A    between atoms: C_9  and  O_11
REMARK    6  A    between atoms: O_11  and  C_12
REMARK    7  A    between atoms: C_12  and  C_13
REMARK    8  A    between atoms: N_15  and  C_16
REMARK    9  A    between atoms: C_16  and  C_17
REMARK   10  A    between atoms: C_17  and  C_18
REMARK                            x       y       z     vdW  Elec       q    Type
REMARK                         _______ _______ _______ _____ _____    ______ ____
ROOT
ATOM      1  O   UNL     1       2.029   2.781  19.497  0.00  0.00    +0.000 OA
ENDROOT
BRANCH   1   2
ATOM      2  C   UNL     1       1.848   4.041  19.006  0.00  0.00    +0.000 C 
ATOM      3  O   UNL     1       1.507   4.292  17.854  0.00  0.00    +0.000 OA
BRANCH   2   4
ATOM      4  C   UNL     1       2.056   5.092  20.093  0.00  0.00    +0.000 C 
BRANCH   4   5
ATOM      5  O   UNL     1       2.895   6.148  19.643  0.00  0.00    +0.000 OA
BRANCH   5   9
ATOM      6  C   UNL     1       1.033   9.841  19.012  0.00  0.00    +0.000 A 
ATOM      7  C   UNL     1       0.986   9.183  20.243  0.00  0.00    +0.000 A 
ATOM      8  C   UNL     1       1.618   7.944  20.398  0.00  0.00    +0.000 A 
ATOM      9  C   UNL     1       2.286   7.335  19.332  0.00  0.00    +0.000 A 
ATOM     10  C   UNL     1       2.333   7.991  18.101  0.00  0.00    +0.000 A 
ATOM     11  C   UNL     1       1.708   9.242  17.942  0.00  0.00    +0.000 A 
BRANCH   6  13
ATOM     12  N   UNL     1      -0.118  12.148  18.710  0.00  0.00    +0.000 NA
ATOM     13  C   UNL     1       0.397  11.121  18.849  0.00  0.00    +0.000 C 
ENDBRANCH   6  13
ENDBRANCH   5   9
ENDBRANCH   4   5
ENDBRANCH   2   4
ENDBRANCH   1   2
BRANCH   1  14
ATOM     14  C   UNL     1       2.994   1.991  18.784  0.00  0.00    +0.000 C 
BRANCH  14  15
ATOM     15  C   UNL     1       4.251   2.831  18.531  0.00  0.00    +0.000 C 
ATOM     16  O   UNL     1       5.012   3.157  19.448  0.00  0.00    +0.000 OA
ATOM     17  N   UNL     1       4.481   3.206  17.220  0.00  0.00    +0.000 N 
ATOM     18  H   UNL     1       3.816   2.967  16.494  0.00  0.00    +0.000 HD
BRANCH  17  19
ATOM     19  C   UNL     1       5.656   4.013  16.906  0.00  0.00    +0.000 C 
BRANCH  19  20
ATOM     20  C   UNL     1       5.442   5.072  15.814  0.00  0.00    +0.000 C 
BRANCH  20  21
ATOM     21  C   UNL     1       5.941   4.647  14.438  0.00  0.00    +0.000 C 
ATOM     22  C   UNL     1       5.202   3.852  13.637  0.00  0.00    +0.000 C 
ATOM     23  C   UNL     1       5.642   3.375  12.281  0.00  0.00    +0.000 C 
ATOM     24  C   UNL     1       7.136   3.574  12.029  0.00  0.00    +0.000 C 
ATOM     25  C   UNL     1       7.577   4.957  12.488  0.00  0.00    +0.000 C 
ATOM     26  C   UNL     1       7.292   5.165  13.983  0.00  0.00    +0.000 C 
ENDBRANCH  20  21
ENDBRANCH  19  20
ENDBRANCH  17  19
ENDBRANCH  14  15
ENDBRANCH   1  14
TORSDOF 10
ENDMDL
MODEL 7
REMARK VINA RESULT:      -7.1      3.098      8.779
REMARK  Name = 
REMARK  10 active torsions:
REMARK  status: ('A' for Active; 'I' for Inactive)
REMARK    1  A    between atoms: C_2  and  C_3
REMARK    2  A    between atoms: C_6  and  O_7
REMARK    3  A    between atoms: O_7  and  C_8
REMARK    4  A    between atoms: C_8  and  C_9
REMARK    5  A    between atoms: C_9  and  O_11
REMARK    6  A    between atoms: O_11  and  C_12
REMARK    7  A    between atoms: C_12  and  C_13
REMARK    8  A    between atoms: N_15  and  C_16
REMARK    9  A    between atoms: C_16  and  C_17
REMARK   10  A    between atoms: C_17  and  C_18
REMARK                            x       y       z     vdW  Elec       q    Type
REMARK                         _______ _______ _______ _____ _____    ______ ____
ROOT
ATOM      1  O   UNL     1       5.503   5.200  18.196  0.00  0.00    +0.000 OA
ENDROOT
BRANCH   1   2
ATOM      2  C   UNL     1       4.837   4.300  18.975  0.00  0.00    +0.000 C 
ATOM      3  O   UNL     1       5.375   3.378  19.579  0.00  0.00    +0.000 OA
BRANCH   2   4
ATOM      4  C   UNL     1       3.349   4.632  19.051  0.00  0.00    +0.000 C 
BRANCH   4   5
ATOM      5  O   UNL     1       3.006   5.692  18.168  0.00  0.00    +0.000 OA
BRANCH   5   9
ATOM      6  C   UNL     1       1.305   9.237  19.597  0.00  0.00    +0.000 A 
ATOM      7  C   UNL     1       1.650   9.064  18.255  0.00  0.00    +0.000 A 
ATOM      8  C   UNL     1       2.225   7.860  17.831  0.00  0.00    +0.000 A 
ATOM      9  C   UNL     1       2.483   6.825  18.733  0.00  0.00    +0.000 A 
ATOM     10  C   UNL     1       2.139   6.997  20.075  0.00  0.00    +0.000 A 
ATOM     11  C   UNL     1       1.551   8.201  20.505  0.00  0.00    +0.000 A 
BRANCH   6  13
ATOM     12  N   UNL     1       0.216  11.453  20.401  0.00  0.00    +0.000 NA
ATOM     13  C   UNL     1       0.701  10.466  20.038  0.00  0.00    +0.000 C 
ENDBRANCH   6  13
ENDBRANCH   5   9
ENDBRANCH   4   5
ENDBRANCH   2   4
ENDBRANCH   1   2
BRANCH   1  14
ATOM     14  C   UNL     1       6.827   5.526  18.650  0.00  0.00    +0.000 C 
BRANCH  14  15
ATOM     15  C   UNL     1       7.420   6.614  17.747  0.00  0.00    +0.000 C 
ATOM     16  O   UNL     1       7.452   6.493  16.519  0.00  0.00    +0.000 OA
ATOM     17  N   UNL     1       7.921   7.733  18.387  0.00  0.00    +0.000 N 
ATOM     18  H   UNL     1       7.926   7.785  19.399  0.00  0.00    +0.000 HD
BRANCH  17  19
ATOM     19  C   UNL     1       8.507   8.805  17.591  0.00  0.00    +0.000 C 
BRANCH  19  20
ATOM     20  C   UNL     1       8.258  10.222  18.128  0.00  0.00    +0.000 C 
BRANCH  20  21
ATOM     21  C   UNL     1       9.507  10.902  18.678  0.00  0.00    +0.000 C 
ATOM     22  C   UNL     1      10.452  11.405  17.858  0.00  0.00    +0.000 C 
ATOM     23  C   UNL     1      11.718  12.064  18.331  0.00  0.00    +0.000 C 
ATOM     24  C   UNL     1      12.015  11.806  19.807  0.00  0.00    +0.000 C 
ATOM     25  C   UNL     1      10.755  11.975  20.644  0.00  0.00    +0.000 C 
ATOM     26  C   UNL     1       9.647  11.015  20.184  0.00  0.00    +0.000 C 
ENDBRANCH  20  21
ENDBRANCH  19  20
ENDBRANCH  17  19
ENDBRANCH  14  15
ENDBRANCH   1  14
TORSDOF 10
ENDMDL
MODEL 8
REMARK VINA RESULT:      -7.1      2.086      2.979
REMARK  Name = 
REMARK  10 active torsions:
REMARK  status: ('A' for Active; 'I' for Inactive)
REMARK    1  A    between atoms: C_2  and  C_3
REMARK    2  A    between atoms: C_6  and  O_7
REMARK    3  A    between atoms: O_7  and  C_8
REMARK    4  A    between atoms: C_8  and  C_9
REMARK    5  A    between atoms: C_9  and  O_11
REMARK    6  A    between atoms: O_11  and  C_12
REMARK    7  A    between atoms: C_12  and  C_13
REMARK    8  A    between atoms: N_15  and  C_16
REMARK    9  A    between atoms: C_16  and  C_17
REMARK   10  A    between atoms: C_17  and  C_18
REMARK                            x       y       z     vdW  Elec       q    Type
REMARK                         _______ _______ _______ _____ _____    ______ ____
ROOT
ATOM      1  O   UNL     1       7.719   6.633  18.715  0.00  0.00    +0.000 OA
ENDROOT
BRANCH   1   2
ATOM      2  C   UNL     1       7.783   7.358  17.561  0.00  0.00    +0.000 C 
ATOM      3  O   UNL     1       7.663   6.881  16.437  0.00  0.00    +0.000 OA
BRANCH   2   4
ATOM      4  C   UNL     1       7.954   8.846  17.854  0.00  0.00    +0.000 C 
BRANCH   4   5
ATOM      5  O   UNL     1       8.862   9.065  18.925  0.00  0.00    +0.000 OA
BRANCH   5   9
ATOM      6  C   UNL     1      10.544  12.835  19.608  0.00  0.00    +0.000 A 
ATOM      7  C   UNL     1      10.141  11.999  20.650  0.00  0.00    +0.000 A 
ATOM      8  C   UNL     1       9.574  10.750  20.367  0.00  0.00    +0.000 A 
ATOM      9  C   UNL     1       9.384  10.325  19.049  0.00  0.00    +0.000 A 
ATOM     10  C   UNL     1       9.786  11.160  18.006  0.00  0.00    +0.000 A 
ATOM     11  C   UNL     1      10.366  12.412  18.285  0.00  0.00    +0.000 A 
BRANCH   6  13
ATOM     12  N   UNL     1      11.612  15.146  20.114  0.00  0.00    +0.000 NA
ATOM     13  C   UNL     1      11.139  14.113  19.891  0.00  0.00    +0.000 C 
ENDBRANCH   6  13
ENDBRANCH   5   9
ENDBRANCH   4   5
ENDBRANCH   2   4
ENDBRANCH   1   2
BRANCH   1  14
ATOM     14  C   UNL     1       7.553   5.218  18.528  0.00  0.00    +0.000 C 
BRANCH  14  15
ATOM     15  C   UNL     1       6.057   4.885  18.473  0.00  0.00    +0.000 C 
ATOM     16  O   UNL     1       5.616   3.991  17.744  0.00  0.00    +0.000 OA
ATOM     17  N   UNL     1       5.232   5.645  19.282  0.00  0.00    +0.000 N 
ATOM     18  H   UNL     1       5.614   6.405  19.833  0.00  0.00    +0.000 HD
BRANCH  17  19
ATOM     19  C   UNL     1       3.796   5.388  19.275  0.00  0.00    +0.000 C 
BRANCH  19  20
ATOM     20  C   UNL     1       3.003   6.168  18.215  0.00  0.00    +0.000 C 
BRANCH  20  21
ATOM     21  C   UNL     1       2.307   7.411  18.757  0.00  0.00    +0.000 C 
ATOM     22  C   UNL     1       1.961   7.513  20.056  0.00  0.00    +0.000 C 
ATOM     23  C   UNL     1       1.251   8.697  20.652  0.00  0.00    +0.000 C 
ATOM     24  C   UNL     1       0.640   9.623  19.602  0.00  0.00    +0.000 C 
ATOM     25  C   UNL     1       1.623   9.865  18.465  0.00  0.00    +0.000 C 
ATOM     26  C   UNL     1       2.031   8.546  17.790  0.00  0.00    +0.000 C 
ENDBRANCH  20  21
ENDBRANCH  19  20
ENDBRANCH  17  19
ENDBRANCH  14  15
ENDBRANCH   1  14
TORSDOF 10
ENDMDL
MODEL 9
REMARK VINA RESULT:      -7.1      6.122      8.053
REMARK  Name = 
REMARK  10 active torsions:
REMARK  status: ('A' for Active; 'I' for Inactive)
REMARK    1  A    between atoms: C_2  and  C_3
REMARK    2  A    between atoms: C_6  and  O_7
REMARK    3  A    between atoms: O_7  and  C_8
REMARK    4  A    between atoms: C_8  and  C_9
REMARK    5  A    between atoms: C_9  and  O_11
REMARK    6  A    between atoms: O_11  and  C_12
REMARK    7  A    between atoms: C_12  and  C_13
REMARK    8  A    between atoms: N_15  and  C_16
REMARK    9  A    between atoms: C_16  and  C_17
REMARK   10  A    between atoms: C_17  and  C_18
REMARK                            x       y       z     vdW  Elec       q    Type
REMARK                         _______ _______ _______ _____ _____    ______ ____
ROOT
ATOM      1  O   UNL     1       3.034   2.886  20.107  0.00  0.00    +0.000 OA
ENDROOT
BRANCH   1   2
ATOM      2  C   UNL     1       1.869   3.572  20.286  0.00  0.00    +0.000 C 
ATOM      3  O   UNL     1       0.751   3.084  20.151  0.00  0.00    +0.000 OA
BRANCH   2   4
ATOM      4  C   UNL     1       2.137   5.004  20.743  0.00  0.00    +0.000 C 
BRANCH   4   5
ATOM      5  O   UNL     1       2.841   5.743  19.753  0.00  0.00    +0.000 OA
BRANCH   5   9
ATOM      6  C   UNL     1       1.290   9.563  19.042  0.00  0.00    +0.000 A 
ATOM      7  C   UNL     1       1.178   8.932  20.282  0.00  0.00    +0.000 A 
ATOM      8  C   UNL     1       1.706   7.648  20.465  0.00  0.00    +0.000 A 
ATOM      9  C   UNL     1       2.333   6.969  19.416  0.00  0.00    +0.000 A 
ATOM     10  C   UNL     1       2.445   7.598  18.175  0.00  0.00    +0.000 A 
ATOM     11  C   UNL     1       1.925   8.893  17.990  0.00  0.00    +0.000 A 
BRANCH   6  13
ATOM     12  N   UNL     1       0.337  11.952  18.689  0.00  0.00    +0.000 NA
ATOM     13  C   UNL     1       0.761  10.887  18.851  0.00  0.00    +0.000 C 
ENDBRANCH   6  13
ENDBRANCH   5   9
ENDBRANCH   4   5
ENDBRANCH   2   4
ENDBRANCH   1   2
BRANCH   1  14
ATOM     14  C   UNL     1       3.089   2.098  18.907  0.00  0.00    +0.000 C 
BRANCH  14  15
ATOM     15  C   UNL     1       3.204   3.028  17.693  0.00  0.00    +0.000 C 
ATOM     16  O   UNL     1       2.327   3.076  16.825  0.00  0.00    +0.000 OA
ATOM     17  N   UNL     1       4.346   3.805  17.626  0.00  0.00    +0.000 N 
ATOM     18  H   UNL     1       5.073   3.711  18.325  0.00  0.00    +0.000 HD
BRANCH  17  19
ATOM     19  C   UNL     1       4.526   4.709  16.494  0.00  0.00    +0.000 C 
BRANCH  19  20
ATOM     20  C   UNL     1       5.983   5.089  16.193  0.00  0.00    +0.000 C 
BRANCH  20  21
ATOM     21  C   UNL     1       6.411   4.799  14.759  0.00  0.00    +0.000 C 
ATOM     22  C   UNL     1       7.537   5.328  14.240  0.00  0.00    +0.000 C 
ATOM     23  C   UNL     1       8.005   5.105  12.828  0.00  0.00    +0.000 C 
ATOM     24  C   UNL     1       6.924   4.517  11.923  0.00  0.00    +0.000 C 
ATOM     25  C   UNL     1       6.190   3.386  12.630  0.00  0.00    +0.000 C 
ATOM     26  C   UNL     1       5.538   3.873  13.933  0.00  0.00    +0.000 C 
ENDBRANCH  20  21
ENDBRANCH  19  20
ENDBRANCH  17  19
ENDBRANCH  14  15
ENDBRANCH   1  14
TORSDOF 10
ENDMDL
