MODEL 1
REMARK VINA RESULT:      -9.6      0.000      0.000
REMARK  Name = 
REMARK  8 active torsions:
REMARK  status: ('A' for Active; 'I' for Inactive)
REMARK    1  A    between atoms: C_1  and  C_2
REMARK    2  A    between atoms: C_2  and  C_3
REMARK    3  A    between atoms: C_2  and  C_4
REMARK    4  A    between atoms: C_2  and  N_5
REMARK    5  A    between atoms: C_9  and  C_10
REMARK    6  A    between atoms: C_10  and  C_11
REMARK    7  A    between atoms: C_10  and  N_20
REMARK    8  A    between atoms: C_14  and  N_15
REMARK                            x       y       z     vdW  Elec       q    Type
REMARK                         _______ _______ _______ _____ _____    ______ ____
ROOT
ATOM      1  C   UNL     1       4.465   5.525  18.755  0.00  0.00    +0.000 C 
ENDROOT
BRANCH   1   2
ATOM      2  N   UNL     1       3.236   6.363  18.871  0.00  0.00    +0.000 NA
ATOM      3  C   UNL     1       3.178   7.609  18.074  0.00  0.00    +0.000 C 
ATOM      4  C   UNL     1       1.708   8.070  17.908  0.00  0.00    +0.000 C 
ATOM      5  C   UNL     1       1.275   8.450  19.267  0.00  0.00    +0.000 A 
ATOM      6  C   UNL     1       1.786   7.753  20.345  0.00  0.00    +0.000 A 
ATOM      7  N   UNL     1       1.558   8.531  21.455  0.00  0.00    +0.000 N 
ATOM      8  C   UNL     1       0.886   9.692  21.091  0.00  0.00    +0.000 A 
ATOM      9  C   UNL     1       0.539  10.826  21.840  0.00  0.00    +0.000 A 
ATOM     10  C   UNL     1      -0.007  11.920  21.152  0.00  0.00    +0.000 A 
ATOM     11  C   UNL     1      -0.287  11.855  19.789  0.00  0.00    +0.000 A 
ATOM     12  C   UNL     1       0.002  10.695  19.067  0.00  0.00    +0.000 A 
ATOM     13  C   UNL     1       0.639   9.623  19.719  0.00  0.00    +0.000 A 
ATOM     14  C   UNL     1       2.648   6.510  20.233  0.00  0.00    +0.000 C 
ATOM     15  H   UNL     1       1.953   8.378  22.372  0.00  0.00    +0.000 HD
ENDBRANCH   1   2
BRANCH   1  16
ATOM     16  C   UNL     1       5.102   5.506  17.356  0.00  0.00    +0.000 A 
ATOM     17  C   UNL     1       4.597   4.673  16.335  0.00  0.00    +0.000 A 
ATOM     18  C   UNL     1       5.276   4.506  15.128  0.00  0.00    +0.000 A 
ATOM     19  C   UNL     1       6.494   5.165  14.922  0.00  0.00    +0.000 A 
ATOM     20  C   UNL     1       6.992   6.045  15.895  0.00  0.00    +0.000 A 
ATOM     21  C   UNL     1       6.279   6.232  17.088  0.00  0.00    +0.000 A 
BRANCH  19  22
ATOM     22  N   UNL     1       7.273   4.898  13.711  0.00  0.00    +0.000 N 
ATOM     23  O   UNL     1       6.890   3.980  12.967  0.00  0.00    +0.000 OA
ATOM     24  O   UNL     1       8.279   5.591  13.507  0.00  0.00    +0.000 OA
ENDBRANCH  19  22
ENDBRANCH   1  16
BRANCH   1  29
ATOM     25  N   UNL     1       3.137   3.269  19.242  0.00  0.00    +0.000 N 
ATOM     26  N   UNL     1       3.505   2.037  19.683  0.00  0.00    +0.000 NA
ATOM     27  N   UNL     1       4.728   2.155  20.142  0.00  0.00    +0.000 NA
ATOM     28  N   UNL     1       5.191   3.406  19.927  0.00  0.00    +0.000 NA
ATOM     29  C   UNL     1       4.257   4.087  19.272  0.00  0.00    +0.000 A 
BRANCH  25  31
ATOM     30  C   UNL     1       0.942   4.087  20.041  0.00  0.00    +0.000 C 
ATOM     31  C   UNL     1       1.731   3.424  18.866  0.00  0.00    +0.000 C 
ATOM     32  C   UNL     1       1.110   2.044  18.603  0.00  0.00    +0.000 C 
ATOM     33  C   UNL     1       1.500   4.330  17.654  0.00  0.00    +0.000 C 
ENDBRANCH  25  31
ENDBRANCH   1  29
TORSDOF 5
ENDMDL
MODEL 2
REMARK VINA RESULT:      -9.3      4.444      8.921
REMARK  Name = 
REMARK  8 active torsions:
REMARK  status: ('A' for Active; 'I' for Inactive)
REMARK    1  A    between atoms: C_1  and  C_2
REMARK    2  A    between atoms: C_2  and  C_3
REMARK    3  A    between atoms: C_2  and  C_4
REMARK    4  A    between atoms: C_2  and  N_5
REMARK    5  A    between atoms: C_9  and  C_10
REMARK    6  A    between atoms: C_10  and  C_11
REMARK    7  A    between atoms: C_10  and  N_20
REMARK    8  A    between atoms: C_14  and  N_15
REMARK                            x       y       z     vdW  Elec       q    Type
REMARK                         _______ _______ _______ _____ _____    ______ ____
ROOT
ATOM      1  C   UNL     1       0.110  10.186  19.984  0.00  0.00    +0.000 C 
ENDROOT
BRANCH   1   2
ATOM      2  N   UNL     1       1.233   9.268  19.632  0.00  0.00    +0.000 NA
ATOM      3  C   UNL     1       1.352   8.839  18.220  0.00  0.00    +0.000 C 
ATOM      4  C   UNL     1       2.790   8.341  17.932  0.00  0.00    +0.000 C 
ATOM      5  C   UNL     1       2.931   7.109  18.732  0.00  0.00    +0.000 A 
ATOM      6  C   UNL     1       2.277   7.028  19.945  0.00  0.00    +0.000 A 
ATOM      7  N   UNL     1       2.236   5.695  20.278  0.00  0.00    +0.000 N 
ATOM      8  C   UNL     1       2.881   4.942  19.303  0.00  0.00    +0.000 A 
ATOM      9  C   UNL     1       2.999   3.554  19.142  0.00  0.00    +0.000 A 
ATOM     10  C   UNL     1       3.586   3.082  17.958  0.00  0.00    +0.000 A 
ATOM     11  C   UNL     1       4.122   3.956  17.015  0.00  0.00    +0.000 A 
ATOM     12  C   UNL     1       4.058   5.335  17.219  0.00  0.00    +0.000 A 
ATOM     13  C   UNL     1       3.386   5.830  18.352  0.00  0.00    +0.000 A 
ATOM     14  C   UNL     1       1.541   8.180  20.603  0.00  0.00    +0.000 C 
ATOM     15  H   UNL     1       1.687   5.291  21.023  0.00  0.00    +0.000 HD
ENDBRANCH   1   2
BRANCH   1  16
ATOM     16  C   UNL     1      -0.895  10.437  18.848  0.00  0.00    +0.000 A 
ATOM     17  C   UNL     1      -0.928  11.669  18.161  0.00  0.00    +0.000 A 
ATOM     18  C   UNL     1      -1.951  11.977  17.263  0.00  0.00    +0.000 A 
ATOM     19  C   UNL     1      -2.981  11.054  17.045  0.00  0.00    +0.000 A 
ATOM     20  C   UNL     1      -2.945   9.798  17.669  0.00  0.00    +0.000 A 
ATOM     21  C   UNL     1      -1.890   9.488  18.540  0.00  0.00    +0.000 A 
BRANCH  19  22
ATOM     22  N   UNL     1      -4.122  11.420  16.203  0.00  0.00    +0.000 N 
ATOM     23  O   UNL     1      -5.146  11.839  16.765  0.00  0.00    +0.000 OA
ATOM     24  O   UNL     1      -4.005  11.273  14.979  0.00  0.00    +0.000 OA
ENDBRANCH  19  22
ENDBRANCH   1  16
BRANCH   1  29
ATOM     25  N   UNL     1       0.028  12.341  21.546  0.00  0.00    +0.000 N 
ATOM     26  N   UNL     1       0.918  13.326  21.836  0.00  0.00    +0.000 NA
ATOM     27  N   UNL     1       1.884  13.228  20.954  0.00  0.00    +0.000 NA
ATOM     28  N   UNL     1       1.688  12.153  20.160  0.00  0.00    +0.000 NA
ATOM     29  C   UNL     1       0.596  11.523  20.579  0.00  0.00    +0.000 A 
BRANCH  25  31
ATOM     30  C   UNL     1      -1.236  13.594  23.265  0.00  0.00    +0.000 C 
ATOM     31  C   UNL     1      -1.237  12.380  22.280  0.00  0.00    +0.000 C 
ATOM     32  C   UNL     1      -1.391  11.099  23.113  0.00  0.00    +0.000 C 
ATOM     33  C   UNL     1      -2.472  12.569  21.396  0.00  0.00    +0.000 C 
ENDBRANCH  25  31
ENDBRANCH   1  29
TORSDOF 5
ENDMDL
MODEL 3
REMARK VINA RESULT:      -9.2      0.822      1.333
REMARK  Name = 
REMARK  8 active torsions:
REMARK  status: ('A' for Active; 'I' for Inactive)
REMARK    1  A    between atoms: C_1  and  C_2
REMARK    2  A    between atoms: C_2  and  C_3
REMARK    3  A    between atoms: C_2  and  C_4
REMARK    4  A    between atoms: C_2  and  N_5
REMARK    5  A    between atoms: C_9  and  C_10
REMARK    6  A    between atoms: C_10  and  C_11
REMARK    7  A    between atoms: C_10  and  N_20
REMARK    8  A    between atoms: C_14  and  N_15
REMARK                            x       y       z     vdW  Elec       q    Type
REMARK                         _______ _______ _______ _____ _____    ______ ____
ROOT
ATOM      1  C   UNL     1       4.867   5.124  18.520  0.00  0.00    +0.000 C 
ENDROOT
BRANCH   1   2
ATOM      2  N   UNL     1       3.708   6.063  18.490  0.00  0.00    +0.000 NA
ATOM      3  C   UNL     1       3.915   7.389  17.866  0.00  0.00    +0.000 C 
ATOM      4  C   UNL     1       2.553   8.010  17.466  0.00  0.00    +0.000 C 
ATOM      5  C   UNL     1       1.869   8.279  18.745  0.00  0.00    +0.000 A 
ATOM      6  C   UNL     1       2.084   7.420  19.805  0.00  0.00    +0.000 A 
ATOM      7  N   UNL     1       1.682   8.089  20.936  0.00  0.00    +0.000 N 
ATOM      8  C   UNL     1       1.192   9.344  20.597  0.00  0.00    +0.000 A 
ATOM      9  C   UNL     1       0.779  10.418  21.399  0.00  0.00    +0.000 A 
ATOM     10  C   UNL     1       0.476  11.631  20.761  0.00  0.00    +0.000 A 
ATOM     11  C   UNL     1       0.490  11.744  19.373  0.00  0.00    +0.000 A 
ATOM     12  C   UNL     1       0.839  10.649  18.582  0.00  0.00    +0.000 A 
ATOM     13  C   UNL     1       1.240   9.453  19.206  0.00  0.00    +0.000 A 
ATOM     14  C   UNL     1       2.855   6.117  19.712  0.00  0.00    +0.000 C 
ATOM     15  H   UNL     1       1.859   7.797  21.887  0.00  0.00    +0.000 HD
ENDBRANCH   1   2
BRANCH   1  16
ATOM     16  C   UNL     1       5.529   4.875  17.155  0.00  0.00    +0.000 A 
ATOM     17  C   UNL     1       6.925   4.996  16.987  0.00  0.00    +0.000 A 
ATOM     18  C   UNL     1       7.513   4.959  15.722  0.00  0.00    +0.000 A 
ATOM     19  C   UNL     1       6.706   4.816  14.587  0.00  0.00    +0.000 A 
ATOM     20  C   UNL     1       5.321   4.636  14.726  0.00  0.00    +0.000 A 
ATOM     21  C   UNL     1       4.749   4.637  16.006  0.00  0.00    +0.000 A 
BRANCH  19  22
ATOM     22  N   UNL     1       7.302   4.903  13.252  0.00  0.00    +0.000 N 
ATOM     23  O   UNL     1       8.163   5.776  13.058  0.00  0.00    +0.000 OA
ATOM     24  O   UNL     1       6.900   4.112  12.389  0.00  0.00    +0.000 OA
ENDBRANCH  19  22
ENDBRANCH   1  16
BRANCH   1  29
ATOM     25  N   UNL     1       3.514   2.874  18.967  0.00  0.00    +0.000 N 
ATOM     26  N   UNL     1       3.741   1.778  19.737  0.00  0.00    +0.000 NA
ATOM     27  N   UNL     1       4.727   2.086  20.545  0.00  0.00    +0.000 NA
ATOM     28  N   UNL     1       5.201   3.318  20.257  0.00  0.00    +0.000 NA
ATOM     29  C   UNL     1       4.533   3.785  19.208  0.00  0.00    +0.000 A 
BRANCH  25  31
ATOM     30  C   UNL     1       1.195   2.020  18.841  0.00  0.00    +0.000 C 
ATOM     31  C   UNL     1       2.320   2.831  18.121  0.00  0.00    +0.000 C 
ATOM     32  C   UNL     1       2.647   2.114  16.803  0.00  0.00    +0.000 C 
ATOM     33  C   UNL     1       1.711   4.202  17.823  0.00  0.00    +0.000 C 
ENDBRANCH  25  31
ENDBRANCH   1  29
TORSDOF 5
ENDMDL
MODEL 4
REMARK VINA RESULT:      -9.1      4.263      8.827
REMARK  Name = 
REMARK  8 active torsions:
REMARK  status: ('A' for Active; 'I' for Inactive)
REMARK    1  A    between atoms: C_1  and  C_2
REMARK    2  A    between atoms: C_2  and  C_3
REMARK    3  A    between atoms: C_2  and  C_4
REMARK    4  A    between atoms: C_2  and  N_5
REMARK    5  A    between atoms: C_9  and  C_10
REMARK    6  A    between atoms: C_10  and  C_11
REMARK    7  A    between atoms: C_10  and  N_20
REMARK    8  A    between atoms: C_14  and  N_15
REMARK                            x       y       z     vdW  Elec       q    Type
REMARK                         _______ _______ _______ _____ _____    ______ ____
ROOT
ATOM      1  C   UNL     1       0.033  10.383  20.230  0.00  0.00    +0.000 C 
ENDROOT
BRANCH   1   2
ATOM      2  N   UNL     1       1.128   9.444  19.845  0.00  0.00    +0.000 NA
ATOM      3  C   UNL     1       1.199   9.016  18.430  0.00  0.00    +0.000 C 
ATOM      4  C   UNL     1       2.618   8.491  18.101  0.00  0.00    +0.000 C 
ATOM      5  C   UNL     1       2.758   7.254  18.895  0.00  0.00    +0.000 A 
ATOM      6  C   UNL     1       2.136   7.183  20.126  0.00  0.00    +0.000 A 
ATOM      7  N   UNL     1       2.078   5.850  20.456  0.00  0.00    +0.000 N 
ATOM      8  C   UNL     1       2.680   5.088  19.463  0.00  0.00    +0.000 A 
ATOM      9  C   UNL     1       2.767   3.698  19.296  0.00  0.00    +0.000 A 
ATOM     10  C   UNL     1       3.312   3.218  18.095  0.00  0.00    +0.000 A 
ATOM     11  C   UNL     1       3.838   4.083  17.139  0.00  0.00    +0.000 A 
ATOM     12  C   UNL     1       3.806   5.463  17.347  0.00  0.00    +0.000 A 
ATOM     13  C   UNL     1       3.177   5.968  18.500  0.00  0.00    +0.000 A 
ATOM     14  C   UNL     1       1.442   8.348  20.806  0.00  0.00    +0.000 C 
ATOM     15  H   UNL     1       1.542   5.455  21.216  0.00  0.00    +0.000 HD
ENDBRANCH   1   2
BRANCH   1  16
ATOM     16  C   UNL     1      -1.015  10.633  19.134  0.00  0.00    +0.000 A 
ATOM     17  C   UNL     1      -2.006   9.673  18.839  0.00  0.00    +0.000 A 
ATOM     18  C   UNL     1      -2.840   9.803  17.728  0.00  0.00    +0.000 A 
ATOM     19  C   UNL     1      -2.686  10.901  16.872  0.00  0.00    +0.000 A 
ATOM     20  C   UNL     1      -1.749  11.901  17.172  0.00  0.00    +0.000 A 
ATOM     21  C   UNL     1      -0.944  11.775  18.313  0.00  0.00    +0.000 A 
BRANCH  19  22
ATOM     22  N   UNL     1      -3.471  10.980  15.639  0.00  0.00    +0.000 N 
ATOM     23  O   UNL     1      -4.589  11.518  15.696  0.00  0.00    +0.000 OA
ATOM     24  O   UNL     1      -2.983  10.489  14.612  0.00  0.00    +0.000 OA
ENDBRANCH  19  22
ENDBRANCH   1  16
BRANCH   1  29
ATOM     25  N   UNL     1       0.015  12.593  21.716  0.00  0.00    +0.000 N 
ATOM     26  N   UNL     1       0.937  13.554  21.983  0.00  0.00    +0.000 NA
ATOM     27  N   UNL     1       1.909  13.390  21.117  0.00  0.00    +0.000 NA
ATOM     28  N   UNL     1       1.681  12.295  20.359  0.00  0.00    +0.000 NA
ATOM     29  C   UNL     1       0.562  11.721  20.785  0.00  0.00    +0.000 A 
BRANCH  25  31
ATOM     30  C   UNL     1      -2.405  13.016  21.420  0.00  0.00    +0.000 C 
ATOM     31  C   UNL     1      -1.257  12.704  22.433  0.00  0.00    +0.000 C 
ATOM     32  C   UNL     1      -1.185  13.866  23.434  0.00  0.00    +0.000 C 
ATOM     33  C   UNL     1      -1.684  11.426  23.158  0.00  0.00    +0.000 C 
ENDBRANCH  25  31
ENDBRANCH   1  29
TORSDOF 5
ENDMDL
MODEL 5
REMARK VINA RESULT:      -9.1      1.409      1.809
REMARK  Name = 
REMARK  8 active torsions:
REMARK  status: ('A' for Active; 'I' for Inactive)
REMARK    1  A    between atoms: C_1  and  C_2
REMARK    2  A    between atoms: C_2  and  C_3
REMARK    3  A    between atoms: C_2  and  C_4
REMARK    4  A    between atoms: C_2  and  N_5
REMARK    5  A    between atoms: C_9  and  C_10
REMARK    6  A    between atoms: C_10  and  C_11
REMARK    7  A    between atoms: C_10  and  N_20
REMARK    8  A    between atoms: C_14  and  N_15
REMARK                            x       y       z     vdW  Elec       q    Type
REMARK                         _______ _______ _______ _____ _____    ______ ____
ROOT
ATOM      1  C   UNL     1       3.367   5.824  19.796  0.00  0.00    +0.000 C 
ENDROOT
BRANCH   1   2
ATOM      2  N   UNL     1       2.379   6.913  19.540  0.00  0.00    +0.000 NA
ATOM      3  C   UNL     1       2.768   7.986  18.597  0.00  0.00    +0.000 C 
ATOM      4  C   UNL     1       1.508   8.714  18.066  0.00  0.00    +0.000 C 
ATOM      5  C   UNL     1       0.946   9.406  19.242  0.00  0.00    +0.000 A 
ATOM      6  C   UNL     1       1.073   8.813  20.483  0.00  0.00    +0.000 A 
ATOM      7  N   UNL     1       0.847   9.802  21.411  0.00  0.00    +0.000 N 
ATOM      8  C   UNL     1       0.554  10.999  20.769  0.00  0.00    +0.000 A 
ATOM      9  C   UNL     1       0.366  12.292  21.277  0.00  0.00    +0.000 A 
ATOM     10  C   UNL     1       0.234  13.342  20.355  0.00  0.00    +0.000 A 
ATOM     11  C   UNL     1       0.193  13.103  18.983  0.00  0.00    +0.000 A 
ATOM     12  C   UNL     1       0.314  11.802  18.493  0.00  0.00    +0.000 A 
ATOM     13  C   UNL     1       0.545  10.748  19.396  0.00  0.00    +0.000 A 
ATOM     14  C   UNL     1       1.612   7.415  20.716  0.00  0.00    +0.000 C 
ATOM     15  H   UNL     1       1.024   9.728  22.403  0.00  0.00    +0.000 HD
ENDBRANCH   1   2
BRANCH   1  16
ATOM     16  C   UNL     1       4.213   5.424  18.576  0.00  0.00    +0.000 A 
ATOM     17  C   UNL     1       5.414   4.698  18.726  0.00  0.00    +0.000 A 
ATOM     18  C   UNL     1       6.282   4.494  17.653  0.00  0.00    +0.000 A 
ATOM     19  C   UNL     1       5.970   5.032  16.399  0.00  0.00    +0.000 A 
ATOM     20  C   UNL     1       4.756   5.708  16.205  0.00  0.00    +0.000 A 
ATOM     21  C   UNL     1       3.876   5.873  17.284  0.00  0.00    +0.000 A 
BRANCH  19  22
ATOM     22  N   UNL     1       6.934   4.930  15.301  0.00  0.00    +0.000 N 
ATOM     23  O   UNL     1       6.851   3.947  14.547  0.00  0.00    +0.000 OA
ATOM     24  O   UNL     1       7.787   5.821  15.197  0.00  0.00    +0.000 OA
ENDBRANCH  19  22
ENDBRANCH   1  16
BRANCH   1  29
ATOM     25  N   UNL     1       2.109   3.479  19.863  0.00  0.00    +0.000 N 
ATOM     26  N   UNL     1       1.853   2.577  20.847  0.00  0.00    +0.000 NA
ATOM     27  N   UNL     1       2.119   3.178  21.983  0.00  0.00    +0.000 NA
ATOM     28  N   UNL     1       2.625   4.409  21.754  0.00  0.00    +0.000 NA
ATOM     29  C   UNL     1       2.729   4.578  20.441  0.00  0.00    +0.000 A 
BRANCH  25  31
ATOM     30  C   UNL     1       0.483   2.108  18.598  0.00  0.00    +0.000 C 
ATOM     31  C   UNL     1       1.693   3.094  18.513  0.00  0.00    +0.000 C 
ATOM     32  C   UNL     1       2.845   2.366  17.805  0.00  0.00    +0.000 C 
ATOM     33  C   UNL     1       1.212   4.260  17.647  0.00  0.00    +0.000 C 
ENDBRANCH  25  31
ENDBRANCH   1  29
TORSDOF 5
ENDMDL
MODEL 6
REMARK VINA RESULT:      -9.0      1.685      2.537
REMARK  Name = 
REMARK  8 active torsions:
REMARK  status: ('A' for Active; 'I' for Inactive)
REMARK    1  A    between atoms: C_1  and  C_2
REMARK    2  A    between atoms: C_2  and  C_3
REMARK    3  A    between atoms: C_2  and  C_4
REMARK    4  A    between atoms: C_2  and  N_5
REMARK    5  A    between atoms: C_9  and  C_10
REMARK    6  A    between atoms: C_10  and  C_11
REMARK    7  A    between atoms: C_10  and  N_20
REMARK    8  A    between atoms: C_14  and  N_15
REMARK                            x       y       z     vdW  Elec       q    Type
REMARK                         _______ _______ _______ _____ _____    ______ ____
ROOT
ATOM      1  C   UNL     1       3.265   5.529  18.675  0.00  0.00    +0.000 C 
ENDROOT
BRANCH   1   2
ATOM      2  N   UNL     1       2.765   6.901  18.985  0.00  0.00    +0.000 NA
ATOM      3  C   UNL     1       1.824   7.049  20.118  0.00  0.00    +0.000 C 
ATOM      4  C   UNL     1       1.809   8.516  20.614  0.00  0.00    +0.000 C 
ATOM      5  C   UNL     1       1.214   9.285  19.503  0.00  0.00    +0.000 A 
ATOM      6  C   UNL     1       1.455   8.872  18.208  0.00  0.00    +0.000 A 
ATOM      7  N   UNL     1       0.501   9.475  17.423  0.00  0.00    +0.000 N 
ATOM      8  C   UNL     1      -0.317  10.281  18.205  0.00  0.00    +0.000 A 
ATOM      9  C   UNL     1      -1.480  10.996  17.885  0.00  0.00    +0.000 A 
ATOM     10  C   UNL     1      -2.184  11.603  18.937  0.00  0.00    +0.000 A 
ATOM     11  C   UNL     1      -1.700  11.580  20.243  0.00  0.00    +0.000 A 
ATOM     12  C   UNL     1      -0.505  10.921  20.538  0.00  0.00    +0.000 A 
ATOM     13  C   UNL     1       0.164  10.225  19.514  0.00  0.00    +0.000 A 
ATOM     14  C   UNL     1       2.424   7.771  17.823  0.00  0.00    +0.000 C 
ATOM     15  H   UNL     1       0.306   9.252  16.457  0.00  0.00    +0.000 HD
ENDBRANCH   1   2
BRANCH   1  16
ATOM     16  C   UNL     1       4.089   5.422  17.382  0.00  0.00    +0.000 A 
ATOM     17  C   UNL     1       4.280   4.181  16.739  0.00  0.00    +0.000 A 
ATOM     18  C   UNL     1       5.176   4.040  15.677  0.00  0.00    +0.000 A 
ATOM     19  C   UNL     1       5.916   5.147  15.245  0.00  0.00    +0.000 A 
ATOM     20  C   UNL     1       5.704   6.406  15.826  0.00  0.00    +0.000 A 
ATOM     21  C   UNL     1       4.773   6.541  16.866  0.00  0.00    +0.000 A 
BRANCH  19  22
ATOM     22  N   UNL     1       6.946   4.980  14.218  0.00  0.00    +0.000 N 
ATOM     23  O   UNL     1       6.721   4.178  13.297  0.00  0.00    +0.000 OA
ATOM     24  O   UNL     1       7.991   5.634  14.336  0.00  0.00    +0.000 OA
ENDBRANCH  19  22
ENDBRANCH   1  16
BRANCH   1  29
ATOM     25  N   UNL     1       1.793   3.543  19.663  0.00  0.00    +0.000 N 
ATOM     26  N   UNL     1       0.642   2.939  19.267  0.00  0.00    +0.000 NA
ATOM     27  N   UNL     1       0.418   3.331  18.035  0.00  0.00    +0.000 NA
ATOM     28  N   UNL     1       1.344   4.240  17.658  0.00  0.00    +0.000 NA
ATOM     29  C   UNL     1       2.147   4.468  18.691  0.00  0.00    +0.000 A 
BRANCH  25  31
ATOM     30  C   UNL     1       2.631   4.334  21.853  0.00  0.00    +0.000 C 
ATOM     31  C   UNL     1       2.347   3.096  20.942  0.00  0.00    +0.000 C 
ATOM     32  C   UNL     1       3.681   2.373  20.703  0.00  0.00    +0.000 C 
ATOM     33  C   UNL     1       1.412   2.196  21.753  0.00  0.00    +0.000 C 
ENDBRANCH  25  31
ENDBRANCH   1  29
TORSDOF 5
ENDMDL
MODEL 7
REMARK VINA RESULT:      -9.0      1.724      2.649
REMARK  Name = 
REMARK  8 active torsions:
REMARK  status: ('A' for Active; 'I' for Inactive)
REMARK    1  A    between atoms: C_1  and  C_2
REMARK    2  A    between atoms: C_2  and  C_3
REMARK    3  A    between atoms: C_2  and  C_4
REMARK    4  A    between atoms: C_2  and  N_5
REMARK    5  A    between atoms: C_9  and  C_10
REMARK    6  A    between atoms: C_10  and  C_11
REMARK    7  A    between atoms: C_10  and  N_20
REMARK    8  A    between atoms: C_14  and  N_15
REMARK                            x       y       z     vdW  Elec       q    Type
REMARK                         _______ _______ _______ _____ _____    ______ ____
ROOT
ATOM      1  C   UNL     1       3.432   5.755  18.970  0.00  0.00    +0.000 C 
ENDROOT
BRANCH   1   2
ATOM      2  N   UNL     1       2.850   7.112  19.189  0.00  0.00    +0.000 NA
ATOM      3  C   UNL     1       1.859   7.267  20.278  0.00  0.00    +0.000 C 
ATOM      4  C   UNL     1       1.749   8.755  20.693  0.00  0.00    +0.000 C 
ATOM      5  C   UNL     1       1.158   9.432  19.523  0.00  0.00    +0.000 A 
ATOM      6  C   UNL     1       1.471   8.968  18.261  0.00  0.00    +0.000 A 
ATOM      7  N   UNL     1       0.518   9.477  17.411  0.00  0.00    +0.000 N 
ATOM      8  C   UNL     1      -0.371  10.277  18.119  0.00  0.00    +0.000 A 
ATOM      9  C   UNL     1      -1.556  10.912  17.720  0.00  0.00    +0.000 A 
ATOM     10  C   UNL     1      -2.331  11.532  18.712  0.00  0.00    +0.000 A 
ATOM     11  C   UNL     1      -1.897  11.603  20.034  0.00  0.00    +0.000 A 
ATOM     12  C   UNL     1      -0.682  11.025  20.406  0.00  0.00    +0.000 A 
ATOM     13  C   UNL     1       0.062  10.314  19.446  0.00  0.00    +0.000 A 
ATOM     14  C   UNL     1       2.510   7.902  17.971  0.00  0.00    +0.000 C 
ATOM     15  H   UNL     1       0.373   9.195  16.452  0.00  0.00    +0.000 HD
ENDBRANCH   1   2
BRANCH   1  16
ATOM     16  C   UNL     1       4.494   5.682  17.861  0.00  0.00    +0.000 A 
ATOM     17  C   UNL     1       4.444   6.544  16.745  0.00  0.00    +0.000 A 
ATOM     18  C   UNL     1       5.285   6.363  15.646  0.00  0.00    +0.000 A 
ATOM     19  C   UNL     1       6.192   5.296  15.637  0.00  0.00    +0.000 A 
ATOM     20  C   UNL     1       6.305   4.459  16.757  0.00  0.00    +0.000 A 
ATOM     21  C   UNL     1       5.479   4.676  17.869  0.00  0.00    +0.000 A 
BRANCH  19  22
ATOM     22  N   UNL     1       6.989   5.026  14.438  0.00  0.00    +0.000 N 
ATOM     23  O   UNL     1       8.055   5.647  14.299  0.00  0.00    +0.000 OA
ATOM     24  O   UNL     1       6.545   4.207  13.622  0.00  0.00    +0.000 OA
ENDBRANCH  19  22
ENDBRANCH   1  16
BRANCH   1  29
ATOM     25  N   UNL     1       1.914   3.660  19.601  0.00  0.00    +0.000 N 
ATOM     26  N   UNL     1       0.843   3.065  19.014  0.00  0.00    +0.000 NA
ATOM     27  N   UNL     1       0.763   3.553  17.799  0.00  0.00    +0.000 NA
ATOM     28  N   UNL     1       1.698   4.511  17.616  0.00  0.00    +0.000 NA
ATOM     29  C   UNL     1       2.357   4.671  18.759  0.00  0.00    +0.000 A 
BRANCH  25  31
ATOM     30  C   UNL     1       2.550   4.296  21.906  0.00  0.00    +0.000 C 
ATOM     31  C   UNL     1       2.318   3.122  20.901  0.00  0.00    +0.000 C 
ATOM     32  C   UNL     1       3.643   2.358  20.756  0.00  0.00    +0.000 C 
ATOM     33  C   UNL     1       1.273   2.218  21.559  0.00  0.00    +0.000 C 
ENDBRANCH  25  31
ENDBRANCH   1  29
TORSDOF 5
ENDMDL
MODEL 8
REMARK VINA RESULT:      -8.8      0.556      1.283
REMARK  Name = 
REMARK  8 active torsions:
REMARK  status: ('A' for Active; 'I' for Inactive)
REMARK    1  A    between atoms: C_1  and  C_2
REMARK    2  A    between atoms: C_2  and  C_3
REMARK    3  A    between atoms: C_2  and  C_4
REMARK    4  A    between atoms: C_2  and  N_5
REMARK    5  A    between atoms: C_9  and  C_10
REMARK    6  A    between atoms: C_10  and  C_11
REMARK    7  A    between atoms: C_10  and  N_20
REMARK    8  A    between atoms: C_14  and  N_15
REMARK                            x       y       z     vdW  Elec       q    Type
REMARK                         _______ _______ _______ _____ _____    ______ ____
ROOT
ATOM      1  C   UNL     1       4.664   5.112  18.928  0.00  0.00    +0.000 C 
ENDROOT
BRANCH   1   2
ATOM      2  N   UNL     1       3.494   6.034  18.833  0.00  0.00    +0.000 NA
ATOM      3  C   UNL     1       3.625   7.220  17.957  0.00  0.00    +0.000 C 
ATOM      4  C   UNL     1       2.224   7.762  17.577  0.00  0.00    +0.000 C 
ATOM      5  C   UNL     1       1.657   8.267  18.843  0.00  0.00    +0.000 A 
ATOM      6  C   UNL     1       1.981   7.619  20.019  0.00  0.00    +0.000 A 
ATOM      7  N   UNL     1       1.676   8.488  21.039  0.00  0.00    +0.000 N 
ATOM      8  C   UNL     1       1.140   9.661  20.519  0.00  0.00    +0.000 A 
ATOM      9  C   UNL     1       0.788  10.866  21.144  0.00  0.00    +0.000 A 
ATOM     10  C   UNL     1       0.411  11.940  20.323  0.00  0.00    +0.000 A 
ATOM     11  C   UNL     1       0.296  11.794  18.943  0.00  0.00    +0.000 A 
ATOM     12  C   UNL     1       0.585  10.569  18.340  0.00  0.00    +0.000 A 
ATOM     13  C   UNL     1       1.058   9.508  19.134  0.00  0.00    +0.000 A 
ATOM     14  C   UNL     1       2.757   6.318  20.097  0.00  0.00    +0.000 C 
ATOM     15  H   UNL     1       1.944   8.377  22.007  0.00  0.00    +0.000 HD
ENDBRANCH   1   2
BRANCH   1  16
ATOM     16  C   UNL     1       5.465   4.953  17.626  0.00  0.00    +0.000 A 
ATOM     17  C   UNL     1       6.540   5.815  17.320  0.00  0.00    +0.000 A 
ATOM     18  C   UNL     1       7.150   5.802  16.065  0.00  0.00    +0.000 A 
ATOM     19  C   UNL     1       6.680   4.929  15.076  0.00  0.00    +0.000 A 
ATOM     20  C   UNL     1       5.652   4.021  15.369  0.00  0.00    +0.000 A 
ATOM     21  C   UNL     1       5.074   4.019  16.647  0.00  0.00    +0.000 A 
BRANCH  19  22
ATOM     22  N   UNL     1       7.231   4.998  13.721  0.00  0.00    +0.000 N 
ATOM     23  O   UNL     1       6.714   4.282  12.848  0.00  0.00    +0.000 OA
ATOM     24  O   UNL     1       8.193   5.753  13.526  0.00  0.00    +0.000 OA
ENDBRANCH  19  22
ENDBRANCH   1  16
BRANCH   1  29
ATOM     25  N   UNL     1       3.100   3.020  19.443  0.00  0.00    +0.000 N 
ATOM     26  N   UNL     1       3.322   1.786  19.968  0.00  0.00    +0.000 NA
ATOM     27  N   UNL     1       4.522   1.817  20.498  0.00  0.00    +0.000 NA
ATOM     28  N   UNL     1       5.113   3.005  20.250  0.00  0.00    +0.000 NA
ATOM     29  C   UNL     1       4.290   3.731  19.503  0.00  0.00    +0.000 A 
BRANCH  25  31
ATOM     30  C   UNL     1       1.795   4.070  17.620  0.00  0.00    +0.000 C 
ATOM     31  C   UNL     1       1.739   3.282  18.970  0.00  0.00    +0.000 C 
ATOM     32  C   UNL     1       0.996   4.154  19.992  0.00  0.00    +0.000 C 
ATOM     33  C   UNL     1       0.921   2.023  18.676  0.00  0.00    +0.000 C 
ENDBRANCH  25  31
ENDBRANCH   1  29
TORSDOF 5
ENDMDL
MODEL 9
REMARK VINA RESULT:      -8.8      4.544      8.990
REMARK  Name = 
REMARK  8 active torsions:
REMARK  status: ('A' for Active; 'I' for Inactive)
REMARK    1  A    between atoms: C_1  and  C_2
REMARK    2  A    between atoms: C_2  and  C_3
REMARK    3  A    between atoms: C_2  and  C_4
REMARK    4  A    between atoms: C_2  and  N_5
REMARK    5  A    between atoms: C_9  and  C_10
REMARK    6  A    between atoms: C_10  and  C_11
REMARK    7  A    between atoms: C_10  and  N_20
REMARK    8  A    between atoms: C_14  and  N_15
REMARK                            x       y       z     vdW  Elec       q    Type
REMARK                         _______ _______ _______ _____ _____    ______ ____
ROOT
ATOM      1  C   UNL     1       0.702  10.645  19.588  0.00  0.00    +0.000 C 
ENDROOT
BRANCH   1   2
ATOM      2  N   UNL     1       1.538   9.423  19.406  0.00  0.00    +0.000 NA
ATOM      3  C   UNL     1       1.587   8.820  18.055  0.00  0.00    +0.000 C 
ATOM      4  C   UNL     1       2.839   7.919  17.916  0.00  0.00    +0.000 C 
ATOM      5  C   UNL     1       2.602   6.794  18.842  0.00  0.00    +0.000 A 
ATOM      6  C   UNL     1       1.905   7.034  20.010  0.00  0.00    +0.000 A 
ATOM      7  N   UNL     1       1.482   5.809  20.468  0.00  0.00    +0.000 N 
ATOM      8  C   UNL     1       1.929   4.803  19.619  0.00  0.00    +0.000 A 
ATOM      9  C   UNL     1       1.663   3.427  19.605  0.00  0.00    +0.000 A 
ATOM     10  C   UNL     1       2.140   2.681  18.516  0.00  0.00    +0.000 A 
ATOM     11  C   UNL     1       2.933   3.263  17.530  0.00  0.00    +0.000 A 
ATOM     12  C   UNL     1       3.247   4.621  17.591  0.00  0.00    +0.000 A 
ATOM     13  C   UNL     1       2.697   5.406  18.622  0.00  0.00    +0.000 A 
ATOM     14  C   UNL     1       1.494   8.409  20.499  0.00  0.00    +0.000 C 
ATOM     15  H   UNL     1       0.814   5.657  21.211  0.00  0.00    +0.000 HD
ENDBRANCH   1   2
BRANCH   1  16
ATOM     16  C   UNL     1      -0.647  10.618  18.851  0.00  0.00    +0.000 A 
ATOM     17  C   UNL     1      -0.826   9.843  17.686  0.00  0.00    +0.000 A 
ATOM     18  C   UNL     1      -1.977   9.955  16.905  0.00  0.00    +0.000 A 
ATOM     19  C   UNL     1      -2.975  10.867  17.271  0.00  0.00    +0.000 A 
ATOM     20  C   UNL     1      -2.851  11.609  18.455  0.00  0.00    +0.000 A 
ATOM     21  C   UNL     1      -1.705  11.457  19.249  0.00  0.00    +0.000 A 
BRANCH  19  22
ATOM     22  N   UNL     1      -4.126  11.081  16.391  0.00  0.00    +0.000 N 
ATOM     23  O   UNL     1      -5.085  11.729  16.839  0.00  0.00    +0.000 OA
ATOM     24  O   UNL     1      -4.085  10.587  15.256  0.00  0.00    +0.000 OA
ENDBRANCH  19  22
ENDBRANCH   1  16
BRANCH   1  29
ATOM     25  N   UNL     1       1.439  13.187  19.883  0.00  0.00    +0.000 N 
ATOM     26  N   UNL     1       2.408  13.956  19.321  0.00  0.00    +0.000 NA
ATOM     27  N   UNL     1       2.863  13.289  18.288  0.00  0.00    +0.000 NA
ATOM     28  N   UNL     1       2.277  12.073  18.221  0.00  0.00    +0.000 NA
ATOM     29  C   UNL     1       1.467  11.945  19.265  0.00  0.00    +0.000 A 
BRANCH  25  31
ATOM     30  C   UNL     1      -0.516  14.646  20.304  0.00  0.00    +0.000 C 
ATOM     31  C   UNL     1       0.648  13.819  20.941  0.00  0.00    +0.000 C 
ATOM     32  C   UNL     1       1.532  14.788  21.739  0.00  0.00    +0.000 C 
ATOM     33  C   UNL     1      -0.026  12.832  21.897  0.00  0.00    +0.000 C 
ENDBRANCH  25  31
ENDBRANCH   1  29
TORSDOF 5
ENDMDL
