MODEL 1
REMARK VINA RESULT:      -7.6      0.000      0.000
REMARK  Name = 
REMARK  11 active torsions:
REMARK  status: ('A' for Active; 'I' for Inactive)
REMARK    1  A    between atoms: C_1  and  C_2
REMARK    2  A    between atoms: C_2  and  O_3
REMARK    3  A    between atoms: O_3  and  C_4
REMARK    4  A    between atoms: C_4  and  C_6
REMARK    5  A    between atoms: C_9  and  N_10
REMARK    6  A    between atoms: C_13  and  C_14
REMARK    7  A    between atoms: N_17  and  C_18
REMARK    8  A    between atoms: C_21  and  C_22
REMARK    9  A    between atoms: C_22  and  O_24
REMARK   10  A    between atoms: O_24  and  C_25
REMARK   11  A    between atoms: C_25  and  C_26
REMARK                            x       y       z     vdW  Elec       q    Type
REMARK                         _______ _______ _______ _____ _____    ______ ____
ROOT
ATOM      1  N   UNL     1       6.199   5.227  17.310  0.00  0.00    +0.000 N 
ATOM      2  C   UNL     1       5.085   4.692  18.008  0.00  0.00    +0.000 A 
ATOM      3  C   UNL     1       4.805   3.350  17.926  0.00  0.00    +0.000 A 
ATOM      4  C   UNL     1       3.739   2.896  18.678  0.00  0.00    +0.000 A 
ATOM      5  C   UNL     1       3.378   1.441  18.697  0.00  0.00    +0.000 C 
ATOM      6  N   UNL     1       2.977   3.717  19.431  0.00  0.00    +0.000 NA
ATOM      7  C   UNL     1       3.266   5.023  19.390  0.00  0.00    +0.000 A 
ATOM      8  N   UNL     1       2.477   5.886  20.150  0.00  0.00    +0.000 N 
ATOM      9  N   UNL     1       4.290   5.526  18.695  0.00  0.00    +0.000 NA
ATOM     10  H   UNL     1       6.911   4.505  17.222  0.00  0.00    +0.000 HD
ATOM     11  H   UNL     1       1.786   5.349  20.655  0.00  0.00    +0.000 HD
ENDROOT
BRANCH   1  15
ATOM     12  C   UNL     1       8.344   8.716  18.397  0.00  0.00    +0.000 A 
ATOM     13  C   UNL     1       8.581   7.517  19.072  0.00  0.00    +0.000 A 
ATOM     14  C   UNL     1       7.858   6.374  18.733  0.00  0.00    +0.000 A 
ATOM     15  C   UNL     1       6.871   6.408  17.737  0.00  0.00    +0.000 A 
ATOM     16  C   UNL     1       6.663   7.602  17.040  0.00  0.00    +0.000 A 
ATOM     17  C   UNL     1       7.383   8.755  17.376  0.00  0.00    +0.000 A 
BRANCH  12  18
ATOM     18  C   UNL     1       9.091   9.918  18.848  0.00  0.00    +0.000 C 
ATOM     19  O   UNL     1       9.233  10.228  20.020  0.00  0.00    +0.000 OA
BRANCH  18  20
ATOM     20  O   UNL     1       9.486  10.645  17.774  0.00  0.00    +0.000 OA
BRANCH  20  22
ATOM     21  C   UNL     1      11.204  12.290  17.577  0.00  0.00    +0.000 C 
ATOM     22  C   UNL     1       9.788  12.018  18.051  0.00  0.00    +0.000 C 
ENDBRANCH  20  22
ENDBRANCH  18  20
ENDBRANCH  12  18
ENDBRANCH   1  15
BRANCH   8  23
ATOM     23  C   UNL     1       2.071   7.190  19.817  0.00  0.00    +0.000 A 
ATOM     24  C   UNL     1       2.289   7.751  18.551  0.00  0.00    +0.000 A 
ATOM     25  C   UNL     1       1.863   9.047  18.252  0.00  0.00    +0.000 A 
ATOM     26  C   UNL     1       1.226   9.821  19.225  0.00  0.00    +0.000 A 
ATOM     27  C   UNL     1       1.017   9.281  20.500  0.00  0.00    +0.000 A 
ATOM     28  C   UNL     1       1.430   7.973  20.787  0.00  0.00    +0.000 A 
BRANCH  26  29
ATOM     29  C   UNL     1       0.850  11.215  18.870  0.00  0.00    +0.000 C 
ATOM     30  O   UNL     1       1.543  12.186  19.126  0.00  0.00    +0.000 OA
BRANCH  29  31
ATOM     31  O   UNL     1      -0.388  11.241  18.315  0.00  0.00    +0.000 OA
BRANCH  31  32
ATOM     32  C   UNL     1      -1.139  12.436  18.565  0.00  0.00    +0.000 C 
ATOM     33  C   UNL     1      -2.059  12.174  19.742  0.00  0.00    +0.000 C 
ENDBRANCH  31  32
ENDBRANCH  29  31
ENDBRANCH  26  29
ENDBRANCH   8  23
TORSDOF 8
ENDMDL
MODEL 2
REMARK VINA RESULT:      -7.6      0.817      1.270
REMARK  Name = 
REMARK  11 active torsions:
REMARK  status: ('A' for Active; 'I' for Inactive)
REMARK    1  A    between atoms: C_1  and  C_2
REMARK    2  A    between atoms: C_2  and  O_3
REMARK    3  A    between atoms: O_3  and  C_4
REMARK    4  A    between atoms: C_4  and  C_6
REMARK    5  A    between atoms: C_9  and  N_10
REMARK    6  A    between atoms: C_13  and  C_14
REMARK    7  A    between atoms: N_17  and  C_18
REMARK    8  A    between atoms: C_21  and  C_22
REMARK    9  A    between atoms: C_22  and  O_24
REMARK   10  A    between atoms: O_24  and  C_25
REMARK   11  A    between atoms: C_25  and  C_26
REMARK                            x       y       z     vdW  Elec       q    Type
REMARK                         _______ _______ _______ _____ _____    ______ ____
ROOT
ATOM      1  N   UNL     1       6.124   5.242  17.331  0.00  0.00    +0.000 N 
ATOM      2  C   UNL     1       4.993   4.743  18.030  0.00  0.00    +0.000 A 
ATOM      3  C   UNL     1       4.681   3.408  17.966  0.00  0.00    +0.000 A 
ATOM      4  C   UNL     1       3.602   2.990  18.718  0.00  0.00    +0.000 A 
ATOM      5  C   UNL     1       3.206   1.544  18.757  0.00  0.00    +0.000 C 
ATOM      6  N   UNL     1       2.856   3.839  19.457  0.00  0.00    +0.000 NA
ATOM      7  C   UNL     1       3.177   5.138  19.398  0.00  0.00    +0.000 A 
ATOM      8  N   UNL     1       2.405   6.030  20.143  0.00  0.00    +0.000 N 
ATOM      9  N   UNL     1       4.216   5.606  18.702  0.00  0.00    +0.000 NA
ATOM     10  H   UNL     1       6.818   4.502  17.256  0.00  0.00    +0.000 HD
ATOM     11  H   UNL     1       1.698   5.516  20.651  0.00  0.00    +0.000 HD
ENDROOT
BRANCH   1  15
ATOM     12  C   UNL     1       8.345   8.694  18.379  0.00  0.00    +0.000 A 
ATOM     13  C   UNL     1       8.556   7.498  19.067  0.00  0.00    +0.000 A 
ATOM     14  C   UNL     1       7.809   6.367  18.741  0.00  0.00    +0.000 A 
ATOM     15  C   UNL     1       6.821   6.412  17.745  0.00  0.00    +0.000 A 
ATOM     16  C   UNL     1       6.640   7.603  17.034  0.00  0.00    +0.000 A 
ATOM     17  C   UNL     1       7.385   8.743  17.358  0.00  0.00    +0.000 A 
BRANCH  12  18
ATOM     18  C   UNL     1       9.119   9.884  18.816  0.00  0.00    +0.000 C 
ATOM     19  O   UNL     1       9.335  10.160  19.986  0.00  0.00    +0.000 OA
BRANCH  18  20
ATOM     20  O   UNL     1       9.445  10.643  17.742  0.00  0.00    +0.000 OA
BRANCH  20  22
ATOM     21  C   UNL     1      11.226  12.232  17.751  0.00  0.00    +0.000 C 
ATOM     22  C   UNL     1       9.751  12.011  18.037  0.00  0.00    +0.000 C 
ENDBRANCH  20  22
ENDBRANCH  18  20
ENDBRANCH  12  18
ENDBRANCH   1  15
BRANCH   8  23
ATOM     23  C   UNL     1       2.032   7.338  19.789  0.00  0.00    +0.000 A 
ATOM     24  C   UNL     1       2.252   7.869  18.510  0.00  0.00    +0.000 A 
ATOM     25  C   UNL     1       1.859   9.171  18.191  0.00  0.00    +0.000 A 
ATOM     26  C   UNL     1       1.254   9.980  19.156  0.00  0.00    +0.000 A 
ATOM     27  C   UNL     1       1.043   9.471  20.443  0.00  0.00    +0.000 A 
ATOM     28  C   UNL     1       1.424   8.157  20.750  0.00  0.00    +0.000 A 
BRANCH  26  29
ATOM     29  C   UNL     1       0.914  11.377  18.778  0.00  0.00    +0.000 C 
ATOM     30  O   UNL     1      -0.231  11.795  18.700  0.00  0.00    +0.000 OA
BRANCH  29  31
ATOM     31  O   UNL     1       2.038  12.065  18.457  0.00  0.00    +0.000 OA
BRANCH  31  32
ATOM     32  C   UNL     1       2.332  13.179  19.311  0.00  0.00    +0.000 C 
ATOM     33  C   UNL     1       2.362  14.430  18.455  0.00  0.00    +0.000 C 
ENDBRANCH  31  32
ENDBRANCH  29  31
ENDBRANCH  26  29
ENDBRANCH   8  23
TORSDOF 8
ENDMDL
MODEL 3
REMARK VINA RESULT:      -7.5      0.759      7.318
REMARK  Name = 
REMARK  11 active torsions:
REMARK  status: ('A' for Active; 'I' for Inactive)
REMARK    1  A    between atoms: C_1  and  C_2
REMARK    2  A    between atoms: C_2  and  O_3
REMARK    3  A    between atoms: O_3  and  C_4
REMARK    4  A    between atoms: C_4  and  C_6
REMARK    5  A    between atoms: C_9  and  N_10
REMARK    6  A    between atoms: C_13  and  C_14
REMARK    7  A    between atoms: N_17  and  C_18
REMARK    8  A    between atoms: C_21  and  C_22
REMARK    9  A    between atoms: C_22  and  O_24
REMARK   10  A    between atoms: O_24  and  C_25
REMARK   11  A    between atoms: C_25  and  C_26
REMARK                            x       y       z     vdW  Elec       q    Type
REMARK                         _______ _______ _______ _____ _____    ______ ____
ROOT
ATOM      1  N   UNL     1       2.279   5.759  20.348  0.00  0.00    +0.000 N 
ATOM      2  C   UNL     1       3.129   4.950  19.550  0.00  0.00    +0.000 A 
ATOM      3  C   UNL     1       2.969   3.586  19.543  0.00  0.00    +0.000 A 
ATOM      4  C   UNL     1       3.797   2.873  18.698  0.00  0.00    +0.000 A 
ATOM      5  C   UNL     1       3.672   1.383  18.579  0.00  0.00    +0.000 C 
ATOM      6  N   UNL     1       4.744   3.462  17.938  0.00  0.00    +0.000 NA
ATOM      7  C   UNL     1       4.890   4.786  18.067  0.00  0.00    +0.000 A 
ATOM      8  N   UNL     1       5.877   5.407  17.301  0.00  0.00    +0.000 N 
ATOM      9  N   UNL     1       4.116   5.537  18.855  0.00  0.00    +0.000 NA
ATOM     10  H   UNL     1       1.379   5.295  20.447  0.00  0.00    +0.000 HD
ATOM     11  H   UNL     1       6.335   4.716  16.724  0.00  0.00    +0.000 HD
ENDROOT
BRANCH   1  15
ATOM     12  C   UNL     1       1.223   9.746  19.377  0.00  0.00    +0.000 A 
ATOM     13  C   UNL     1       1.792   8.921  18.404  0.00  0.00    +0.000 A 
ATOM     14  C   UNL     1       2.163   7.617  18.728  0.00  0.00    +0.000 A 
ATOM     15  C   UNL     1       2.001   7.119  20.030  0.00  0.00    +0.000 A 
ATOM     16  C   UNL     1       1.398   7.936  20.990  0.00  0.00    +0.000 A 
ATOM     17  C   UNL     1       1.025   9.248  20.673  0.00  0.00    +0.000 A 
BRANCH  12  18
ATOM     18  C   UNL     1       0.913  11.147  18.995  0.00  0.00    +0.000 C 
ATOM     19  O   UNL     1       1.473  12.120  19.475  0.00  0.00    +0.000 OA
BRANCH  18  20
ATOM     20  O   UNL     1      -0.132  11.170  18.132  0.00  0.00    +0.000 OA
BRANCH  20  22
ATOM     21  C   UNL     1      -2.238  10.074  17.896  0.00  0.00    +0.000 C 
ATOM     22  C   UNL     1      -1.421  11.035  18.740  0.00  0.00    +0.000 C 
ENDBRANCH  20  22
ENDBRANCH  18  20
ENDBRANCH  12  18
ENDBRANCH   1  15
BRANCH   8  23
ATOM     23  C   UNL     1       6.694   6.489  17.673  0.00  0.00    +0.000 A 
ATOM     24  C   UNL     1       7.726   6.370  18.614  0.00  0.00    +0.000 A 
ATOM     25  C   UNL     1       8.525   7.465  18.951  0.00  0.00    +0.000 A 
ATOM     26  C   UNL     1       8.292   8.713  18.369  0.00  0.00    +0.000 A 
ATOM     27  C   UNL     1       7.252   8.853  17.441  0.00  0.00    +0.000 A 
ATOM     28  C   UNL     1       6.468   7.745  17.093  0.00  0.00    +0.000 A 
BRANCH  26  29
ATOM     29  C   UNL     1       9.132   9.857  18.813  0.00  0.00    +0.000 C 
ATOM     30  O   UNL     1       9.308  10.149  19.985  0.00  0.00    +0.000 OA
BRANCH  29  31
ATOM     31  O   UNL     1       9.584  10.553  17.740  0.00  0.00    +0.000 OA
BRANCH  31  32
ATOM     32  C   UNL     1      10.049  11.878  18.029  0.00  0.00    +0.000 C 
ATOM     33  C   UNL     1      11.556  11.891  17.863  0.00  0.00    +0.000 C 
ENDBRANCH  31  32
ENDBRANCH  29  31
ENDBRANCH  26  29
ENDBRANCH   8  23
TORSDOF 8
ENDMDL
MODEL 4
REMARK VINA RESULT:      -7.5      1.010      1.641
REMARK  Name = 
REMARK  11 active torsions:
REMARK  status: ('A' for Active; 'I' for Inactive)
REMARK    1  A    between atoms: C_1  and  C_2
REMARK    2  A    between atoms: C_2  and  O_3
REMARK    3  A    between atoms: O_3  and  C_4
REMARK    4  A    between atoms: C_4  and  C_6
REMARK    5  A    between atoms: C_9  and  N_10
REMARK    6  A    between atoms: C_13  and  C_14
REMARK    7  A    between atoms: N_17  and  C_18
REMARK    8  A    between atoms: C_21  and  C_22
REMARK    9  A    between atoms: C_22  and  O_24
REMARK   10  A    between atoms: O_24  and  C_25
REMARK   11  A    between atoms: C_25  and  C_26
REMARK                            x       y       z     vdW  Elec       q    Type
REMARK                         _______ _______ _______ _____ _____    ______ ____
ROOT
ATOM      1  N   UNL     1       6.130   5.325  17.317  0.00  0.00    +0.000 N 
ATOM      2  C   UNL     1       5.060   4.784  18.077  0.00  0.00    +0.000 A 
ATOM      3  C   UNL     1       4.812   3.434  18.046  0.00  0.00    +0.000 A 
ATOM      4  C   UNL     1       3.791   2.977  18.855  0.00  0.00    +0.000 A 
ATOM      5  C   UNL     1       3.469   1.514  18.932  0.00  0.00    +0.000 C 
ATOM      6  N   UNL     1       3.040   3.801  19.617  0.00  0.00    +0.000 NA
ATOM      7  C   UNL     1       3.293   5.112  19.525  0.00  0.00    +0.000 A 
ATOM      8  N   UNL     1       2.515   5.978  20.293  0.00  0.00    +0.000 N 
ATOM      9  N   UNL     1       4.274   5.619  18.773  0.00  0.00    +0.000 NA
ATOM     10  H   UNL     1       6.856   4.619  17.219  0.00  0.00    +0.000 HD
ATOM     11  H   UNL     1       1.860   5.439  20.842  0.00  0.00    +0.000 HD
ENDROOT
BRANCH   1  15
ATOM     12  C   UNL     1       8.215   8.907  18.199  0.00  0.00    +0.000 A 
ATOM     13  C   UNL     1       8.578   7.717  18.835  0.00  0.00    +0.000 A 
ATOM     14  C   UNL     1       7.878   6.543  18.565  0.00  0.00    +0.000 A 
ATOM     15  C   UNL     1       6.788   6.535  17.680  0.00  0.00    +0.000 A 
ATOM     16  C   UNL     1       6.452   7.721  17.020  0.00  0.00    +0.000 A 
ATOM     17  C   UNL     1       7.150   8.904  17.288  0.00  0.00    +0.000 A 
BRANCH  12  18
ATOM     18  C   UNL     1       8.951  10.140  18.579  0.00  0.00    +0.000 C 
ATOM     19  O   UNL     1       9.095  11.099  17.837  0.00  0.00    +0.000 OA
BRANCH  18  20
ATOM     20  O   UNL     1       9.507   9.987  19.805  0.00  0.00    +0.000 OA
BRANCH  20  22
ATOM     21  C   UNL     1      10.609  11.896  20.720  0.00  0.00    +0.000 C 
ATOM     22  C   UNL     1       9.321  11.093  20.696  0.00  0.00    +0.000 C 
ENDBRANCH  20  22
ENDBRANCH  18  20
ENDBRANCH  12  18
ENDBRANCH   1  15
BRANCH   8  23
ATOM     23  C   UNL     1       2.062   7.261  19.940  0.00  0.00    +0.000 A 
ATOM     24  C   UNL     1       2.237   7.799  18.658  0.00  0.00    +0.000 A 
ATOM     25  C   UNL     1       1.764   9.075  18.340  0.00  0.00    +0.000 A 
ATOM     26  C   UNL     1       1.123   9.850  19.309  0.00  0.00    +0.000 A 
ATOM     27  C   UNL     1       0.956   9.333  20.599  0.00  0.00    +0.000 A 
ATOM     28  C   UNL     1       1.417   8.046  20.906  0.00  0.00    +0.000 A 
BRANCH  26  29
ATOM     29  C   UNL     1       0.697  11.224  18.931  0.00  0.00    +0.000 C 
ATOM     30  O   UNL     1      -0.341  11.468  18.336  0.00  0.00    +0.000 OA
BRANCH  29  31
ATOM     31  O   UNL     1       1.657  12.122  19.262  0.00  0.00    +0.000 OA
BRANCH  31  32
ATOM     32  C   UNL     1       2.389  12.663  18.154  0.00  0.00    +0.000 C 
ATOM     33  C   UNL     1       3.074  13.933  18.621  0.00  0.00    +0.000 C 
ENDBRANCH  31  32
ENDBRANCH  29  31
ENDBRANCH  26  29
ENDBRANCH   8  23
TORSDOF 8
ENDMDL
MODEL 5
REMARK VINA RESULT:      -7.5      0.935      1.445
REMARK  Name = 
REMARK  11 active torsions:
REMARK  status: ('A' for Active; 'I' for Inactive)
REMARK    1  A    between atoms: C_1  and  C_2
REMARK    2  A    between atoms: C_2  and  O_3
REMARK    3  A    between atoms: O_3  and  C_4
REMARK    4  A    between atoms: C_4  and  C_6
REMARK    5  A    between atoms: C_9  and  N_10
REMARK    6  A    between atoms: C_13  and  C_14
REMARK    7  A    between atoms: N_17  and  C_18
REMARK    8  A    between atoms: C_21  and  C_22
REMARK    9  A    between atoms: C_22  and  O_24
REMARK   10  A    between atoms: O_24  and  C_25
REMARK   11  A    between atoms: C_25  and  C_26
REMARK                            x       y       z     vdW  Elec       q    Type
REMARK                         _______ _______ _______ _____ _____    ______ ____
ROOT
ATOM      1  N   UNL     1       6.151   5.346  17.297  0.00  0.00    +0.000 N 
ATOM      2  C   UNL     1       5.086   4.785  18.050  0.00  0.00    +0.000 A 
ATOM      3  C   UNL     1       4.847   3.434  18.000  0.00  0.00    +0.000 A 
ATOM      4  C   UNL     1       3.831   2.957  18.804  0.00  0.00    +0.000 A 
ATOM      5  C   UNL     1       3.520   1.491  18.860  0.00  0.00    +0.000 C 
ATOM      6  N   UNL     1       3.076   3.764  19.579  0.00  0.00    +0.000 NA
ATOM      7  C   UNL     1       3.320   5.079  19.507  0.00  0.00    +0.000 A 
ATOM      8  N   UNL     1       2.537   5.927  20.290  0.00  0.00    +0.000 N 
ATOM      9  N   UNL     1       4.295   5.604  18.761  0.00  0.00    +0.000 NA
ATOM     10  H   UNL     1       6.881   4.646  17.187  0.00  0.00    +0.000 HD
ATOM     11  H   UNL     1       1.886   5.375  20.832  0.00  0.00    +0.000 HD
ENDROOT
BRANCH   1  15
ATOM     12  C   UNL     1       8.213   8.927  18.230  0.00  0.00    +0.000 A 
ATOM     13  C   UNL     1       8.580   7.733  18.852  0.00  0.00    +0.000 A 
ATOM     14  C   UNL     1       7.887   6.557  18.566  0.00  0.00    +0.000 A 
ATOM     15  C   UNL     1       6.801   6.554  17.677  0.00  0.00    +0.000 A 
ATOM     16  C   UNL     1       6.460   7.746  17.030  0.00  0.00    +0.000 A 
ATOM     17  C   UNL     1       7.150   8.930  17.315  0.00  0.00    +0.000 A 
BRANCH  12  18
ATOM     18  C   UNL     1       8.940  10.160  18.627  0.00  0.00    +0.000 C 
ATOM     19  O   UNL     1       9.178  11.083  17.863  0.00  0.00    +0.000 OA
BRANCH  18  20
ATOM     20  O   UNL     1       9.373  10.049  19.906  0.00  0.00    +0.000 OA
BRANCH  20  22
ATOM     21  C   UNL     1      10.629  11.914  20.706  0.00  0.00    +0.000 C 
ATOM     22  C   UNL     1       9.267  11.244  20.687  0.00  0.00    +0.000 C 
ENDBRANCH  20  22
ENDBRANCH  18  20
ENDBRANCH  12  18
ENDBRANCH   1  15
BRANCH   8  23
ATOM     23  C   UNL     1       2.074   7.212  19.957  0.00  0.00    +0.000 A 
ATOM     24  C   UNL     1       1.409   8.039  20.873  0.00  0.00    +0.000 A 
ATOM     25  C   UNL     1       0.973   9.315  20.509  0.00  0.00    +0.000 A 
ATOM     26  C   UNL     1       1.173   9.784  19.209  0.00  0.00    +0.000 A 
ATOM     27  C   UNL     1       1.820   8.963  18.277  0.00  0.00    +0.000 A 
ATOM     28  C   UNL     1       2.272   7.691  18.655  0.00  0.00    +0.000 A 
BRANCH  26  29
ATOM     29  C   UNL     1       0.632  11.124  18.862  0.00  0.00    +0.000 C 
ATOM     30  O   UNL     1       1.329  12.064  18.516  0.00  0.00    +0.000 OA
BRANCH  29  31
ATOM     31  O   UNL     1      -0.708  11.159  19.071  0.00  0.00    +0.000 OA
BRANCH  31  32
ATOM     32  C   UNL     1      -1.490  10.419  18.124  0.00  0.00    +0.000 C 
ATOM     33  C   UNL     1      -2.233  11.413  17.253  0.00  0.00    +0.000 C 
ENDBRANCH  31  32
ENDBRANCH  29  31
ENDBRANCH  26  29
ENDBRANCH   8  23
TORSDOF 8
ENDMDL
MODEL 6
REMARK VINA RESULT:      -7.5      0.951      6.883
REMARK  Name = 
REMARK  11 active torsions:
REMARK  status: ('A' for Active; 'I' for Inactive)
REMARK    1  A    between atoms: C_1  and  C_2
REMARK    2  A    between atoms: C_2  and  O_3
REMARK    3  A    between atoms: O_3  and  C_4
REMARK    4  A    between atoms: C_4  and  C_6
REMARK    5  A    between atoms: C_9  and  N_10
REMARK    6  A    between atoms: C_13  and  C_14
REMARK    7  A    between atoms: N_17  and  C_18
REMARK    8  A    between atoms: C_21  and  C_22
REMARK    9  A    between atoms: C_22  and  O_24
REMARK   10  A    between atoms: O_24  and  C_25
REMARK   11  A    between atoms: C_25  and  C_26
REMARK                            x       y       z     vdW  Elec       q    Type
REMARK                         _______ _______ _______ _____ _____    ______ ____
ROOT
ATOM      1  N   UNL     1       2.270   5.827  20.261  0.00  0.00    +0.000 N 
ATOM      2  C   UNL     1       3.139   5.004  19.498  0.00  0.00    +0.000 A 
ATOM      3  C   UNL     1       2.979   3.641  19.511  0.00  0.00    +0.000 A 
ATOM      4  C   UNL     1       3.827   2.913  18.700  0.00  0.00    +0.000 A 
ATOM      5  C   UNL     1       3.705   1.421  18.604  0.00  0.00    +0.000 C 
ATOM      6  N   UNL     1       4.792   3.489  17.953  0.00  0.00    +0.000 NA
ATOM      7  C   UNL     1       4.936   4.815  18.061  0.00  0.00    +0.000 A 
ATOM      8  N   UNL     1       5.941   5.422  17.308  0.00  0.00    +0.000 N 
ATOM      9  N   UNL     1       4.142   5.579  18.817  0.00  0.00    +0.000 NA
ATOM     10  H   UNL     1       1.368   5.365  20.347  0.00  0.00    +0.000 HD
ATOM     11  H   UNL     1       6.412   4.721  16.755  0.00  0.00    +0.000 HD
ENDROOT
BRANCH   1  15
ATOM     12  C   UNL     1       1.239   9.796  19.193  0.00  0.00    +0.000 A 
ATOM     13  C   UNL     1       1.840   8.957  18.252  0.00  0.00    +0.000 A 
ATOM     14  C   UNL     1       2.203   7.659  18.608  0.00  0.00    +0.000 A 
ATOM     15  C   UNL     1       2.000   7.181  19.912  0.00  0.00    +0.000 A 
ATOM     16  C   UNL     1       1.365   8.013  20.840  0.00  0.00    +0.000 A 
ATOM     17  C   UNL     1       1.000   9.318  20.489  0.00  0.00    +0.000 A 
BRANCH  12  18
ATOM     18  C   UNL     1       0.939  11.190  18.778  0.00  0.00    +0.000 C 
ATOM     19  O   UNL     1      -0.188  11.604  18.557  0.00  0.00    +0.000 OA
BRANCH  18  20
ATOM     20  O   UNL     1       2.094  11.874  18.589  0.00  0.00    +0.000 OA
BRANCH  20  22
ATOM     21  C   UNL     1       3.326  13.894  18.282  0.00  0.00    +0.000 C 
ATOM     22  C   UNL     1       1.945  13.293  18.473  0.00  0.00    +0.000 C 
ENDBRANCH  20  22
ENDBRANCH  18  20
ENDBRANCH  12  18
ENDBRANCH   1  15
BRANCH   8  23
ATOM     23  C   UNL     1       6.748   6.511  17.681  0.00  0.00    +0.000 A 
ATOM     24  C   UNL     1       7.761   6.407  18.644  0.00  0.00    +0.000 A 
ATOM     25  C   UNL     1       8.552   7.509  18.982  0.00  0.00    +0.000 A 
ATOM     26  C   UNL     1       8.329   8.748  18.376  0.00  0.00    +0.000 A 
ATOM     27  C   UNL     1       7.309   8.871  17.424  0.00  0.00    +0.000 A 
ATOM     28  C   UNL     1       6.533   7.757  17.077  0.00  0.00    +0.000 A 
BRANCH  26  29
ATOM     29  C   UNL     1       9.159   9.899  18.820  0.00  0.00    +0.000 C 
ATOM     30  O   UNL     1       9.325  10.198  19.991  0.00  0.00    +0.000 OA
BRANCH  29  31
ATOM     31  O   UNL     1       9.612  10.593  17.747  0.00  0.00    +0.000 OA
BRANCH  31  32
ATOM     32  C   UNL     1      10.047  11.930  18.028  0.00  0.00    +0.000 C 
ATOM     33  C   UNL     1      11.552  11.981  17.853  0.00  0.00    +0.000 C 
ENDBRANCH  31  32
ENDBRANCH  29  31
ENDBRANCH  26  29
ENDBRANCH   8  23
TORSDOF 8
ENDMDL
MODEL 7
REMARK VINA RESULT:      -7.4      0.758      1.307
REMARK  Name = 
REMARK  11 active torsions:
REMARK  status: ('A' for Active; 'I' for Inactive)
REMARK    1  A    between atoms: C_1  and  C_2
REMARK    2  A    between atoms: C_2  and  O_3
REMARK    3  A    between atoms: O_3  and  C_4
REMARK    4  A    between atoms: C_4  and  C_6
REMARK    5  A    between atoms: C_9  and  N_10
REMARK    6  A    between atoms: C_13  and  C_14
REMARK    7  A    between atoms: N_17  and  C_18
REMARK    8  A    between atoms: C_21  and  C_22
REMARK    9  A    between atoms: C_22  and  O_24
REMARK   10  A    between atoms: O_24  and  C_25
REMARK   11  A    between atoms: C_25  and  C_26
REMARK                            x       y       z     vdW  Elec       q    Type
REMARK                         _______ _______ _______ _____ _____    ______ ____
ROOT
ATOM      1  N   UNL     1       6.180   5.163  17.161  0.00  0.00    +0.000 N 
ATOM      2  C   UNL     1       5.096   4.688  17.946  0.00  0.00    +0.000 A 
ATOM      3  C   UNL     1       4.801   3.347  17.966  0.00  0.00    +0.000 A 
ATOM      4  C   UNL     1       3.770   2.956  18.796  0.00  0.00    +0.000 A 
ATOM      5  C   UNL     1       3.398   1.509  18.929  0.00  0.00    +0.000 C 
ATOM      6  N   UNL     1       3.053   3.833  19.530  0.00  0.00    +0.000 NA
ATOM      7  C   UNL     1       3.350   5.130  19.389  0.00  0.00    +0.000 A 
ATOM      8  N   UNL     1       2.606   6.050  20.128  0.00  0.00    +0.000 N 
ATOM      9  N   UNL     1       4.343   5.575  18.614  0.00  0.00    +0.000 NA
ATOM     10  H   UNL     1       6.880   4.429  17.086  0.00  0.00    +0.000 HD
ATOM     11  H   UNL     1       1.936   5.555  20.699  0.00  0.00    +0.000 HD
ENDROOT
BRANCH   1  15
ATOM     12  C   UNL     1       8.133   8.748  18.295  0.00  0.00    +0.000 A 
ATOM     13  C   UNL     1       7.144   8.778  17.309  0.00  0.00    +0.000 A 
ATOM     14  C   UNL     1       6.517   7.596  16.917  0.00  0.00    +0.000 A 
ATOM     15  C   UNL     1       6.881   6.362  17.477  0.00  0.00    +0.000 A 
ATOM     16  C   UNL     1       7.846   6.343  18.488  0.00  0.00    +0.000 A 
ATOM     17  C   UNL     1       8.481   7.526  18.886  0.00  0.00    +0.000 A 
BRANCH  12  18
ATOM     18  C   UNL     1       8.815  10.027  18.622  0.00  0.00    +0.000 C 
ATOM     19  O   UNL     1       8.915  10.960  17.842  0.00  0.00    +0.000 OA
BRANCH  18  20
ATOM     20  O   UNL     1       9.381   9.946  19.850  0.00  0.00    +0.000 OA
BRANCH  20  22
ATOM     21  C   UNL     1      10.715  11.798  20.549  0.00  0.00    +0.000 C 
ATOM     22  C   UNL     1       9.340  11.156  20.616  0.00  0.00    +0.000 C 
ENDBRANCH  20  22
ENDBRANCH  18  20
ENDBRANCH  12  18
ENDBRANCH   1  15
BRANCH   8  23
ATOM     23  C   UNL     1       2.196   7.334  19.729  0.00  0.00    +0.000 A 
ATOM     24  C   UNL     1       2.470   7.856  18.457  0.00  0.00    +0.000 A 
ATOM     25  C   UNL     1       2.036   9.133  18.092  0.00  0.00    +0.000 A 
ATOM     26  C   UNL     1       1.336   9.926  19.004  0.00  0.00    +0.000 A 
ATOM     27  C   UNL     1       1.071   9.426  20.284  0.00  0.00    +0.000 A 
ATOM     28  C   UNL     1       1.492   8.137  20.637  0.00  0.00    +0.000 A 
BRANCH  26  29
ATOM     29  C   UNL     1       0.955  11.300  18.581  0.00  0.00    +0.000 C 
ATOM     30  O   UNL     1       1.759  12.207  18.432  0.00  0.00    +0.000 OA
BRANCH  29  31
ATOM     31  O   UNL     1      -0.393  11.404  18.480  0.00  0.00    +0.000 OA
BRANCH  31  32
ATOM     32  C   UNL     1      -0.913  12.731  18.638  0.00  0.00    +0.000 C 
ATOM     33  C   UNL     1      -1.497  12.842  20.032  0.00  0.00    +0.000 C 
ENDBRANCH  31  32
ENDBRANCH  29  31
ENDBRANCH  26  29
ENDBRANCH   8  23
TORSDOF 8
ENDMDL
MODEL 8
REMARK VINA RESULT:      -7.3      0.427      1.354
REMARK  Name = 
REMARK  11 active torsions:
REMARK  status: ('A' for Active; 'I' for Inactive)
REMARK    1  A    between atoms: C_1  and  C_2
REMARK    2  A    between atoms: C_2  and  O_3
REMARK    3  A    between atoms: O_3  and  C_4
REMARK    4  A    between atoms: C_4  and  C_6
REMARK    5  A    between atoms: C_9  and  N_10
REMARK    6  A    between atoms: C_13  and  C_14
REMARK    7  A    between atoms: N_17  and  C_18
REMARK    8  A    between atoms: C_21  and  C_22
REMARK    9  A    between atoms: C_22  and  O_24
REMARK   10  A    between atoms: O_24  and  C_25
REMARK   11  A    between atoms: C_25  and  C_26
REMARK                            x       y       z     vdW  Elec       q    Type
REMARK                         _______ _______ _______ _____ _____    ______ ____
ROOT
ATOM      1  N   UNL     1       6.134   5.065  17.104  0.00  0.00    +0.000 N 
ATOM      2  C   UNL     1       5.018   4.600  17.849  0.00  0.00    +0.000 A 
ATOM      3  C   UNL     1       4.671   3.272  17.807  0.00  0.00    +0.000 A 
ATOM      4  C   UNL     1       3.610   2.887  18.602  0.00  0.00    +0.000 A 
ATOM      5  C   UNL     1       3.180   1.452  18.666  0.00  0.00    +0.000 C 
ATOM      6  N   UNL     1       2.914   3.760  19.361  0.00  0.00    +0.000 NA
ATOM      7  C   UNL     1       3.265   5.049  19.282  0.00  0.00    +0.000 A 
ATOM      8  N   UNL     1       2.545   5.966  20.048  0.00  0.00    +0.000 N 
ATOM      9  N   UNL     1       4.288   5.487  18.543  0.00  0.00    +0.000 NA
ATOM     10  H   UNL     1       6.806   4.307  17.009  0.00  0.00    +0.000 HD
ATOM     11  H   UNL     1       1.845   5.473  20.586  0.00  0.00    +0.000 HD
ENDROOT
BRANCH   1  15
ATOM     12  C   UNL     1       8.199   8.523  18.420  0.00  0.00    +0.000 A 
ATOM     13  C   UNL     1       7.261   8.624  17.390  0.00  0.00    +0.000 A 
ATOM     14  C   UNL     1       6.599   7.483  16.938  0.00  0.00    +0.000 A 
ATOM     15  C   UNL     1       6.875   6.220  17.483  0.00  0.00    +0.000 A 
ATOM     16  C   UNL     1       7.788   6.130  18.538  0.00  0.00    +0.000 A 
ATOM     17  C   UNL     1       8.459   7.271  18.995  0.00  0.00    +0.000 A 
BRANCH  12  18
ATOM     18  C   UNL     1       8.925   9.758  18.811  0.00  0.00    +0.000 C 
ATOM     19  O   UNL     1       9.118  10.093  19.969  0.00  0.00    +0.000 OA
BRANCH  18  20
ATOM     20  O   UNL     1       9.234  10.481  17.707  0.00  0.00    +0.000 OA
BRANCH  20  22
ATOM     21  C   UNL     1       8.492  12.748  17.637  0.00  0.00    +0.000 C 
ATOM     22  C   UNL     1       9.654  11.826  17.962  0.00  0.00    +0.000 C 
ENDBRANCH  20  22
ENDBRANCH  18  20
ENDBRANCH  12  18
ENDBRANCH   1  15
BRANCH   8  23
ATOM     23  C   UNL     1       2.192   7.281  19.699  0.00  0.00    +0.000 A 
ATOM     24  C   UNL     1       1.528   8.146  20.579  0.00  0.00    +0.000 A 
ATOM     25  C   UNL     1       1.203   9.451  20.201  0.00  0.00    +0.000 A 
ATOM     26  C   UNL     1       1.517   9.912  18.921  0.00  0.00    +0.000 A 
ATOM     27  C   UNL     1       2.164   9.054  18.023  0.00  0.00    +0.000 A 
ATOM     28  C   UNL     1       2.504   7.753  18.416  0.00  0.00    +0.000 A 
BRANCH  26  29
ATOM     29  C   UNL     1       1.090  11.288  18.553  0.00  0.00    +0.000 C 
ATOM     30  O   UNL     1       1.867  12.220  18.412  0.00  0.00    +0.000 OA
BRANCH  29  31
ATOM     31  O   UNL     1      -0.262  11.361  18.490  0.00  0.00    +0.000 OA
BRANCH  31  32
ATOM     32  C   UNL     1      -0.833  12.554  19.044  0.00  0.00    +0.000 C 
ATOM     33  C   UNL     1      -1.893  12.145  20.047  0.00  0.00    +0.000 C 
ENDBRANCH  31  32
ENDBRANCH  29  31
ENDBRANCH  26  29
ENDBRANCH   8  23
TORSDOF 8
ENDMDL
MODEL 9
REMARK VINA RESULT:      -7.3      0.879      7.224
REMARK  Name = 
REMARK  11 active torsions:
REMARK  status: ('A' for Active; 'I' for Inactive)
REMARK    1  A    between atoms: C_1  and  C_2
REMARK    2  A    between atoms: C_2  and  O_3
REMARK    3  A    between atoms: O_3  and  C_4
REMARK    4  A    between atoms: C_4  and  C_6
REMARK    5  A    between atoms: C_9  and  N_10
REMARK    6  A    between atoms: C_13  and  C_14
REMARK    7  A    between atoms: N_17  and  C_18
REMARK    8  A    between atoms: C_21  and  C_22
REMARK    9  A    between atoms: C_22  and  O_24
REMARK   10  A    between atoms: O_24  and  C_25
REMARK   11  A    between atoms: C_25  and  C_26
REMARK                            x       y       z     vdW  Elec       q    Type
REMARK                         _______ _______ _______ _____ _____    ______ ____
ROOT
ATOM      1  N   UNL     1       2.375   5.799  20.482  0.00  0.00    +0.000 N 
ATOM      2  C   UNL     1       3.246   4.964  19.734  0.00  0.00    +0.000 A 
ATOM      3  C   UNL     1       3.129   3.598  19.821  0.00  0.00    +0.000 A 
ATOM      4  C   UNL     1       3.973   2.855  19.020  0.00  0.00    +0.000 A 
ATOM      5  C   UNL     1       3.895   1.358  19.005  0.00  0.00    +0.000 C 
ATOM      6  N   UNL     1       4.896   3.420  18.213  0.00  0.00    +0.000 NA
ATOM      7  C   UNL     1       5.001   4.754  18.249  0.00  0.00    +0.000 A 
ATOM      8  N   UNL     1       5.961   5.351  17.433  0.00  0.00    +0.000 N 
ATOM      9  N   UNL     1       4.208   5.532  18.990  0.00  0.00    +0.000 NA
ATOM     10  H   UNL     1       1.491   5.315  20.621  0.00  0.00    +0.000 HD
ATOM     11  H   UNL     1       6.437   4.636  16.901  0.00  0.00    +0.000 HD
ENDROOT
BRANCH   1  15
ATOM     12  C   UNL     1       1.187   9.672  19.241  0.00  0.00    +0.000 A 
ATOM     13  C   UNL     1       1.816   8.815  18.335  0.00  0.00    +0.000 A 
ATOM     14  C   UNL     1       2.230   7.549  18.748  0.00  0.00    +0.000 A 
ATOM     15  C   UNL     1       2.052   7.124  20.073  0.00  0.00    +0.000 A 
ATOM     16  C   UNL     1       1.389   7.972  20.966  0.00  0.00    +0.000 A 
ATOM     17  C   UNL     1       0.973   9.245  20.559  0.00  0.00    +0.000 A 
BRANCH  12  18
ATOM     18  C   UNL     1       0.832  11.033  18.765  0.00  0.00    +0.000 C 
ATOM     19  O   UNL     1       1.588  11.990  18.822  0.00  0.00    +0.000 OA
BRANCH  18  20
ATOM     20  O   UNL     1      -0.464  11.060  18.369  0.00  0.00    +0.000 OA
BRANCH  20  22
ATOM     21  C   UNL     1      -2.147  12.367  19.445  0.00  0.00    +0.000 C 
ATOM     22  C   UNL     1      -1.072  12.357  18.373  0.00  0.00    +0.000 C 
ENDBRANCH  20  22
ENDBRANCH  18  20
ENDBRANCH  12  18
ENDBRANCH   1  15
BRANCH   8  23
ATOM     23  C   UNL     1       6.745   6.481  17.723  0.00  0.00    +0.000 A 
ATOM     24  C   UNL     1       7.781   6.463  18.667  0.00  0.00    +0.000 A 
ATOM     25  C   UNL     1       8.547   7.603  18.922  0.00  0.00    +0.000 A 
ATOM     26  C   UNL     1       8.277   8.797  18.249  0.00  0.00    +0.000 A 
ATOM     27  C   UNL     1       7.234   8.837  17.315  0.00  0.00    +0.000 A 
ATOM     28  C   UNL     1       6.483   7.683  17.051  0.00  0.00    +0.000 A 
BRANCH  26  29
ATOM     29  C   UNL     1       9.083   9.995  18.605  0.00  0.00    +0.000 C 
ATOM     30  O   UNL     1       9.489  10.803  17.786  0.00  0.00    +0.000 OA
BRANCH  29  31
ATOM     31  O   UNL     1       9.363   9.995  19.932  0.00  0.00    +0.000 OA
BRANCH  31  32
ATOM     32  C   UNL     1       9.300  11.280  20.566  0.00  0.00    +0.000 C 
ATOM     33  C   UNL     1      10.710  11.832  20.645  0.00  0.00    +0.000 C 
ENDBRANCH  31  32
ENDBRANCH  29  31
ENDBRANCH  26  29
ENDBRANCH   8  23
TORSDOF 8
ENDMDL
