MODEL 1
REMARK VINA RESULT:      -6.9      0.000      0.000
REMARK  Name = 
REMARK  3 active torsions:
REMARK  status: ('A' for Active; 'I' for Inactive)
REMARK    1  A    between atoms: N_3  and  C_4
REMARK    2  A    between atoms: C_4  and  C_5
REMARK    3  A    between atoms: C_15  and  S_16
REMARK                            x       y       z     vdW  Elec       q    Type
REMARK                         _______ _______ _______ _____ _____    ______ ____
ROOT
ATOM      1  O   UNL     1       7.744   4.891  18.532  0.00  0.00    +0.000 OA
ATOM      2  C   UNL     1       6.678   4.478  18.083  0.00  0.00    +0.000 C 
ATOM      3  N   UNL     1       6.322   4.599  16.776  0.00  0.00    +0.000 N 
ATOM      4  N   UNL     1       5.778   3.911  18.932  0.00  0.00    +0.000 N 
ATOM      5  C   UNL     1       4.543   3.448  18.586  0.00  0.00    +0.000 A 
ATOM      6  N   UNL     1       4.048   3.246  17.387  0.00  0.00    +0.000 NA
ATOM      7  N   UNL     1       2.728   2.843  17.446  0.00  0.00    +0.000 NA
ATOM      8  C   UNL     1       2.293   2.790  18.687  0.00  0.00    +0.000 A 
ATOM      9  S   UNL     1       3.476   3.142  19.877  0.00  0.00    +0.000 S 
ATOM     10  H   UNL     1       5.410   4.265  16.489  0.00  0.00    +0.000 HD
ATOM     11  H   UNL     1       6.028   3.943  19.909  0.00  0.00    +0.000 HD
ENDROOT
BRANCH   8  12
ATOM     12  S   UNL     1       0.636   2.399  19.047  0.00  0.00    +0.000 S 
ATOM     13  H   UNL     1       0.847   2.063  20.327  0.00  0.00    +0.000 HD
ENDBRANCH   8  12
BRANCH   3  14
ATOM     14  C   UNL     1       7.071   5.383  15.823  0.00  0.00    +0.000 C 
BRANCH  14  15
ATOM     15  C   UNL     1       6.914   4.817  14.434  0.00  0.00    +0.000 A 
ATOM     16  C   UNL     1       7.741   5.254  13.388  0.00  0.00    +0.000 A 
ATOM     17  C   UNL     1       7.580   4.747  12.096  0.00  0.00    +0.000 A 
ATOM     18  C   UNL     1       6.580   3.809  11.834  0.00  0.00    +0.000 A 
ATOM     19  C   UNL     1       5.747   3.376  12.861  0.00  0.00    +0.000 A 
ATOM     20  C   UNL     1       5.908   3.880  14.154  0.00  0.00    +0.000 A 
ENDBRANCH  14  15
ENDBRANCH   3  14
TORSDOF 3
ENDMDL
MODEL 2
REMARK VINA RESULT:      -6.9      0.026      1.171
REMARK  Name = 
REMARK  3 active torsions:
REMARK  status: ('A' for Active; 'I' for Inactive)
REMARK    1  A    between atoms: N_3  and  C_4
REMARK    2  A    between atoms: C_4  and  C_5
REMARK    3  A    between atoms: C_15  and  S_16
REMARK                            x       y       z     vdW  Elec       q    Type
REMARK                         _______ _______ _______ _____ _____    ______ ____
ROOT
ATOM      1  O   UNL     1       7.759   4.893  18.514  0.00  0.00    +0.000 OA
ATOM      2  C   UNL     1       6.692   4.483  18.065  0.00  0.00    +0.000 C 
ATOM      3  N   UNL     1       6.337   4.604  16.758  0.00  0.00    +0.000 N 
ATOM      4  N   UNL     1       5.790   3.921  18.915  0.00  0.00    +0.000 N 
ATOM      5  C   UNL     1       4.553   3.463  18.569  0.00  0.00    +0.000 A 
ATOM      6  N   UNL     1       4.057   3.261  17.370  0.00  0.00    +0.000 NA
ATOM      7  N   UNL     1       2.736   2.863  17.431  0.00  0.00    +0.000 NA
ATOM      8  C   UNL     1       2.301   2.813  18.672  0.00  0.00    +0.000 A 
ATOM      9  S   UNL     1       3.485   3.162  19.861  0.00  0.00    +0.000 S 
ATOM     10  H   UNL     1       5.423   4.274  16.472  0.00  0.00    +0.000 HD
ATOM     11  H   UNL     1       6.040   3.953  19.892  0.00  0.00    +0.000 HD
ENDROOT
BRANCH   8  12
ATOM     12  S   UNL     1       0.642   2.429  19.032  0.00  0.00    +0.000 S 
ATOM     13  H   UNL     1       0.330   1.996  17.802  0.00  0.00    +0.000 HD
ENDBRANCH   8  12
BRANCH   3  14
ATOM     14  C   UNL     1       7.088   5.385  15.804  0.00  0.00    +0.000 C 
BRANCH  14  15
ATOM     15  C   UNL     1       6.899   4.840  14.410  0.00  0.00    +0.000 A 
ATOM     16  C   UNL     1       5.914   3.875  14.150  0.00  0.00    +0.000 A 
ATOM     17  C   UNL     1       5.753   3.353  12.864  0.00  0.00    +0.000 A 
ATOM     18  C   UNL     1       6.588   3.780  11.829  0.00  0.00    +0.000 A 
ATOM     19  C   UNL     1       7.574   4.728  12.077  0.00  0.00    +0.000 A 
ATOM     20  C   UNL     1       7.734   5.253  13.362  0.00  0.00    +0.000 A 
ENDBRANCH  14  15
ENDBRANCH   3  14
TORSDOF 3
ENDMDL
MODEL 3
REMARK VINA RESULT:      -6.4      2.994      6.431
REMARK  Name = 
REMARK  3 active torsions:
REMARK  status: ('A' for Active; 'I' for Inactive)
REMARK    1  A    between atoms: N_3  and  C_4
REMARK    2  A    between atoms: C_4  and  C_5
REMARK    3  A    between atoms: C_15  and  S_16
REMARK                            x       y       z     vdW  Elec       q    Type
REMARK                         _______ _______ _______ _____ _____    ______ ____
ROOT
ATOM      1  O   UNL     1       6.711   5.125  19.741  0.00  0.00    +0.000 OA
ATOM      2  C   UNL     1       6.241   4.661  18.704  0.00  0.00    +0.000 C 
ATOM      3  N   UNL     1       5.280   3.700  18.686  0.00  0.00    +0.000 N 
ATOM      4  N   UNL     1       6.732   5.087  17.508  0.00  0.00    +0.000 N 
ATOM      5  C   UNL     1       6.341   4.633  16.284  0.00  0.00    +0.000 A 
ATOM      6  N   UNL     1       5.304   3.888  15.976  0.00  0.00    +0.000 NA
ATOM      7  N   UNL     1       5.290   3.573  14.632  0.00  0.00    +0.000 NA
ATOM      8  C   UNL     1       6.332   4.076  14.004  0.00  0.00    +0.000 A 
ATOM      9  S   UNL     1       7.360   5.039  14.981  0.00  0.00    +0.000 S 
ATOM     10  H   UNL     1       4.970   3.342  17.790  0.00  0.00    +0.000 HD
ATOM     11  H   UNL     1       7.521   5.714  17.564  0.00  0.00    +0.000 HD
ENDROOT
BRANCH   8  12
ATOM     12  S   UNL     1       6.611   3.754  12.317  0.00  0.00    +0.000 S 
ATOM     13  H   UNL     1       7.616   2.887  12.506  0.00  0.00    +0.000 HD
ENDBRANCH   8  12
BRANCH   3  14
ATOM     14  C   UNL     1       4.844   2.996  19.868  0.00  0.00    +0.000 C 
BRANCH  14  15
ATOM     15  C   UNL     1       3.344   3.073  20.005  0.00  0.00    +0.000 A 
ATOM     16  C   UNL     1       2.726   2.790  21.232  0.00  0.00    +0.000 A 
ATOM     17  C   UNL     1       1.334   2.838  21.354  0.00  0.00    +0.000 A 
ATOM     18  C   UNL     1       0.548   3.155  20.244  0.00  0.00    +0.000 A 
ATOM     19  C   UNL     1       1.149   3.428  19.021  0.00  0.00    +0.000 A 
ATOM     20  C   UNL     1       2.540   3.382  18.898  0.00  0.00    +0.000 A 
ENDBRANCH  14  15
ENDBRANCH   3  14
TORSDOF 3
ENDMDL
MODEL 4
REMARK VINA RESULT:      -6.3      2.962      6.363
REMARK  Name = 
REMARK  3 active torsions:
REMARK  status: ('A' for Active; 'I' for Inactive)
REMARK    1  A    between atoms: N_3  and  C_4
REMARK    2  A    between atoms: C_4  and  C_5
REMARK    3  A    between atoms: C_15  and  S_16
REMARK                            x       y       z     vdW  Elec       q    Type
REMARK                         _______ _______ _______ _____ _____    ______ ____
ROOT
ATOM      1  O   UNL     1       6.627   5.075  19.787  0.00  0.00    +0.000 OA
ATOM      2  C   UNL     1       6.183   4.622  18.735  0.00  0.00    +0.000 C 
ATOM      3  N   UNL     1       5.235   3.649  18.682  0.00  0.00    +0.000 N 
ATOM      4  N   UNL     1       6.690   5.075  17.556  0.00  0.00    +0.000 N 
ATOM      5  C   UNL     1       6.328   4.637  16.316  0.00  0.00    +0.000 A 
ATOM      6  N   UNL     1       5.308   3.884  15.977  0.00  0.00    +0.000 NA
ATOM      7  N   UNL     1       5.323   3.591  14.627  0.00  0.00    +0.000 NA
ATOM      8  C   UNL     1       6.369   4.118  14.028  0.00  0.00    +0.000 A 
ATOM      9  S   UNL     1       7.366   5.078  15.040  0.00  0.00    +0.000 S 
ATOM     10  H   UNL     1       4.947   3.303  17.774  0.00  0.00    +0.000 HD
ATOM     11  H   UNL     1       7.470   5.711  17.637  0.00  0.00    +0.000 HD
ENDROOT
BRANCH   8  12
ATOM     12  S   UNL     1       6.685   3.829  12.342  0.00  0.00    +0.000 S 
ATOM     13  H   UNL     1       7.564   2.835  12.534  0.00  0.00    +0.000 HD
ENDBRANCH   8  12
BRANCH   3  14
ATOM     14  C   UNL     1       4.787   2.919  19.844  0.00  0.00    +0.000 C 
BRANCH  14  15
ATOM     15  C   UNL     1       3.279   2.874  19.889  0.00  0.00    +0.000 A 
ATOM     16  C   UNL     1       2.538   2.648  18.720  0.00  0.00    +0.000 A 
ATOM     17  C   UNL     1       1.140   2.631  18.758  0.00  0.00    +0.000 A 
ATOM     18  C   UNL     1       0.473   2.854  19.964  0.00  0.00    +0.000 A 
ATOM     19  C   UNL     1       1.198   3.090  21.127  0.00  0.00    +0.000 A 
ATOM     20  C   UNL     1       2.594   3.106  21.091  0.00  0.00    +0.000 A 
ENDBRANCH  14  15
ENDBRANCH   3  14
TORSDOF 3
ENDMDL
MODEL 5
REMARK VINA RESULT:      -6.3      6.094      7.862
REMARK  Name = 
REMARK  3 active torsions:
REMARK  status: ('A' for Active; 'I' for Inactive)
REMARK    1  A    between atoms: N_3  and  C_4
REMARK    2  A    between atoms: C_4  and  C_5
REMARK    3  A    between atoms: C_15  and  S_16
REMARK                            x       y       z     vdW  Elec       q    Type
REMARK                         _______ _______ _______ _____ _____    ______ ____
ROOT
ATOM      1  O   UNL     1       2.667   8.495  17.034  0.00  0.00    +0.000 OA
ATOM      2  C   UNL     1       2.245   8.404  18.184  0.00  0.00    +0.000 C 
ATOM      3  N   UNL     1       2.241   7.241  18.887  0.00  0.00    +0.000 N 
ATOM      4  N   UNL     1       1.706   9.504  18.778  0.00  0.00    +0.000 N 
ATOM      5  C   UNL     1       1.161   9.543  20.027  0.00  0.00    +0.000 A 
ATOM      6  N   UNL     1       1.225   8.642  20.981  0.00  0.00    +0.000 NA
ATOM      7  N   UNL     1       0.477   9.015  22.079  0.00  0.00    +0.000 NA
ATOM      8  C   UNL     1      -0.133  10.165  21.883  0.00  0.00    +0.000 A 
ATOM      9  S   UNL     1       0.225  10.919  20.386  0.00  0.00    +0.000 S 
ATOM     10  H   UNL     1       1.841   7.239  19.818  0.00  0.00    +0.000 HD
ATOM     11  H   UNL     1       1.622  10.317  18.186  0.00  0.00    +0.000 HD
ENDROOT
BRANCH   8  12
ATOM     12  S   UNL     1      -1.218  10.826  23.073  0.00  0.00    +0.000 S 
ATOM     13  H   UNL     1      -1.530  11.929  22.377  0.00  0.00    +0.000 HD
ENDBRANCH   8  12
BRANCH   3  14
ATOM     14  C   UNL     1       2.560   5.961  18.300  0.00  0.00    +0.000 C 
BRANCH  14  15
ATOM     15  C   UNL     1       2.136   4.840  19.216  0.00  0.00    +0.000 A 
ATOM     16  C   UNL     1       1.390   3.760  18.722  0.00  0.00    +0.000 A 
ATOM     17  C   UNL     1       0.976   2.733  19.575  0.00  0.00    +0.000 A 
ATOM     18  C   UNL     1       1.294   2.785  20.934  0.00  0.00    +0.000 A 
ATOM     19  C   UNL     1       2.024   3.856  21.436  0.00  0.00    +0.000 A 
ATOM     20  C   UNL     1       2.440   4.882  20.584  0.00  0.00    +0.000 A 
ENDBRANCH  14  15
ENDBRANCH   3  14
TORSDOF 3
ENDMDL
MODEL 6
REMARK VINA RESULT:      -6.3      4.786      5.974
REMARK  Name = 
REMARK  3 active torsions:
REMARK  status: ('A' for Active; 'I' for Inactive)
REMARK    1  A    between atoms: N_3  and  C_4
REMARK    2  A    between atoms: C_4  and  C_5
REMARK    3  A    between atoms: C_15  and  S_16
REMARK                            x       y       z     vdW  Elec       q    Type
REMARK                         _______ _______ _______ _____ _____    ______ ____
ROOT
ATOM      1  O   UNL     1       3.127   4.541  20.189  0.00  0.00    +0.000 OA
ATOM      2  C   UNL     1       2.810   5.643  19.747  0.00  0.00    +0.000 C 
ATOM      3  N   UNL     1       3.185   6.090  18.519  0.00  0.00    +0.000 N 
ATOM      4  N   UNL     1       2.088   6.487  20.534  0.00  0.00    +0.000 N 
ATOM      5  C   UNL     1       1.703   7.751  20.196  0.00  0.00    +0.000 A 
ATOM      6  N   UNL     1       1.740   8.335  19.020  0.00  0.00    +0.000 NA
ATOM      7  N   UNL     1       1.334   9.652  19.098  0.00  0.00    +0.000 NA
ATOM      8  C   UNL     1       1.038   9.997  20.333  0.00  0.00    +0.000 A 
ATOM      9  S   UNL     1       1.151   8.726  21.478  0.00  0.00    +0.000 S 
ATOM     10  H   UNL     1       2.914   7.026  18.241  0.00  0.00    +0.000 HD
ATOM     11  H   UNL     1       1.928   6.167  21.477  0.00  0.00    +0.000 HD
ENDROOT
BRANCH   8  12
ATOM     12  S   UNL     1       0.586  11.629  20.731  0.00  0.00    +0.000 S 
ATOM     13  H   UNL     1       1.484  12.221  19.930  0.00  0.00    +0.000 HD
ENDBRANCH   8  12
BRANCH   3  14
ATOM     14  C   UNL     1       4.140   5.400  17.685  0.00  0.00    +0.000 C 
BRANCH  14  15
ATOM     15  C   UNL     1       5.535   5.914  17.944  0.00  0.00    +0.000 A 
ATOM     16  C   UNL     1       6.331   5.337  18.944  0.00  0.00    +0.000 A 
ATOM     17  C   UNL     1       7.615   5.828  19.201  0.00  0.00    +0.000 A 
ATOM     18  C   UNL     1       8.106   6.911  18.469  0.00  0.00    +0.000 A 
ATOM     19  C   UNL     1       7.321   7.497  17.483  0.00  0.00    +0.000 A 
ATOM     20  C   UNL     1       6.039   7.006  17.223  0.00  0.00    +0.000 A 
ENDBRANCH  14  15
ENDBRANCH   3  14
TORSDOF 3
ENDMDL
MODEL 7
REMARK VINA RESULT:      -6.3      6.019      7.710
REMARK  Name = 
REMARK  3 active torsions:
REMARK  status: ('A' for Active; 'I' for Inactive)
REMARK    1  A    between atoms: N_3  and  C_4
REMARK    2  A    between atoms: C_4  and  C_5
REMARK    3  A    between atoms: C_15  and  S_16
REMARK                            x       y       z     vdW  Elec       q    Type
REMARK                         _______ _______ _______ _____ _____    ______ ____
ROOT
ATOM      1  O   UNL     1       2.492   8.545  16.966  0.00  0.00    +0.000 OA
ATOM      2  C   UNL     1       2.214   8.530  18.162  0.00  0.00    +0.000 C 
ATOM      3  N   UNL     1       2.565   7.515  18.997  0.00  0.00    +0.000 N 
ATOM      4  N   UNL     1       1.477   9.549  18.682  0.00  0.00    +0.000 N 
ATOM      5  C   UNL     1       1.057   9.645  19.976  0.00  0.00    +0.000 A 
ATOM      6  N   UNL     1       1.432   8.936  21.016  0.00  0.00    +0.000 NA
ATOM      7  N   UNL     1       0.719   9.282  22.146  0.00  0.00    +0.000 NA
ATOM      8  C   UNL     1      -0.173  10.215  21.891  0.00  0.00    +0.000 A 
ATOM      9  S   UNL     1      -0.155  10.801  20.280  0.00  0.00    +0.000 S 
ATOM     10  H   UNL     1       2.267   7.559  19.964  0.00  0.00    +0.000 HD
ATOM     11  H   UNL     1       1.137  10.222  18.011  0.00  0.00    +0.000 HD
ENDROOT
BRANCH   8  12
ATOM     12  S   UNL     1      -1.273  10.773  23.118  0.00  0.00    +0.000 S 
ATOM     13  H   UNL     1      -2.272   9.939  22.799  0.00  0.00    +0.000 HD
ENDBRANCH   8  12
BRANCH   3  14
ATOM     14  C   UNL     1       3.136   6.273  18.534  0.00  0.00    +0.000 C 
BRANCH  14  15
ATOM     15  C   UNL     1       2.288   5.106  18.974  0.00  0.00    +0.000 A 
ATOM     16  C   UNL     1       1.948   4.942  20.325  0.00  0.00    +0.000 A 
ATOM     17  C   UNL     1       1.183   3.847  20.737  0.00  0.00    +0.000 A 
ATOM     18  C   UNL     1       0.763   2.899  19.803  0.00  0.00    +0.000 A 
ATOM     19  C   UNL     1       1.103   3.046  18.462  0.00  0.00    +0.000 A 
ATOM     20  C   UNL     1       1.867   4.141  18.048  0.00  0.00    +0.000 A 
ENDBRANCH  14  15
ENDBRANCH   3  14
TORSDOF 3
ENDMDL
MODEL 8
REMARK VINA RESULT:      -6.3      1.162      1.732
REMARK  Name = 
REMARK  3 active torsions:
REMARK  status: ('A' for Active; 'I' for Inactive)
REMARK    1  A    between atoms: N_3  and  C_4
REMARK    2  A    between atoms: C_4  and  C_5
REMARK    3  A    between atoms: C_15  and  S_16
REMARK                            x       y       z     vdW  Elec       q    Type
REMARK                         _______ _______ _______ _____ _____    ______ ____
ROOT
ATOM      1  O   UNL     1       8.100   4.566  16.957  0.00  0.00    +0.000 OA
ATOM      2  C   UNL     1       6.901   4.316  16.862  0.00  0.00    +0.000 C 
ATOM      3  N   UNL     1       6.228   4.328  15.680  0.00  0.00    +0.000 N 
ATOM      4  N   UNL     1       6.187   4.060  17.992  0.00  0.00    +0.000 N 
ATOM      5  C   UNL     1       4.848   3.811  18.045  0.00  0.00    +0.000 A 
ATOM      6  N   UNL     1       4.020   3.552  17.059  0.00  0.00    +0.000 NA
ATOM      7  N   UNL     1       2.720   3.432  17.509  0.00  0.00    +0.000 NA
ATOM      8  C   UNL     1       2.635   3.635  18.807  0.00  0.00    +0.000 A 
ATOM      9  S   UNL     1       4.137   3.901  19.590  0.00  0.00    +0.000 S 
ATOM     10  H   UNL     1       5.231   4.147  15.688  0.00  0.00    +0.000 HD
ATOM     11  H   UNL     1       6.695   4.174  18.857  0.00  0.00    +0.000 HD
ENDROOT
BRANCH   8  12
ATOM     12  S   UNL     1       1.098   3.635  19.621  0.00  0.00    +0.000 S 
ATOM     13  H   UNL     1       1.313   4.757  20.323  0.00  0.00    +0.000 HD
ENDBRANCH   8  12
BRANCH   3  14
ATOM     14  C   UNL     1       6.804   4.811  14.448  0.00  0.00    +0.000 C 
BRANCH  14  15
ATOM     15  C   UNL     1       6.305   3.999  13.278  0.00  0.00    +0.000 A 
ATOM     16  C   UNL     1       4.933   3.919  13.000  0.00  0.00    +0.000 A 
ATOM     17  C   UNL     1       4.469   3.147  11.931  0.00  0.00    +0.000 A 
ATOM     18  C   UNL     1       5.373   2.436  11.140  0.00  0.00    +0.000 A 
ATOM     19  C   UNL     1       6.735   2.499  11.414  0.00  0.00    +0.000 A 
ATOM     20  C   UNL     1       7.201   3.272  12.480  0.00  0.00    +0.000 A 
ENDBRANCH  14  15
ENDBRANCH   3  14
TORSDOF 3
ENDMDL
MODEL 9
REMARK VINA RESULT:      -6.2      5.041      6.154
REMARK  Name = 
REMARK  3 active torsions:
REMARK  status: ('A' for Active; 'I' for Inactive)
REMARK    1  A    between atoms: N_3  and  C_4
REMARK    2  A    between atoms: C_4  and  C_5
REMARK    3  A    between atoms: C_15  and  S_16
REMARK                            x       y       z     vdW  Elec       q    Type
REMARK                         _______ _______ _______ _____ _____    ______ ____
ROOT
ATOM      1  O   UNL     1       2.774   4.789  20.471  0.00  0.00    +0.000 OA
ATOM      2  C   UNL     1       2.488   5.886  19.998  0.00  0.00    +0.000 C 
ATOM      3  N   UNL     1       2.811   6.259  18.731  0.00  0.00    +0.000 N 
ATOM      4  N   UNL     1       1.859   6.801  20.785  0.00  0.00    +0.000 N 
ATOM      5  C   UNL     1       1.520   8.068  20.412  0.00  0.00    +0.000 A 
ATOM      6  N   UNL     1       1.516   8.598  19.211  0.00  0.00    +0.000 NA
ATOM      7  N   UNL     1       1.183   9.938  19.251  0.00  0.00    +0.000 NA
ATOM      8  C   UNL     1       0.980  10.351  20.484  0.00  0.00    +0.000 A 
ATOM      9  S   UNL     1       1.095   9.126  21.678  0.00  0.00    +0.000 S 
ATOM     10  H   UNL     1       2.572   7.196  18.426  0.00  0.00    +0.000 HD
ATOM     11  H   UNL     1       1.739   6.531  21.750  0.00  0.00    +0.000 HD
ENDROOT
BRANCH   8  12
ATOM     12  S   UNL     1       0.637  12.021  20.831  0.00  0.00    +0.000 S 
ATOM     13  H   UNL     1       0.479  11.858  22.153  0.00  0.00    +0.000 HD
ENDBRANCH   8  12
BRANCH   3  14
ATOM     14  C   UNL     1       3.678   5.484  17.876  0.00  0.00    +0.000 C 
BRANCH  14  15
ATOM     15  C   UNL     1       5.115   5.900  18.066  0.00  0.00    +0.000 A 
ATOM     16  C   UNL     1       5.698   6.855  17.220  0.00  0.00    +0.000 A 
ATOM     17  C   UNL     1       7.038   7.223  17.380  0.00  0.00    +0.000 A 
ATOM     18  C   UNL     1       7.809   6.626  18.379  0.00  0.00    +0.000 A 
ATOM     19  C   UNL     1       7.245   5.670  19.216  0.00  0.00    +0.000 A 
ATOM     20  C   UNL     1       5.906   5.303  19.059  0.00  0.00    +0.000 A 
ENDBRANCH  14  15
ENDBRANCH   3  14
TORSDOF 3
ENDMDL
