MODEL 1
REMARK VINA RESULT:      -7.2      0.000      0.000
REMARK  Name = 
REMARK  7 active torsions:
REMARK  status: ('A' for Active; 'I' for Inactive)
REMARK    1  A    between atoms: C_1  and  C_2
REMARK    2  A    between atoms: C_2  and  C_3
REMARK    3  A    between atoms: N_5  and  C_6
REMARK    4  A    between atoms: N_5  and  C_14
REMARK    5  A    between atoms: N_17  and  C_18
REMARK    6  A    between atoms: C_18  and  C_19
REMARK    7  A    between atoms: C_28  and  N_29
REMARK                            x       y       z     vdW  Elec       q    Type
REMARK                         _______ _______ _______ _____ _____    ______ ____
ROOT
ATOM      1  C   UNL     1      -0.094  12.176  21.367  0.00  0.00    +0.000 C 
ATOM      2  C   UNL     1       1.426  12.023  21.178  0.00  0.00    +0.000 C 
ATOM      3  C   UNL     1       1.713  11.201  19.933  0.00  0.00    +0.000 C 
ATOM      4  N   UNL     1       1.160   9.843  20.006  0.00  0.00    +0.000 NA
ATOM      5  C   UNL     1      -0.226   9.761  20.492  0.00  0.00    +0.000 C 
ATOM      6  C   UNL     1      -0.619  10.747  21.596  0.00  0.00    +0.000 C 
ENDROOT
BRANCH   1   9
ATOM      7  C   UNL     1      -0.134  14.308  20.113  0.00  0.00    +0.000 C 
ATOM      8  O   UNL     1       0.661  14.785  20.929  0.00  0.00    +0.000 OA
ATOM      9  N   UNL     1      -0.694  13.027  20.289  0.00  0.00    +0.000 N 
BRANCH   9  10
ATOM     10  C   UNL     1      -1.662  12.490  19.395  0.00  0.00    +0.000 A 
ATOM     11  C   UNL     1      -1.263  11.999  18.147  0.00  0.00    +0.000 A 
ATOM     12  C   UNL     1      -2.216  11.507  17.246  0.00  0.00    +0.000 A 
ATOM     13  C   UNL     1      -3.573  11.502  17.580  0.00  0.00    +0.000 A 
ATOM     14 CL   UNL     1      -4.698  10.913  16.412  0.00  0.00    +0.000 Cl
ATOM     15  C   UNL     1      -3.975  11.978  18.830  0.00  0.00    +0.000 A 
ATOM     16 CL   UNL     1      -5.630  12.029  19.323  0.00  0.00    +0.000 Cl
ATOM     17  C   UNL     1      -3.018  12.452  19.734  0.00  0.00    +0.000 A 
ENDBRANCH   9  10
BRANCH   7  19
ATOM     18  C   UNL     1      -0.804  16.576  19.197  0.00  0.00    +0.000 C 
ATOM     19  C   UNL     1      -0.543  15.110  18.882  0.00  0.00    +0.000 C 
ENDBRANCH   7  19
ENDBRANCH   1   9
BRANCH   4  20
ATOM     20  C   UNL     1       1.237   9.176  18.686  0.00  0.00    +0.000 C 
BRANCH  20  21
ATOM     21  C   UNL     1       2.193   8.006  18.629  0.00  0.00    +0.000 A 
ATOM     22  C   UNL     1       2.194   7.039  19.642  0.00  0.00    +0.000 A 
ATOM     23  C   UNL     1       3.108   5.988  19.605  0.00  0.00    +0.000 A 
ATOM     24  C   UNL     1       4.030   5.876  18.554  0.00  0.00    +0.000 A 
ATOM     25  C   UNL     1       4.002   6.816  17.507  0.00  0.00    +0.000 A 
ATOM     26  C   UNL     1       3.080   7.874  17.557  0.00  0.00    +0.000 A 
ATOM     27  C   UNL     1       4.883   6.685  16.292  0.00  0.00    +0.000 C 
ATOM     28  C   UNL     1       6.093   5.782  16.510  0.00  0.00    +0.000 C 
ATOM     29  C   UNL     1       5.683   4.499  17.227  0.00  0.00    +0.000 C 
ATOM     30  C   UNL     1       5.084   4.791  18.615  0.00  0.00    +0.000 C 
BRANCH  30  31
ATOM     31  N   UNL     1       6.122   5.187  19.572  0.00  0.00    +0.000 NA
ATOM     32  H   UNL     1       5.697   5.765  20.299  0.00  0.00    +0.000 HD
ATOM     33  H   UNL     1       6.815   5.768  19.107  0.00  0.00    +0.000 HD
ENDBRANCH  30  31
ENDBRANCH  20  21
ENDBRANCH   4  20
TORSDOF 6
ENDMDL
MODEL 2
REMARK VINA RESULT:      -7.1      2.430      3.772
REMARK  Name = 
REMARK  7 active torsions:
REMARK  status: ('A' for Active; 'I' for Inactive)
REMARK    1  A    between atoms: C_1  and  C_2
REMARK    2  A    between atoms: C_2  and  C_3
REMARK    3  A    between atoms: N_5  and  C_6
REMARK    4  A    between atoms: N_5  and  C_14
REMARK    5  A    between atoms: N_17  and  C_18
REMARK    6  A    between atoms: C_18  and  C_19
REMARK    7  A    between atoms: C_28  and  N_29
REMARK                            x       y       z     vdW  Elec       q    Type
REMARK                         _______ _______ _______ _____ _____    ______ ____
ROOT
ATOM      1  C   UNL     1      -0.378  12.286  19.132  0.00  0.00    +0.000 C 
ATOM      2  C   UNL     1      -1.247  11.020  19.238  0.00  0.00    +0.000 C 
ATOM      3  C   UNL     1      -0.533   9.969  20.071  0.00  0.00    +0.000 C 
ATOM      4  N   UNL     1       0.747   9.551  19.486  0.00  0.00    +0.000 NA
ATOM      5  C   UNL     1       1.604  10.650  19.014  0.00  0.00    +0.000 C 
ATOM      6  C   UNL     1       0.888  11.844  18.376  0.00  0.00    +0.000 C 
ENDROOT
BRANCH   1   9
ATOM      7  C   UNL     1       0.818  13.878  20.601  0.00  0.00    +0.000 C 
ATOM      8  O   UNL     1       1.722  13.947  19.763  0.00  0.00    +0.000 OA
ATOM      9  N   UNL     1      -0.253  12.973  20.457  0.00  0.00    +0.000 N 
BRANCH   9  10
ATOM     10  C   UNL     1      -1.268  12.832  21.446  0.00  0.00    +0.000 A 
ATOM     11  C   UNL     1      -1.030  12.052  22.583  0.00  0.00    +0.000 A 
ATOM     12  C   UNL     1      -2.037  11.876  23.540  0.00  0.00    +0.000 A 
ATOM     13  C   UNL     1      -3.290  12.474  23.370  0.00  0.00    +0.000 A 
ATOM     14 CL   UNL     1      -4.497  12.190  24.571  0.00  0.00    +0.000 Cl
ATOM     15  C   UNL     1      -3.527  13.265  22.245  0.00  0.00    +0.000 A 
ATOM     16 CL   UNL     1      -5.048  14.026  21.942  0.00  0.00    +0.000 Cl
ATOM     17  C   UNL     1      -2.512  13.453  21.300  0.00  0.00    +0.000 A 
ENDBRANCH   9  10
BRANCH   7  19
ATOM     18  C   UNL     1       0.414  16.203  21.529  0.00  0.00    +0.000 C 
ATOM     19  C   UNL     1       0.844  14.774  21.834  0.00  0.00    +0.000 C 
ENDBRANCH   7  19
ENDBRANCH   1   9
BRANCH   4  20
ATOM     20  C   UNL     1       1.519   8.732  20.448  0.00  0.00    +0.000 C 
BRANCH  20  21
ATOM     21  C   UNL     1       1.925   7.372  19.930  0.00  0.00    +0.000 A 
ATOM     22  C   UNL     1       2.709   7.256  18.775  0.00  0.00    +0.000 A 
ATOM     23  C   UNL     1       3.042   5.997  18.279  0.00  0.00    +0.000 A 
ATOM     24  C   UNL     1       2.609   4.832  18.929  0.00  0.00    +0.000 A 
ATOM     25  C   UNL     1       1.863   4.941  20.117  0.00  0.00    +0.000 A 
ATOM     26  C   UNL     1       1.529   6.214  20.606  0.00  0.00    +0.000 A 
ATOM     27  C   UNL     1       1.469   3.732  20.927  0.00  0.00    +0.000 C 
ATOM     28  C   UNL     1       1.510   2.429  20.136  0.00  0.00    +0.000 C 
ATOM     29  C   UNL     1       2.790   2.341  19.311  0.00  0.00    +0.000 C 
ATOM     30  C   UNL     1       2.889   3.488  18.291  0.00  0.00    +0.000 C 
BRANCH  30  31
ATOM     31  N   UNL     1       1.961   3.289  17.172  0.00  0.00    +0.000 NA
ATOM     32  H   UNL     1       2.232   3.907  16.405  0.00  0.00    +0.000 HD
ATOM     33  H   UNL     1       1.023   3.566  17.449  0.00  0.00    +0.000 HD
ENDBRANCH  30  31
ENDBRANCH  20  21
ENDBRANCH   4  20
TORSDOF 6
ENDMDL
MODEL 3
REMARK VINA RESULT:      -7.1      0.597      1.278
REMARK  Name = 
REMARK  7 active torsions:
REMARK  status: ('A' for Active; 'I' for Inactive)
REMARK    1  A    between atoms: C_1  and  C_2
REMARK    2  A    between atoms: C_2  and  C_3
REMARK    3  A    between atoms: N_5  and  C_6
REMARK    4  A    between atoms: N_5  and  C_14
REMARK    5  A    between atoms: N_17  and  C_18
REMARK    6  A    between atoms: C_18  and  C_19
REMARK    7  A    between atoms: C_28  and  N_29
REMARK                            x       y       z     vdW  Elec       q    Type
REMARK                         _______ _______ _______ _____ _____    ______ ____
ROOT
ATOM      1  C   UNL     1       0.140  12.351  21.202  0.00  0.00    +0.000 C 
ATOM      2  C   UNL     1       1.652  12.240  20.935  0.00  0.00    +0.000 C 
ATOM      3  C   UNL     1       1.900  11.392  19.699  0.00  0.00    +0.000 C 
ATOM      4  N   UNL     1       1.398  10.020  19.839  0.00  0.00    +0.000 NA
ATOM      5  C   UNL     1       0.043   9.908  20.401  0.00  0.00    +0.000 C 
ATOM      6  C   UNL     1      -0.324  10.913  21.498  0.00  0.00    +0.000 C 
ENDROOT
BRANCH   1   9
ATOM      7  C   UNL     1       0.111  14.323  19.708  0.00  0.00    +0.000 C 
ATOM      8  O   UNL     1       1.083  14.778  20.317  0.00  0.00    +0.000 OA
ATOM      9  N   UNL     1      -0.544  13.150  20.135  0.00  0.00    +0.000 N 
BRANCH   9  10
ATOM     10  C   UNL     1      -1.707  12.649  19.485  0.00  0.00    +0.000 A 
ATOM     11  C   UNL     1      -2.960  12.784  20.094  0.00  0.00    +0.000 A 
ATOM     12  C   UNL     1      -4.102  12.257  19.479  0.00  0.00    +0.000 A 
ATOM     13  C   UNL     1      -4.005  11.589  18.254  0.00  0.00    +0.000 A 
ATOM     14 CL   UNL     1      -5.447  10.935  17.567  0.00  0.00    +0.000 Cl
ATOM     15  C   UNL     1      -2.760  11.464  17.636  0.00  0.00    +0.000 A 
ATOM     16 CL   UNL     1      -2.540  10.640  16.134  0.00  0.00    +0.000 Cl
ATOM     17  C   UNL     1      -1.623  12.008  18.245  0.00  0.00    +0.000 A 
ENDBRANCH   9  10
BRANCH   7  19
ATOM     18  C   UNL     1      -0.502  16.543  18.646  0.00  0.00    +0.000 C 
ATOM     19  C   UNL     1      -0.419  15.033  18.467  0.00  0.00    +0.000 C 
ENDBRANCH   7  19
ENDBRANCH   1   9
BRANCH   4  20
ATOM     20  C   UNL     1       1.426   9.317  18.536  0.00  0.00    +0.000 C 
BRANCH  20  21
ATOM     21  C   UNL     1       2.307   8.090  18.504  0.00  0.00    +0.000 A 
ATOM     22  C   UNL     1       2.224   7.129  19.520  0.00  0.00    +0.000 A 
ATOM     23  C   UNL     1       3.071   6.022  19.507  0.00  0.00    +0.000 A 
ATOM     24  C   UNL     1       4.008   5.848  18.477  0.00  0.00    +0.000 A 
ATOM     25  C   UNL     1       4.062   6.783  17.428  0.00  0.00    +0.000 A 
ATOM     26  C   UNL     1       3.208   7.897  17.452  0.00  0.00    +0.000 A 
ATOM     27  C   UNL     1       4.961   6.591  16.233  0.00  0.00    +0.000 C 
ATOM     28  C   UNL     1       6.106   5.615  16.481  0.00  0.00    +0.000 C 
ATOM     29  C   UNL     1       5.600   4.364  17.193  0.00  0.00    +0.000 C 
ATOM     30  C   UNL     1       4.990   4.699  18.565  0.00  0.00    +0.000 C 
BRANCH  30  31
ATOM     31  N   UNL     1       6.029   5.033  19.545  0.00  0.00    +0.000 NA
ATOM     32  H   UNL     1       6.453   5.926  19.285  0.00  0.00    +0.000 HD
ATOM     33  H   UNL     1       6.771   4.339  19.510  0.00  0.00    +0.000 HD
ENDBRANCH  30  31
ENDBRANCH  20  21
ENDBRANCH   4  20
TORSDOF 6
ENDMDL
MODEL 4
REMARK VINA RESULT:      -7.0      1.173      2.227
REMARK  Name = 
REMARK  7 active torsions:
REMARK  status: ('A' for Active; 'I' for Inactive)
REMARK    1  A    between atoms: C_1  and  C_2
REMARK    2  A    between atoms: C_2  and  C_3
REMARK    3  A    between atoms: N_5  and  C_6
REMARK    4  A    between atoms: N_5  and  C_14
REMARK    5  A    between atoms: N_17  and  C_18
REMARK    6  A    between atoms: C_18  and  C_19
REMARK    7  A    between atoms: C_28  and  N_29
REMARK                            x       y       z     vdW  Elec       q    Type
REMARK                         _______ _______ _______ _____ _____    ______ ____
ROOT
ATOM      1  C   UNL     1       0.249  12.822  21.302  0.00  0.00    +0.000 C 
ATOM      2  C   UNL     1       1.705  12.644  20.836  0.00  0.00    +0.000 C 
ATOM      3  C   UNL     1       1.756  11.704  19.643  0.00  0.00    +0.000 C 
ATOM      4  N   UNL     1       1.247  10.363  19.952  0.00  0.00    +0.000 NA
ATOM      5  C   UNL     1      -0.017  10.334  20.705  0.00  0.00    +0.000 C 
ATOM      6  C   UNL     1      -0.201  11.425  21.765  0.00  0.00    +0.000 C 
ENDROOT
BRANCH   1   9
ATOM      7  C   UNL     1      -0.055  14.815  19.869  0.00  0.00    +0.000 C 
ATOM      8  O   UNL     1       0.887  15.360  20.453  0.00  0.00    +0.000 OA
ATOM      9  N   UNL     1      -0.560  13.568  20.286  0.00  0.00    +0.000 N 
BRANCH   9  10
ATOM     10  C   UNL     1      -1.688  12.959  19.667  0.00  0.00    +0.000 A 
ATOM     11  C   UNL     1      -2.947  13.044  20.271  0.00  0.00    +0.000 A 
ATOM     12  C   UNL     1      -4.053  12.412  19.688  0.00  0.00    +0.000 A 
ATOM     13  C   UNL     1      -3.912  11.688  18.500  0.00  0.00    +0.000 A 
ATOM     14 CL   UNL     1      -5.307  10.907  17.852  0.00  0.00    +0.000 Cl
ATOM     15  C   UNL     1      -2.660  11.613  17.885  0.00  0.00    +0.000 A 
ATOM     16 CL   UNL     1      -2.387  10.726  16.428  0.00  0.00    +0.000 Cl
ATOM     17  C   UNL     1      -1.562  12.260  18.462  0.00  0.00    +0.000 A 
ENDBRANCH   9  10
BRANCH   7  19
ATOM     18  C   UNL     1      -0.390  16.980  18.590  0.00  0.00    +0.000 C 
ATOM     19  C   UNL     1      -0.709  15.493  18.670  0.00  0.00    +0.000 C 
ENDBRANCH   7  19
ENDBRANCH   1   9
BRANCH   4  20
ATOM     20  C   UNL     1       1.075   9.570  18.713  0.00  0.00    +0.000 C 
BRANCH  20  21
ATOM     21  C   UNL     1       1.955   8.345  18.623  0.00  0.00    +0.000 A 
ATOM     22  C   UNL     1       2.931   8.242  17.624  0.00  0.00    +0.000 A 
ATOM     23  C   UNL     1       3.708   7.090  17.521  0.00  0.00    +0.000 A 
ATOM     24  C   UNL     1       3.533   6.025  18.417  0.00  0.00    +0.000 A 
ATOM     25  C   UNL     1       2.589   6.142  19.454  0.00  0.00    +0.000 A 
ATOM     26  C   UNL     1       1.808   7.305  19.546  0.00  0.00    +0.000 A 
ATOM     27  C   UNL     1       2.437   5.086  20.519  0.00  0.00    +0.000 C 
ATOM     28  C   UNL     1       3.006   3.729  20.118  0.00  0.00    +0.000 C 
ATOM     29  C   UNL     1       4.380   3.891  19.475  0.00  0.00    +0.000 C 
ATOM     30  C   UNL     1       4.312   4.745  18.196  0.00  0.00    +0.000 C 
BRANCH  30  31
ATOM     31  N   UNL     1       3.702   4.001  17.089  0.00  0.00    +0.000 NA
ATOM     32  H   UNL     1       2.686   4.094  17.149  0.00  0.00    +0.000 HD
ATOM     33  H   UNL     1       3.908   3.010  17.185  0.00  0.00    +0.000 HD
ENDBRANCH  30  31
ENDBRANCH  20  21
ENDBRANCH   4  20
TORSDOF 6
ENDMDL
MODEL 5
REMARK VINA RESULT:      -7.0      2.064      3.060
REMARK  Name = 
REMARK  7 active torsions:
REMARK  status: ('A' for Active; 'I' for Inactive)
REMARK    1  A    between atoms: C_1  and  C_2
REMARK    2  A    between atoms: C_2  and  C_3
REMARK    3  A    between atoms: N_5  and  C_6
REMARK    4  A    between atoms: N_5  and  C_14
REMARK    5  A    between atoms: N_17  and  C_18
REMARK    6  A    between atoms: C_18  and  C_19
REMARK    7  A    between atoms: C_28  and  N_29
REMARK                            x       y       z     vdW  Elec       q    Type
REMARK                         _______ _______ _______ _____ _____    ______ ____
ROOT
ATOM      1  C   UNL     1      -0.278  11.946  19.054  0.00  0.00    +0.000 C 
ATOM      2  C   UNL     1      -1.165  10.696  19.205  0.00  0.00    +0.000 C 
ATOM      3  C   UNL     1      -0.459   9.660  20.064  0.00  0.00    +0.000 C 
ATOM      4  N   UNL     1       0.810   9.206  19.482  0.00  0.00    +0.000 NA
ATOM      5  C   UNL     1       1.679  10.278  18.971  0.00  0.00    +0.000 C 
ATOM      6  C   UNL     1       0.976  11.463  18.302  0.00  0.00    +0.000 C 
ENDROOT
BRANCH   1   9
ATOM      7  C   UNL     1       0.972  13.537  20.477  0.00  0.00    +0.000 C 
ATOM      8  O   UNL     1       1.881  13.545  19.643  0.00  0.00    +0.000 OA
ATOM      9  N   UNL     1      -0.133  12.671  20.357  0.00  0.00    +0.000 N 
BRANCH   9  10
ATOM     10  C   UNL     1      -1.156  12.601  21.345  0.00  0.00    +0.000 A 
ATOM     11  C   UNL     1      -0.951  11.855  22.511  0.00  0.00    +0.000 A 
ATOM     12  C   UNL     1      -1.968  11.749  23.468  0.00  0.00    +0.000 A 
ATOM     13  C   UNL     1      -3.198  12.383  23.268  0.00  0.00    +0.000 A 
ATOM     14 CL   UNL     1      -4.420  12.185  24.471  0.00  0.00    +0.000 Cl
ATOM     15  C   UNL     1      -3.403  13.140  22.113  0.00  0.00    +0.000 A 
ATOM     16 CL   UNL     1      -4.895  13.941  21.773  0.00  0.00    +0.000 Cl
ATOM     17  C   UNL     1      -2.378  13.258  21.169  0.00  0.00    +0.000 A 
ENDBRANCH   9  10
BRANCH   7  19
ATOM     18  C   UNL     1       1.057  15.941  21.282  0.00  0.00    +0.000 C 
ATOM     19  C   UNL     1       1.027  14.472  21.681  0.00  0.00    +0.000 C 
ENDBRANCH   7  19
ENDBRANCH   1   9
BRANCH   4  20
ATOM     20  C   UNL     1       1.577   8.405  20.463  0.00  0.00    +0.000 C 
BRANCH  20  21
ATOM     21  C   UNL     1       2.139   7.113  19.916  0.00  0.00    +0.000 A 
ATOM     22  C   UNL     1       1.859   5.893  20.544  0.00  0.00    +0.000 A 
ATOM     23  C   UNL     1       2.418   4.712  20.060  0.00  0.00    +0.000 A 
ATOM     24  C   UNL     1       3.257   4.725  18.935  0.00  0.00    +0.000 A 
ATOM     25  C   UNL     1       3.503   5.939  18.270  0.00  0.00    +0.000 A 
ATOM     26  C   UNL     1       2.939   7.124  18.769  0.00  0.00    +0.000 A 
ATOM     27  C   UNL     1       4.296   6.003  16.990  0.00  0.00    +0.000 C 
ATOM     28  C   UNL     1       5.182   4.783  16.760  0.00  0.00    +0.000 C 
ATOM     29  C   UNL     1       4.414   3.498  17.052  0.00  0.00    +0.000 C 
ATOM     30  C   UNL     1       3.939   3.440  18.515  0.00  0.00    +0.000 C 
BRANCH  30  31
ATOM     31  N   UNL     1       5.055   3.172  19.428  0.00  0.00    +0.000 NA
ATOM     32  H   UNL     1       5.556   4.045  19.603  0.00  0.00    +0.000 HD
ATOM     33  H   UNL     1       5.719   2.541  18.985  0.00  0.00    +0.000 HD
ENDBRANCH  30  31
ENDBRANCH  20  21
ENDBRANCH   4  20
TORSDOF 6
ENDMDL
MODEL 6
REMARK VINA RESULT:      -6.9      4.771     10.046
REMARK  Name = 
REMARK  7 active torsions:
REMARK  status: ('A' for Active; 'I' for Inactive)
REMARK    1  A    between atoms: C_1  and  C_2
REMARK    2  A    between atoms: C_2  and  C_3
REMARK    3  A    between atoms: N_5  and  C_6
REMARK    4  A    between atoms: N_5  and  C_14
REMARK    5  A    between atoms: N_17  and  C_18
REMARK    6  A    between atoms: C_18  and  C_19
REMARK    7  A    between atoms: C_28  and  N_29
REMARK                            x       y       z     vdW  Elec       q    Type
REMARK                         _______ _______ _______ _____ _____    ______ ____
ROOT
ATOM      1  C   UNL     1       1.942   3.473  19.095  0.00  0.00    +0.000 C 
ATOM      2  C   UNL     1       1.694   4.493  17.969  0.00  0.00    +0.000 C 
ATOM      3  C   UNL     1       2.175   5.868  18.400  0.00  0.00    +0.000 C 
ATOM      4  N   UNL     1       1.472   6.373  19.586  0.00  0.00    +0.000 NA
ATOM      5  C   UNL     1       1.323   5.401  20.681  0.00  0.00    +0.000 C 
ATOM      6  C   UNL     1       1.069   3.948  20.270  0.00  0.00    +0.000 C 
ENDROOT
BRANCH   1   9
ATOM      7  C   UNL     1       3.766   2.415  20.388  0.00  0.00    +0.000 C 
ATOM      8  O   UNL     1       2.942   2.077  21.244  0.00  0.00    +0.000 OA
ATOM      9  N   UNL     1       3.407   3.237  19.302  0.00  0.00    +0.000 N 
BRANCH   9  10
ATOM     10  C   UNL     1       4.358   3.691  18.344  0.00  0.00    +0.000 A 
ATOM     11  C   UNL     1       4.299   3.224  17.027  0.00  0.00    +0.000 A 
ATOM     12  C   UNL     1       5.257   3.635  16.090  0.00  0.00    +0.000 A 
ATOM     13  C   UNL     1       6.280   4.513  16.460  0.00  0.00    +0.000 A 
ATOM     14 CL   UNL     1       7.445   4.953  15.266  0.00  0.00    +0.000 Cl
ATOM     15  C   UNL     1       6.334   4.993  17.770  0.00  0.00    +0.000 A 
ATOM     16 CL   UNL     1       7.572   6.064  18.322  0.00  0.00    +0.000 Cl
ATOM     17  C   UNL     1       5.366   4.594  18.697  0.00  0.00    +0.000 A 
ENDBRANCH   9  10
BRANCH   7  19
ATOM     18  C   UNL     1       5.413   0.879  21.556  0.00  0.00    +0.000 C 
ATOM     19  C   UNL     1       5.215   1.952  20.494  0.00  0.00    +0.000 C 
ENDBRANCH   7  19
ENDBRANCH   1   9
BRANCH   4  20
ATOM     20  C   UNL     1       2.144   7.581  20.116  0.00  0.00    +0.000 C 
BRANCH  20  21
ATOM     21  C   UNL     1       1.247   8.791  20.248  0.00  0.00    +0.000 A 
ATOM     22  C   UNL     1       1.027   9.635  19.152  0.00  0.00    +0.000 A 
ATOM     23  C   UNL     1       0.235  10.773  19.293  0.00  0.00    +0.000 A 
ATOM     24  C   UNL     1      -0.359  11.084  20.526  0.00  0.00    +0.000 A 
ATOM     25  C   UNL     1      -0.183  10.214  21.617  0.00  0.00    +0.000 A 
ATOM     26  C   UNL     1       0.621   9.073  21.466  0.00  0.00    +0.000 A 
ATOM     27  C   UNL     1      -0.889  10.428  22.931  0.00  0.00    +0.000 C 
ATOM     28  C   UNL     1      -1.387  11.855  23.131  0.00  0.00    +0.000 C 
ATOM     29  C   UNL     1      -2.074  12.366  21.869  0.00  0.00    +0.000 C 
ATOM     30  C   UNL     1      -1.111  12.391  20.668  0.00  0.00    +0.000 C 
BRANCH  30  31
ATOM     31  N   UNL     1      -0.143  13.487  20.782  0.00  0.00    +0.000 NA
ATOM     32  H   UNL     1      -0.058  13.752  21.765  0.00  0.00    +0.000 HD
ATOM     33  H   UNL     1      -0.492  14.306  20.291  0.00  0.00    +0.000 HD
ENDBRANCH  30  31
ENDBRANCH  20  21
ENDBRANCH   4  20
TORSDOF 6
ENDMDL
MODEL 7
REMARK VINA RESULT:      -6.8      1.387      2.114
REMARK  Name = 
REMARK  7 active torsions:
REMARK  status: ('A' for Active; 'I' for Inactive)
REMARK    1  A    between atoms: C_1  and  C_2
REMARK    2  A    between atoms: C_2  and  C_3
REMARK    3  A    between atoms: N_5  and  C_6
REMARK    4  A    between atoms: N_5  and  C_14
REMARK    5  A    between atoms: N_17  and  C_18
REMARK    6  A    between atoms: C_18  and  C_19
REMARK    7  A    between atoms: C_28  and  N_29
REMARK                            x       y       z     vdW  Elec       q    Type
REMARK                         _______ _______ _______ _____ _____    ______ ____
ROOT
ATOM      1  C   UNL     1       0.131  12.003  21.052  0.00  0.00    +0.000 C 
ATOM      2  C   UNL     1       1.634  11.879  20.740  0.00  0.00    +0.000 C 
ATOM      3  C   UNL     1       1.832  11.138  19.429  0.00  0.00    +0.000 C 
ATOM      4  N   UNL     1       1.297   9.771  19.461  0.00  0.00    +0.000 NA
ATOM      5  C   UNL     1      -0.047   9.643  20.044  0.00  0.00    +0.000 C 
ATOM      6  C   UNL     1      -0.364  10.556  21.232  0.00  0.00    +0.000 C 
ENDROOT
BRANCH   1   9
ATOM      7  C   UNL     1       0.121  14.098  19.737  0.00  0.00    +0.000 C 
ATOM      8  O   UNL     1       1.119  14.475  20.360  0.00  0.00    +0.000 OA
ATOM      9  N   UNL     1      -0.554  12.909  20.076  0.00  0.00    +0.000 N 
BRANCH   9  10
ATOM     10  C   UNL     1      -1.744  12.495  19.413  0.00  0.00    +0.000 A 
ATOM     11  C   UNL     1      -2.987  12.674  20.033  0.00  0.00    +0.000 A 
ATOM     12  C   UNL     1      -4.157  12.232  19.404  0.00  0.00    +0.000 A 
ATOM     13  C   UNL     1      -4.099  11.607  18.154  0.00  0.00    +0.000 A 
ATOM     14 CL   UNL     1      -5.576  11.057  17.450  0.00  0.00    +0.000 Cl
ATOM     15  C   UNL     1      -2.864  11.440  17.526  0.00  0.00    +0.000 A 
ATOM     16 CL   UNL     1      -2.693  10.662  15.993  0.00  0.00    +0.000 Cl
ATOM     17  C   UNL     1      -1.699  11.899  18.149  0.00  0.00    +0.000 A 
ENDBRANCH   9  10
BRANCH   7  19
ATOM     18  C   UNL     1       0.021  16.384  18.643  0.00  0.00    +0.000 C 
ATOM     19  C   UNL     1      -0.416  14.927  18.576  0.00  0.00    +0.000 C 
ENDBRANCH   7  19
ENDBRANCH   1   9
BRANCH   4  20
ATOM     20  C   UNL     1       1.280   9.185  18.101  0.00  0.00    +0.000 C 
BRANCH  20  21
ATOM     21  C   UNL     1       2.165   7.973  17.928  0.00  0.00    +0.000 A 
ATOM     22  C   UNL     1       3.530   8.123  17.653  0.00  0.00    +0.000 A 
ATOM     23  C   UNL     1       4.331   7.001  17.450  0.00  0.00    +0.000 A 
ATOM     24  C   UNL     1       3.788   5.709  17.529  0.00  0.00    +0.000 A 
ATOM     25  C   UNL     1       2.428   5.550  17.853  0.00  0.00    +0.000 A 
ATOM     26  C   UNL     1       1.630   6.687  18.050  0.00  0.00    +0.000 A 
ATOM     27  C   UNL     1       1.813   4.191  18.069  0.00  0.00    +0.000 C 
ATOM     28  C   UNL     1       2.616   3.052  17.450  0.00  0.00    +0.000 C 
ATOM     29  C   UNL     1       4.101   3.212  17.759  0.00  0.00    +0.000 C 
ATOM     30  C   UNL     1       4.664   4.523  17.183  0.00  0.00    +0.000 C 
BRANCH  30  31
ATOM     31  N   UNL     1       4.809   4.447  15.725  0.00  0.00    +0.000 NA
ATOM     32  H   UNL     1       5.794   4.303  15.499  0.00  0.00    +0.000 HD
ATOM     33  H   UNL     1       4.542   5.333  15.306  0.00  0.00    +0.000 HD
ENDBRANCH  30  31
ENDBRANCH  20  21
ENDBRANCH   4  20
TORSDOF 6
ENDMDL
MODEL 8
REMARK VINA RESULT:      -6.8      0.876      1.709
REMARK  Name = 
REMARK  7 active torsions:
REMARK  status: ('A' for Active; 'I' for Inactive)
REMARK    1  A    between atoms: C_1  and  C_2
REMARK    2  A    between atoms: C_2  and  C_3
REMARK    3  A    between atoms: N_5  and  C_6
REMARK    4  A    between atoms: N_5  and  C_14
REMARK    5  A    between atoms: N_17  and  C_18
REMARK    6  A    between atoms: C_18  and  C_19
REMARK    7  A    between atoms: C_28  and  N_29
REMARK                            x       y       z     vdW  Elec       q    Type
REMARK                         _______ _______ _______ _____ _____    ______ ____
ROOT
ATOM      1  C   UNL     1      -0.082  12.220  21.369  0.00  0.00    +0.000 C 
ATOM      2  C   UNL     1       1.434  12.096  21.127  0.00  0.00    +0.000 C 
ATOM      3  C   UNL     1       1.692  11.309  19.854  0.00  0.00    +0.000 C 
ATOM      4  N   UNL     1       1.163   9.941  19.911  0.00  0.00    +0.000 NA
ATOM      5  C   UNL     1      -0.205   9.825  20.440  0.00  0.00    +0.000 C 
ATOM      6  C   UNL     1      -0.577  10.778  21.580  0.00  0.00    +0.000 C 
ENDROOT
BRANCH   1   9
ATOM      7  C   UNL     1      -0.222  14.395  20.199  0.00  0.00    +0.000 C 
ATOM      8  O   UNL     1       0.566  14.871  21.022  0.00  0.00    +0.000 OA
ATOM      9  N   UNL     1      -0.729  13.087  20.333  0.00  0.00    +0.000 N 
BRANCH   9  10
ATOM     10  C   UNL     1      -1.689  12.547  19.432  0.00  0.00    +0.000 A 
ATOM     11  C   UNL     1      -1.285  12.095  18.170  0.00  0.00    +0.000 A 
ATOM     12  C   UNL     1      -2.231  11.600  17.263  0.00  0.00    +0.000 A 
ATOM     13  C   UNL     1      -3.586  11.555  17.605  0.00  0.00    +0.000 A 
ATOM     14 CL   UNL     1      -4.703  10.964  16.429  0.00  0.00    +0.000 Cl
ATOM     15  C   UNL     1      -3.992  11.990  18.868  0.00  0.00    +0.000 A 
ATOM     16 CL   UNL     1      -5.645  11.989  19.370  0.00  0.00    +0.000 Cl
ATOM     17  C   UNL     1      -3.042  12.467  19.778  0.00  0.00    +0.000 A 
ENDBRANCH   9  10
BRANCH   7  19
ATOM     18  C   UNL     1      -0.882  16.693  19.355  0.00  0.00    +0.000 C 
ATOM     19  C   UNL     1      -0.679  15.226  19.005  0.00  0.00    +0.000 C 
ENDBRANCH   7  19
ENDBRANCH   1   9
BRANCH   4  20
ATOM     20  C   UNL     1       1.207   9.307  18.573  0.00  0.00    +0.000 C 
BRANCH  20  21
ATOM     21  C   UNL     1       2.146   8.128  18.468  0.00  0.00    +0.000 A 
ATOM     22  C   UNL     1       3.135   8.094  17.477  0.00  0.00    +0.000 A 
ATOM     23  C   UNL     1       3.968   6.983  17.358  0.00  0.00    +0.000 A 
ATOM     24  C   UNL     1       3.837   5.892  18.230  0.00  0.00    +0.000 A 
ATOM     25  C   UNL     1       2.879   5.941  19.259  0.00  0.00    +0.000 A 
ATOM     26  C   UNL     1       2.041   7.062  19.367  0.00  0.00    +0.000 A 
ATOM     27  C   UNL     1       2.768   4.856  20.300  0.00  0.00    +0.000 C 
ATOM     28  C   UNL     1       3.406   3.537  19.877  0.00  0.00    +0.000 C 
ATOM     29  C   UNL     1       4.776   3.780  19.252  0.00  0.00    +0.000 C 
ATOM     30  C   UNL     1       4.679   4.656  17.991  0.00  0.00    +0.000 C 
BRANCH  30  31
ATOM     31  N   UNL     1       4.116   3.907  16.862  0.00  0.00    +0.000 NA
ATOM     32  H   UNL     1       3.118   3.763  17.026  0.00  0.00    +0.000 HD
ATOM     33  H   UNL     1       4.539   2.984  16.817  0.00  0.00    +0.000 HD
ENDBRANCH  30  31
ENDBRANCH  20  21
ENDBRANCH   4  20
TORSDOF 6
ENDMDL
MODEL 9
REMARK VINA RESULT:      -6.7      7.691      9.455
REMARK  Name = 
REMARK  7 active torsions:
REMARK  status: ('A' for Active; 'I' for Inactive)
REMARK    1  A    between atoms: C_1  and  C_2
REMARK    2  A    between atoms: C_2  and  C_3
REMARK    3  A    between atoms: N_5  and  C_6
REMARK    4  A    between atoms: N_5  and  C_14
REMARK    5  A    between atoms: N_17  and  C_18
REMARK    6  A    between atoms: C_18  and  C_19
REMARK    7  A    between atoms: C_28  and  N_29
REMARK                            x       y       z     vdW  Elec       q    Type
REMARK                         _______ _______ _______ _____ _____    ______ ____
ROOT
ATOM      1  C   UNL     1      11.489  12.810  19.643  0.00  0.00    +0.000 C 
ATOM      2  C   UNL     1      11.634  12.301  18.197  0.00  0.00    +0.000 C 
ATOM      3  C   UNL     1      10.287  11.830  17.675  0.00  0.00    +0.000 C 
ATOM      4  N   UNL     1       9.730  10.719  18.457  0.00  0.00    +0.000 NA
ATOM      5  C   UNL     1       9.800  10.889  19.917  0.00  0.00    +0.000 C 
ATOM      6  C   UNL     1      11.053  11.581  20.461  0.00  0.00    +0.000 C 
ENDROOT
BRANCH   1   9
ATOM      7  C   UNL     1      10.879  14.994  18.655  0.00  0.00    +0.000 C 
ATOM      8  O   UNL     1      11.812  14.875  17.856  0.00  0.00    +0.000 OA
ATOM      9  N   UNL     1      10.678  14.068  19.698  0.00  0.00    +0.000 N 
BRANCH   9  10
ATOM     10  C   UNL     1       9.648  14.227  20.668  0.00  0.00    +0.000 A 
ATOM     11  C   UNL     1       8.323  13.927  20.333  0.00  0.00    +0.000 A 
ATOM     12  C   UNL     1       7.299  14.119  21.270  0.00  0.00    +0.000 A 
ATOM     13  C   UNL     1       7.588  14.613  22.545  0.00  0.00    +0.000 A 
ATOM     14 CL   UNL     1       6.276  14.858  23.640  0.00  0.00    +0.000 Cl
ATOM     15  C   UNL     1       8.911  14.900  22.889  0.00  0.00    +0.000 A 
ATOM     16 CL   UNL     1       9.359  15.532  24.432  0.00  0.00    +0.000 Cl
ATOM     17  C   UNL     1       9.932  14.690  21.957  0.00  0.00    +0.000 A 
ENDBRANCH   9  10
BRANCH   7  19
ATOM     18  C   UNL     1       8.782  15.899  17.551  0.00  0.00    +0.000 C 
ATOM     19  C   UNL     1       9.912  16.167  18.536  0.00  0.00    +0.000 C 
ENDBRANCH   7  19
ENDBRANCH   1   9
BRANCH   4  20
ATOM     20  C   UNL     1       8.320  10.470  18.079  0.00  0.00    +0.000 C 
BRANCH  20  21
ATOM     21  C   UNL     1       7.921   9.012  18.065  0.00  0.00    +0.000 A 
ATOM     22  C   UNL     1       8.599   8.083  18.865  0.00  0.00    +0.000 A 
ATOM     23  C   UNL     1       8.255   6.734  18.814  0.00  0.00    +0.000 A 
ATOM     24  C   UNL     1       7.224   6.288  17.973  0.00  0.00    +0.000 A 
ATOM     25  C   UNL     1       6.507   7.222  17.204  0.00  0.00    +0.000 A 
ATOM     26  C   UNL     1       6.864   8.579  17.259  0.00  0.00    +0.000 A 
ATOM     27  C   UNL     1       5.314   6.825  16.373  0.00  0.00    +0.000 C 
ATOM     28  C   UNL     1       5.260   5.335  16.057  0.00  0.00    +0.000 C 
ATOM     29  C   UNL     1       5.558   4.510  17.305  0.00  0.00    +0.000 C 
ATOM     30  C   UNL     1       6.965   4.801  17.856  0.00  0.00    +0.000 C 
BRANCH  30  31
ATOM     31  N   UNL     1       8.003   4.200  17.013  0.00  0.00    +0.000 NA
ATOM     32  H   UNL     1       8.906   4.610  17.258  0.00  0.00    +0.000 HD
ATOM     33  H   UNL     1       7.834   4.434  16.038  0.00  0.00    +0.000 HD
ENDBRANCH  30  31
ENDBRANCH  20  21
ENDBRANCH   4  20
TORSDOF 6
ENDMDL
