MODEL 1
REMARK VINA RESULT:      -6.2      0.000      0.000
REMARK  Name = 
REMARK  2 active torsions:
REMARK  status: ('A' for Active; 'I' for Inactive)
REMARK    1  A    between atoms: N_5  and  C_6
REMARK    2  A    between atoms: C_6  and  C_7
REMARK                            x       y       z     vdW  Elec       q    Type
REMARK                         _______ _______ _______ _____ _____    ______ ____
ROOT
ATOM      1  O   UNL     1       6.983   5.527  19.868  0.00  0.00    +0.000 OA
ATOM      2  C   UNL     1       6.363   5.092  18.926  0.00  0.00    +0.000 C 
ATOM      3  C   UNL     1       6.934   4.493  17.614  0.00  0.00    +0.000 C 
ATOM      4  O   UNL     1       8.114   4.354  17.358  0.00  0.00    +0.000 OA
ATOM      5  N   UNL     1       5.826   4.161  16.843  0.00  0.00    +0.000 N 
ATOM      6  C   UNL     1       4.637   4.484  17.523  0.00  0.00    +0.000 A 
ATOM      7  C   UNL     1       3.329   4.316  17.107  0.00  0.00    +0.000 A 
ATOM      8  C   UNL     1       2.305   4.700  17.981  0.00  0.00    +0.000 A 
ATOM      9  C   UNL     1       2.596   5.244  19.245  0.00  0.00    +0.000 A 
ATOM     10  C   UNL     1       3.918   5.421  19.657  0.00  0.00    +0.000 A 
ATOM     11  C   UNL     1       4.909   5.033  18.775  0.00  0.00    +0.000 A 
ENDROOT
BRANCH   5  12
ATOM     12  C   UNL     1       5.888   3.569  15.520  0.00  0.00    +0.000 C 
BRANCH  12  13
ATOM     13  C   UNL     1       6.116   4.565  14.379  0.00  0.00    +0.000 C 
ATOM     14  I   UNL     1       6.126   3.612  12.456  0.00  0.00    +0.000 I 
ENDBRANCH  12  13
ENDBRANCH   5  12
TORSDOF 2
ENDMDL
MODEL 2
REMARK VINA RESULT:      -6.0      2.208      2.775
REMARK  Name = 
REMARK  2 active torsions:
REMARK  status: ('A' for Active; 'I' for Inactive)
REMARK    1  A    between atoms: N_5  and  C_6
REMARK    2  A    between atoms: C_6  and  C_7
REMARK                            x       y       z     vdW  Elec       q    Type
REMARK                         _______ _______ _______ _____ _____    ______ ____
ROOT
ATOM      1  O   UNL     1       5.099   2.125  20.375  0.00  0.00    +0.000 OA
ATOM      2  C   UNL     1       4.643   2.988  19.661  0.00  0.00    +0.000 C 
ATOM      3  C   UNL     1       5.368   4.249  19.120  0.00  0.00    +0.000 C 
ATOM      4  O   UNL     1       6.531   4.536  19.328  0.00  0.00    +0.000 OA
ATOM      5  N   UNL     1       4.418   4.934  18.372  0.00  0.00    +0.000 N 
ATOM      6  C   UNL     1       3.191   4.246  18.386  0.00  0.00    +0.000 A 
ATOM      7  C   UNL     1       2.000   4.587  17.771  0.00  0.00    +0.000 A 
ATOM      8  C   UNL     1       0.911   3.719  17.916  0.00  0.00    +0.000 A 
ATOM      9  C   UNL     1       1.021   2.536  18.667  0.00  0.00    +0.000 A 
ATOM     10  C   UNL     1       2.222   2.200  19.294  0.00  0.00    +0.000 A 
ATOM     11  C   UNL     1       3.281   3.073  19.134  0.00  0.00    +0.000 A 
ENDROOT
BRANCH   5  12
ATOM     12  C   UNL     1       4.658   6.185  17.679  0.00  0.00    +0.000 C 
BRANCH  12  13
ATOM     13  C   UNL     1       5.837   6.163  16.701  0.00  0.00    +0.000 C 
ATOM     14  I   UNL     1       5.700   4.546  15.297  0.00  0.00    +0.000 I 
ENDBRANCH  12  13
ENDBRANCH   5  12
TORSDOF 2
ENDMDL
MODEL 3
REMARK VINA RESULT:      -5.9      2.566      3.283
REMARK  Name = 
REMARK  2 active torsions:
REMARK  status: ('A' for Active; 'I' for Inactive)
REMARK    1  A    between atoms: N_5  and  C_6
REMARK    2  A    between atoms: C_6  and  C_7
REMARK                            x       y       z     vdW  Elec       q    Type
REMARK                         _______ _______ _______ _____ _____    ______ ____
ROOT
ATOM      1  O   UNL     1       2.271   7.406  19.746  0.00  0.00    +0.000 OA
ATOM      2  C   UNL     1       2.566   6.360  19.217  0.00  0.00    +0.000 C 
ATOM      3  C   UNL     1       3.457   6.153  17.964  0.00  0.00    +0.000 C 
ATOM      4  O   UNL     1       4.014   7.037  17.342  0.00  0.00    +0.000 OA
ATOM      5  N   UNL     1       3.472   4.781  17.739  0.00  0.00    +0.000 N 
ATOM      6  C   UNL     1       2.695   4.116  18.705  0.00  0.00    +0.000 A 
ATOM      7  C   UNL     1       2.452   2.761  18.835  0.00  0.00    +0.000 A 
ATOM      8  C   UNL     1       1.654   2.334  19.904  0.00  0.00    +0.000 A 
ATOM      9  C   UNL     1       1.112   3.256  20.817  0.00  0.00    +0.000 A 
ATOM     10  C   UNL     1       1.352   4.624  20.676  0.00  0.00    +0.000 A 
ATOM     11  C   UNL     1       2.143   5.017  19.614  0.00  0.00    +0.000 A 
ENDROOT
BRANCH   5  12
ATOM     12  C   UNL     1       4.186   4.130  16.657  0.00  0.00    +0.000 C 
BRANCH  12  13
ATOM     13  C   UNL     1       5.709   4.278  16.709  0.00  0.00    +0.000 C 
ATOM     14  I   UNL     1       6.555   4.675  14.777  0.00  0.00    +0.000 I 
ENDBRANCH  12  13
ENDBRANCH   5  12
TORSDOF 2
ENDMDL
MODEL 4
REMARK VINA RESULT:      -5.8      2.742      4.305
REMARK  Name = 
REMARK  2 active torsions:
REMARK  status: ('A' for Active; 'I' for Inactive)
REMARK    1  A    between atoms: N_5  and  C_6
REMARK    2  A    between atoms: C_6  and  C_7
REMARK                            x       y       z     vdW  Elec       q    Type
REMARK                         _______ _______ _______ _____ _____    ______ ____
ROOT
ATOM      1  O   UNL     1       6.910   5.342  19.813  0.00  0.00    +0.000 OA
ATOM      2  C   UNL     1       6.040   5.143  18.996  0.00  0.00    +0.000 C 
ATOM      3  C   UNL     1       4.508   5.117  19.235  0.00  0.00    +0.000 C 
ATOM      4  O   UNL     1       3.957   5.321  20.299  0.00  0.00    +0.000 OA
ATOM      5  N   UNL     1       3.942   4.826  17.998  0.00  0.00    +0.000 N 
ATOM      6  C   UNL     1       4.945   4.668  17.024  0.00  0.00    +0.000 A 
ATOM      7  C   UNL     1       4.806   4.375  15.680  0.00  0.00    +0.000 A 
ATOM      8  C   UNL     1       5.966   4.290  14.900  0.00  0.00    +0.000 A 
ATOM      9  C   UNL     1       7.237   4.494  15.466  0.00  0.00    +0.000 A 
ATOM     10  C   UNL     1       7.373   4.781  16.826  0.00  0.00    +0.000 A 
ATOM     11  C   UNL     1       6.212   4.860  17.572  0.00  0.00    +0.000 A 
ENDROOT
BRANCH   5  12
ATOM     12  C   UNL     1       2.519   4.697  17.751  0.00  0.00    +0.000 C 
BRANCH  12  13
ATOM     13  C   UNL     1       1.953   3.290  17.968  0.00  0.00    +0.000 C 
ATOM     14  I   UNL     1       1.139   3.034  19.937  0.00  0.00    +0.000 I 
ENDBRANCH  12  13
ENDBRANCH   5  12
TORSDOF 2
ENDMDL
MODEL 5
REMARK VINA RESULT:      -5.8      2.125      2.641
REMARK  Name = 
REMARK  2 active torsions:
REMARK  status: ('A' for Active; 'I' for Inactive)
REMARK    1  A    between atoms: N_5  and  C_6
REMARK    2  A    between atoms: C_6  and  C_7
REMARK                            x       y       z     vdW  Elec       q    Type
REMARK                         _______ _______ _______ _____ _____    ______ ____
ROOT
ATOM      1  O   UNL     1       2.828   7.498  17.888  0.00  0.00    +0.000 OA
ATOM      2  C   UNL     1       3.474   6.481  17.779  0.00  0.00    +0.000 C 
ATOM      3  C   UNL     1       4.998   6.353  17.520  0.00  0.00    +0.000 C 
ATOM      4  O   UNL     1       5.775   7.282  17.413  0.00  0.00    +0.000 OA
ATOM      5  N   UNL     1       5.252   4.988  17.452  0.00  0.00    +0.000 N 
ATOM      6  C   UNL     1       4.065   4.257  17.638  0.00  0.00    +0.000 A 
ATOM      7  C   UNL     1       3.884   2.886  17.642  0.00  0.00    +0.000 A 
ATOM      8  C   UNL     1       2.595   2.391  17.872  0.00  0.00    +0.000 A 
ATOM      9  C   UNL     1       1.512   3.262  18.090  0.00  0.00    +0.000 A 
ATOM     10  C   UNL     1       1.697   4.645  18.075  0.00  0.00    +0.000 A 
ATOM     11  C   UNL     1       2.979   5.107  17.847  0.00  0.00    +0.000 A 
ENDROOT
BRANCH   5  12
ATOM     12  C   UNL     1       6.558   4.402  17.217  0.00  0.00    +0.000 C 
BRANCH  12  13
ATOM     13  C   UNL     1       7.203   4.782  15.881  0.00  0.00    +0.000 C 
ATOM     14  I   UNL     1       6.024   4.153  14.201  0.00  0.00    +0.000 I 
ENDBRANCH  12  13
ENDBRANCH   5  12
TORSDOF 2
ENDMDL
MODEL 6
REMARK VINA RESULT:      -5.8      2.706      3.262
REMARK  Name = 
REMARK  2 active torsions:
REMARK  status: ('A' for Active; 'I' for Inactive)
REMARK    1  A    between atoms: N_5  and  C_6
REMARK    2  A    between atoms: C_6  and  C_7
REMARK                            x       y       z     vdW  Elec       q    Type
REMARK                         _______ _______ _______ _____ _____    ______ ____
ROOT
ATOM      1  O   UNL     1       5.055   2.005  20.342  0.00  0.00    +0.000 OA
ATOM      2  C   UNL     1       4.573   2.897  19.683  0.00  0.00    +0.000 C 
ATOM      3  C   UNL     1       5.261   4.209  19.222  0.00  0.00    +0.000 C 
ATOM      4  O   UNL     1       6.416   4.516  19.446  0.00  0.00    +0.000 OA
ATOM      5  N   UNL     1       4.290   4.912  18.518  0.00  0.00    +0.000 N 
ATOM      6  C   UNL     1       3.083   4.190  18.490  0.00  0.00    +0.000 A 
ATOM      7  C   UNL     1       1.881   4.535  17.899  0.00  0.00    +0.000 A 
ATOM      8  C   UNL     1       0.817   3.629  17.990  0.00  0.00    +0.000 A 
ATOM      9  C   UNL     1       0.963   2.405  18.666  0.00  0.00    +0.000 A 
ATOM     10  C   UNL     1       2.175   2.065  19.271  0.00  0.00    +0.000 A 
ATOM     11  C   UNL     1       3.208   2.976  19.164  0.00  0.00    +0.000 A 
ENDROOT
BRANCH   5  12
ATOM     12  C   UNL     1       4.493   6.210  17.904  0.00  0.00    +0.000 C 
BRANCH  12  13
ATOM     13  C   UNL     1       5.559   6.242  16.804  0.00  0.00    +0.000 C 
ATOM     14  I   UNL     1       7.327   7.294  17.415  0.00  0.00    +0.000 I 
ENDBRANCH  12  13
ENDBRANCH   5  12
TORSDOF 2
ENDMDL
MODEL 7
REMARK VINA RESULT:      -5.7      3.113      3.796
REMARK  Name = 
REMARK  2 active torsions:
REMARK  status: ('A' for Active; 'I' for Inactive)
REMARK    1  A    between atoms: N_5  and  C_6
REMARK    2  A    between atoms: C_6  and  C_7
REMARK                            x       y       z     vdW  Elec       q    Type
REMARK                         _______ _______ _______ _____ _____    ______ ____
ROOT
ATOM      1  O   UNL     1       5.202   6.706  15.617  0.00  0.00    +0.000 OA
ATOM      2  C   UNL     1       4.793   6.183  16.628  0.00  0.00    +0.000 C 
ATOM      3  C   UNL     1       5.159   4.781  17.181  0.00  0.00    +0.000 C 
ATOM      4  O   UNL     1       5.945   4.006  16.672  0.00  0.00    +0.000 OA
ATOM      5  N   UNL     1       4.415   4.634  18.347  0.00  0.00    +0.000 N 
ATOM      6  C   UNL     1       3.632   5.779  18.579  0.00  0.00    +0.000 A 
ATOM      7  C   UNL     1       2.758   6.034  19.619  0.00  0.00    +0.000 A 
ATOM      8  C   UNL     1       2.104   7.271  19.643  0.00  0.00    +0.000 A 
ATOM      9  C   UNL     1       2.325   8.228  18.637  0.00  0.00    +0.000 A 
ATOM     10  C   UNL     1       3.201   7.963  17.582  0.00  0.00    +0.000 A 
ATOM     11  C   UNL     1       3.834   6.735  17.584  0.00  0.00    +0.000 A 
ENDROOT
BRANCH   5  12
ATOM     12  C   UNL     1       4.440   3.460  19.199  0.00  0.00    +0.000 C 
BRANCH  12  13
ATOM     13  C   UNL     1       3.691   2.245  18.643  0.00  0.00    +0.000 C 
ATOM     14  I   UNL     1       1.563   2.438  18.845  0.00  0.00    +0.000 I 
ENDBRANCH  12  13
ENDBRANCH   5  12
TORSDOF 2
ENDMDL
MODEL 8
REMARK VINA RESULT:      -5.6      3.171      4.506
REMARK  Name = 
REMARK  2 active torsions:
REMARK  status: ('A' for Active; 'I' for Inactive)
REMARK    1  A    between atoms: N_5  and  C_6
REMARK    2  A    between atoms: C_6  and  C_7
REMARK                            x       y       z     vdW  Elec       q    Type
REMARK                         _______ _______ _______ _____ _____    ______ ____
ROOT
ATOM      1  O   UNL     1       3.602   7.711  17.717  0.00  0.00    +0.000 OA
ATOM      2  C   UNL     1       3.925   6.547  17.759  0.00  0.00    +0.000 C 
ATOM      3  C   UNL     1       3.639   5.527  18.892  0.00  0.00    +0.000 C 
ATOM      4  O   UNL     1       3.015   5.760  19.909  0.00  0.00    +0.000 OA
ATOM      5  N   UNL     1       4.233   4.338  18.483  0.00  0.00    +0.000 N 
ATOM      6  C   UNL     1       4.852   4.503  17.231  0.00  0.00    +0.000 A 
ATOM      7  C   UNL     1       5.548   3.573  16.480  0.00  0.00    +0.000 A 
ATOM      8  C   UNL     1       6.059   3.975  15.240  0.00  0.00    +0.000 A 
ATOM      9  C   UNL     1       5.874   5.287  14.771  0.00  0.00    +0.000 A 
ATOM     10  C   UNL     1       5.179   6.226  15.536  0.00  0.00    +0.000 A 
ATOM     11  C   UNL     1       4.685   5.803  16.755  0.00  0.00    +0.000 A 
ENDROOT
BRANCH   5  12
ATOM     12  C   UNL     1       4.220   3.103  19.245  0.00  0.00    +0.000 C 
BRANCH  12  13
ATOM     13  C   UNL     1       3.281   2.022  18.701  0.00  0.00    +0.000 C 
ATOM     14  I   UNL     1       1.213   2.528  18.973  0.00  0.00    +0.000 I 
ENDBRANCH  12  13
ENDBRANCH   5  12
TORSDOF 2
ENDMDL
MODEL 9
REMARK VINA RESULT:      -5.6      2.812      3.504
REMARK  Name = 
REMARK  2 active torsions:
REMARK  status: ('A' for Active; 'I' for Inactive)
REMARK    1  A    between atoms: N_5  and  C_6
REMARK    2  A    between atoms: C_6  and  C_7
REMARK                            x       y       z     vdW  Elec       q    Type
REMARK                         _______ _______ _______ _____ _____    ______ ____
ROOT
ATOM      1  O   UNL     1       1.916   2.325  20.774  0.00  0.00    +0.000 OA
ATOM      2  C   UNL     1       2.337   3.052  19.905  0.00  0.00    +0.000 C 
ATOM      3  C   UNL     1       3.082   2.641  18.607  0.00  0.00    +0.000 C 
ATOM      4  O   UNL     1       3.328   1.500  18.268  0.00  0.00    +0.000 OA
ATOM      5  N   UNL     1       3.378   3.832  17.953  0.00  0.00    +0.000 N 
ATOM      6  C   UNL     1       2.904   4.931  18.694  0.00  0.00    +0.000 A 
ATOM      7  C   UNL     1       2.994   6.278  18.396  0.00  0.00    +0.000 A 
ATOM      8  C   UNL     1       2.420   7.191  19.290  0.00  0.00    +0.000 A 
ATOM      9  C   UNL     1       1.773   6.752  20.459  0.00  0.00    +0.000 A 
ATOM     10  C   UNL     1       1.693   5.391  20.760  0.00  0.00    +0.000 A 
ATOM     11  C   UNL     1       2.267   4.512  19.861  0.00  0.00    +0.000 A 
ENDROOT
BRANCH   5  12
ATOM     12  C   UNL     1       4.081   3.927  16.688  0.00  0.00    +0.000 C 
BRANCH  12  13
ATOM     13  C   UNL     1       5.580   4.217  16.805  0.00  0.00    +0.000 C 
ATOM     14  I   UNL     1       6.482   4.621  14.900  0.00  0.00    +0.000 I 
ENDBRANCH  12  13
ENDBRANCH   5  12
TORSDOF 2
ENDMDL
