MODEL 1
REMARK VINA RESULT:      -8.4      0.000      0.000
REMARK  Name = 
REMARK  6 active torsions:
REMARK  status: ('A' for Active; 'I' for Inactive)
REMARK    1  A    between atoms: C_1  and  C_2
REMARK    2  A    between atoms: C_4  and  N_5
REMARK    3  A    between atoms: C_7  and  C_8
REMARK    4  A    between atoms: C_13  and  N_14
REMARK    5  A    between atoms: C_15  and  C_17
REMARK    6  A    between atoms: C_22  and  C_23
REMARK                            x       y       z     vdW  Elec       q    Type
REMARK                         _______ _______ _______ _____ _____    ______ ____
ROOT
ATOM      1  N   UNL     1       2.505   7.281  18.894  0.00  0.00    +0.000 N 
ATOM      2  C   UNL     1       2.050   8.482  18.354  0.00  0.00    +0.000 C 
ATOM      3  O   UNL     1       2.091   8.778  17.164  0.00  0.00    +0.000 OA
ATOM      4  H   UNL     1       2.293   7.161  19.868  0.00  0.00    +0.000 HD
ENDROOT
BRANCH   2   5
ATOM      5  C   UNL     1       1.459   9.519  19.290  0.00  0.00    +0.000 A 
ATOM      6  C   UNL     1       0.936   9.036  20.498  0.00  0.00    +0.000 A 
ATOM      7  C   UNL     1       0.390   9.923  21.414  0.00  0.00    +0.000 A 
ATOM      8  C   UNL     1       0.377  11.267  21.101  0.00  0.00    +0.000 A 
ATOM      9  F   UNL     1      -0.183  12.115  21.978  0.00  0.00    +0.000 F 
ATOM     10  C   UNL     1       0.918  11.715  19.882  0.00  0.00    +0.000 A 
ATOM     11  N   UNL     1       1.456  10.846  18.951  0.00  0.00    +0.000 NA
BRANCH  10  12
ATOM     12  C   UNL     1       0.936  13.157  19.559  0.00  0.00    +0.000 A 
ATOM     13  C   UNL     1       2.115  13.915  19.638  0.00  0.00    +0.000 A 
ATOM     14  C   UNL     1       2.113  15.273  19.288  0.00  0.00    +0.000 A 
ATOM     15  F   UNL     1       3.260  15.965  19.369  0.00  0.00    +0.000 F 
ATOM     16  C   UNL     1       0.964  15.911  18.849  0.00  0.00    +0.000 A 
ATOM     17  C   UNL     1      -0.218  15.181  18.760  0.00  0.00    +0.000 A 
ATOM     18  C   UNL     1      -0.224  13.834  19.118  0.00  0.00    +0.000 A 
ATOM     19  F   UNL     1      -1.395  13.181  19.036  0.00  0.00    +0.000 F 
ENDBRANCH  10  12
ENDBRANCH   2   5
BRANCH   1  25
ATOM     20  C   UNL     1       2.611   4.952  17.911  0.00  0.00    +0.000 A 
ATOM     21  C   UNL     1       3.328   4.100  17.031  0.00  0.00    +0.000 A 
ATOM     22  C   UNL     1       4.614   4.409  16.631  0.00  0.00    +0.000 A 
ATOM     23  N   UNL     1       5.240   5.527  17.006  0.00  0.00    +0.000 NA
ATOM     24  C   UNL     1       4.514   6.401  17.747  0.00  0.00    +0.000 A 
ATOM     25  C   UNL     1       3.188   6.230  18.186  0.00  0.00    +0.000 A 
BRANCH  20  31
ATOM     26  C   UNL     1       3.607   4.065  20.795  0.00  0.00    +0.000 C 
ATOM     27  C   UNL     1       2.108   3.767  20.910  0.00  0.00    +0.000 C 
ATOM     28  C   UNL     1       1.817   2.281  20.684  0.00  0.00    +0.000 C 
ATOM     29  C   UNL     1       1.761   1.846  19.204  0.00  0.00    +0.000 C 
ATOM     30  C   UNL     1       1.012   2.849  18.297  0.00  0.00    +0.000 C 
ATOM     31  C   UNL     1       1.316   4.380  18.523  0.00  0.00    +0.000 C 
ATOM     32  C   UNL     1       1.132   4.574  20.037  0.00  0.00    +0.000 C 
BRANCH  29  33
ATOM     33  N   UNL     1       3.090   1.512  18.698  0.00  0.00    +0.000 NA
ATOM     34  H   UNL     1       3.766   1.447  19.456  0.00  0.00    +0.000 HD
ATOM     35  H   UNL     1       3.422   2.256  18.088  0.00  0.00    +0.000 HD
ENDBRANCH  29  33
ENDBRANCH  20  31
ENDBRANCH   1  25
TORSDOF 5
ENDMDL
MODEL 2
REMARK VINA RESULT:      -8.3      0.814      1.431
REMARK  Name = 
REMARK  6 active torsions:
REMARK  status: ('A' for Active; 'I' for Inactive)
REMARK    1  A    between atoms: C_1  and  C_2
REMARK    2  A    between atoms: C_4  and  N_5
REMARK    3  A    between atoms: C_7  and  C_8
REMARK    4  A    between atoms: C_13  and  N_14
REMARK    5  A    between atoms: C_15  and  C_17
REMARK    6  A    between atoms: C_22  and  C_23
REMARK                            x       y       z     vdW  Elec       q    Type
REMARK                         _______ _______ _______ _____ _____    ______ ____
ROOT
ATOM      1  N   UNL     1       2.412   7.308  18.916  0.00  0.00    +0.000 N 
ATOM      2  C   UNL     1       2.026   8.542  18.396  0.00  0.00    +0.000 C 
ATOM      3  O   UNL     1       2.133   8.874  17.220  0.00  0.00    +0.000 OA
ATOM      4  H   UNL     1       2.151   7.166  19.875  0.00  0.00    +0.000 HD
ENDROOT
BRANCH   2   5
ATOM      5  C   UNL     1       1.430   9.571  19.338  0.00  0.00    +0.000 A 
ATOM      6  C   UNL     1       0.778   9.066  20.473  0.00  0.00    +0.000 A 
ATOM      7  C   UNL     1       0.218   9.943  21.390  0.00  0.00    +0.000 A 
ATOM      8  C   UNL     1       0.320  11.298  21.152  0.00  0.00    +0.000 A 
ATOM      9  F   UNL     1      -0.253  12.139  22.028  0.00  0.00    +0.000 F 
ATOM     10  C   UNL     1       0.989  11.767  20.007  0.00  0.00    +0.000 A 
ATOM     11  N   UNL     1       1.543  10.909  19.074  0.00  0.00    +0.000 NA
BRANCH  10  12
ATOM     12  C   UNL     1       1.129  13.219  19.766  0.00  0.00    +0.000 A 
ATOM     13  C   UNL     1       0.169  13.940  19.038  0.00  0.00    +0.000 A 
ATOM     14  C   UNL     1       0.305  15.324  18.858  0.00  0.00    +0.000 A 
ATOM     15  F   UNL     1      -0.635  15.982  18.162  0.00  0.00    +0.000 F 
ATOM     16  C   UNL     1       1.373  16.027  19.390  0.00  0.00    +0.000 A 
ATOM     17  C   UNL     1       2.337  15.336  20.117  0.00  0.00    +0.000 A 
ATOM     18  C   UNL     1       2.213  13.958  20.290  0.00  0.00    +0.000 A 
ATOM     19  F   UNL     1       3.182  13.334  20.981  0.00  0.00    +0.000 F 
ENDBRANCH  10  12
ENDBRANCH   2   5
BRANCH   1  25
ATOM     20  C   UNL     1       2.522   4.967  17.966  0.00  0.00    +0.000 A 
ATOM     21  C   UNL     1       3.225   4.110  17.080  0.00  0.00    +0.000 A 
ATOM     22  C   UNL     1       4.495   4.430  16.639  0.00  0.00    +0.000 A 
ATOM     23  N   UNL     1       5.116   5.561  16.978  0.00  0.00    +0.000 NA
ATOM     24  C   UNL     1       4.400   6.437  17.727  0.00  0.00    +0.000 A 
ATOM     25  C   UNL     1       3.089   6.256  18.206  0.00  0.00    +0.000 A 
BRANCH  20  31
ATOM     26  C   UNL     1       3.631   4.054  20.800  0.00  0.00    +0.000 C 
ATOM     27  C   UNL     1       2.138   3.753  20.972  0.00  0.00    +0.000 C 
ATOM     28  C   UNL     1       1.839   2.268  20.743  0.00  0.00    +0.000 C 
ATOM     29  C   UNL     1       1.726   1.847  19.263  0.00  0.00    +0.000 C 
ATOM     30  C   UNL     1       0.941   2.858  18.395  0.00  0.00    +0.000 C 
ATOM     31  C   UNL     1       1.253   4.387  18.623  0.00  0.00    +0.000 C 
ATOM     32  C   UNL     1       1.128   4.567  20.146  0.00  0.00    +0.000 C 
BRANCH  29  33
ATOM     33  N   UNL     1       3.034   1.520  18.702  0.00  0.00    +0.000 NA
ATOM     34  H   UNL     1       3.209   0.518  18.736  0.00  0.00    +0.000 HD
ATOM     35  H   UNL     1       3.767   1.952  19.262  0.00  0.00    +0.000 HD
ENDBRANCH  29  33
ENDBRANCH  20  31
ENDBRANCH   1  25
TORSDOF 5
ENDMDL
MODEL 3
REMARK VINA RESULT:      -8.3      2.865      4.892
REMARK  Name = 
REMARK  6 active torsions:
REMARK  status: ('A' for Active; 'I' for Inactive)
REMARK    1  A    between atoms: C_1  and  C_2
REMARK    2  A    between atoms: C_4  and  N_5
REMARK    3  A    between atoms: C_7  and  C_8
REMARK    4  A    between atoms: C_13  and  N_14
REMARK    5  A    between atoms: C_15  and  C_17
REMARK    6  A    between atoms: C_22  and  C_23
REMARK                            x       y       z     vdW  Elec       q    Type
REMARK                         _______ _______ _______ _____ _____    ______ ____
ROOT
ATOM      1  N   UNL     1       2.346   7.706  18.580  0.00  0.00    +0.000 N 
ATOM      2  C   UNL     1       1.684   8.491  19.522  0.00  0.00    +0.000 C 
ATOM      3  O   UNL     1       1.563   8.211  20.711  0.00  0.00    +0.000 OA
ATOM      4  H   UNL     1       2.445   8.140  17.679  0.00  0.00    +0.000 HD
ENDROOT
BRANCH   2   5
ATOM      5  C   UNL     1       1.053   9.793  19.066  0.00  0.00    +0.000 A 
ATOM      6  C   UNL     1       1.881  10.924  19.091  0.00  0.00    +0.000 A 
ATOM      7  C   UNL     1       1.382  12.150  18.676  0.00  0.00    +0.000 A 
ATOM      8  C   UNL     1       0.071  12.217  18.251  0.00  0.00    +0.000 A 
ATOM      9  F   UNL     1      -0.413  13.413  17.882  0.00  0.00    +0.000 F 
ATOM     10  C   UNL     1      -0.727  11.059  18.233  0.00  0.00    +0.000 A 
ATOM     11  N   UNL     1      -0.252   9.830  18.654  0.00  0.00    +0.000 NA
BRANCH  10  12
ATOM     12  C   UNL     1      -2.121  11.121  17.746  0.00  0.00    +0.000 A 
ATOM     13  C   UNL     1      -2.482  10.633  16.480  0.00  0.00    +0.000 A 
ATOM     14  C   UNL     1      -3.818  10.668  16.058  0.00  0.00    +0.000 A 
ATOM     15  F   UNL     1      -4.128  10.188  14.844  0.00  0.00    +0.000 F 
ATOM     16  C   UNL     1      -4.825  11.172  16.866  0.00  0.00    +0.000 A 
ATOM     17  C   UNL     1      -4.494  11.660  18.127  0.00  0.00    +0.000 A 
ATOM     18  C   UNL     1      -3.165  11.638  18.547  0.00  0.00    +0.000 A 
ATOM     19  F   UNL     1      -2.895  12.141  19.763  0.00  0.00    +0.000 F 
ENDBRANCH  10  12
ENDBRANCH   2   5
BRANCH   1  25
ATOM     20  C   UNL     1       4.247   6.043  18.448  0.00  0.00    +0.000 A 
ATOM     21  C   UNL     1       4.718   4.786  18.911  0.00  0.00    +0.000 A 
ATOM     22  C   UNL     1       3.858   3.873  19.490  0.00  0.00    +0.000 A 
ATOM     23  N   UNL     1       2.561   4.121  19.684  0.00  0.00    +0.000 NA
ATOM     24  C   UNL     1       2.133   5.366  19.355  0.00  0.00    +0.000 A 
ATOM     25  C   UNL     1       2.909   6.400  18.799  0.00  0.00    +0.000 A 
BRANCH  20  31
ATOM     26  C   UNL     1       4.578   4.128  15.934  0.00  0.00    +0.000 C 
ATOM     27  C   UNL     1       5.384   5.346  15.470  0.00  0.00    +0.000 C 
ATOM     28  C   UNL     1       6.886   5.133  15.680  0.00  0.00    +0.000 C 
ATOM     29  C   UNL     1       7.384   5.386  17.119  0.00  0.00    +0.000 C 
ATOM     30  C   UNL     1       6.760   6.640  17.773  0.00  0.00    +0.000 C 
ATOM     31  C   UNL     1       5.212   6.858  17.564  0.00  0.00    +0.000 C 
ATOM     32  C   UNL     1       5.022   6.726  16.044  0.00  0.00    +0.000 C 
BRANCH  29  33
ATOM     33  N   UNL     1       7.247   4.191  17.946  0.00  0.00    +0.000 NA
ATOM     34  H   UNL     1       7.639   3.375  17.482  0.00  0.00    +0.000 HD
ATOM     35  H   UNL     1       6.261   3.985  18.092  0.00  0.00    +0.000 HD
ENDBRANCH  29  33
ENDBRANCH  20  31
ENDBRANCH   1  25
TORSDOF 5
ENDMDL
MODEL 4
REMARK VINA RESULT:      -8.2      3.903      8.773
REMARK  Name = 
REMARK  6 active torsions:
REMARK  status: ('A' for Active; 'I' for Inactive)
REMARK    1  A    between atoms: C_1  and  C_2
REMARK    2  A    between atoms: C_4  and  N_5
REMARK    3  A    between atoms: C_7  and  C_8
REMARK    4  A    between atoms: C_13  and  N_14
REMARK    5  A    between atoms: C_15  and  C_17
REMARK    6  A    between atoms: C_22  and  C_23
REMARK                            x       y       z     vdW  Elec       q    Type
REMARK                         _______ _______ _______ _____ _____    ______ ____
ROOT
ATOM      1  N   UNL     1       1.599   7.954  21.038  0.00  0.00    +0.000 N 
ATOM      2  C   UNL     1       1.151   6.662  20.767  0.00  0.00    +0.000 C 
ATOM      3  O   UNL     1      -0.017   6.293  20.837  0.00  0.00    +0.000 OA
ATOM      4  H   UNL     1       2.568   8.108  20.824  0.00  0.00    +0.000 HD
ENDROOT
BRANCH   2   5
ATOM      5  C   UNL     1       2.169   5.614  20.358  0.00  0.00    +0.000 A 
ATOM      6  C   UNL     1       2.024   4.349  20.946  0.00  0.00    +0.000 A 
ATOM      7  C   UNL     1       2.908   3.333  20.614  0.00  0.00    +0.000 A 
ATOM      8  C   UNL     1       3.912   3.603  19.708  0.00  0.00    +0.000 A 
ATOM      9  F   UNL     1       4.782   2.623  19.416  0.00  0.00    +0.000 F 
ATOM     10  C   UNL     1       4.020   4.882  19.132  0.00  0.00    +0.000 A 
ATOM     11  N   UNL     1       3.158   5.913  19.460  0.00  0.00    +0.000 NA
BRANCH  10  12
ATOM     12  C   UNL     1       5.074   5.166  18.136  0.00  0.00    +0.000 A 
ATOM     13  C   UNL     1       4.819   5.104  16.756  0.00  0.00    +0.000 A 
ATOM     14  C   UNL     1       5.826   5.416  15.832  0.00  0.00    +0.000 A 
ATOM     15  F   UNL     1       5.546   5.353  14.522  0.00  0.00    +0.000 F 
ATOM     16  C   UNL     1       7.095   5.800  16.237  0.00  0.00    +0.000 A 
ATOM     17  C   UNL     1       7.372   5.871  17.599  0.00  0.00    +0.000 A 
ATOM     18  C   UNL     1       6.378   5.551  18.523  0.00  0.00    +0.000 A 
ATOM     19  F   UNL     1       6.704   5.613  19.825  0.00  0.00    +0.000 F 
ENDBRANCH  10  12
ENDBRANCH   2   5
BRANCH   1  25
ATOM     20  C   UNL     1       0.074   9.944  20.704  0.00  0.00    +0.000 A 
ATOM     21  C   UNL     1      -0.819  10.838  21.350  0.00  0.00    +0.000 A 
ATOM     22  C   UNL     1      -0.822  10.971  22.725  0.00  0.00    +0.000 A 
ATOM     23  N   UNL     1      -0.030  10.254  23.524  0.00  0.00    +0.000 NA
ATOM     24  C   UNL     1       0.738   9.312  22.919  0.00  0.00    +0.000 A 
ATOM     25  C   UNL     1       0.806   9.045  21.538  0.00  0.00    +0.000 A 
BRANCH  20  31
ATOM     26  C   UNL     1       1.778  12.614  20.449  0.00  0.00    +0.000 C 
ATOM     27  C   UNL     1       1.689  12.195  18.978  0.00  0.00    +0.000 C 
ATOM     28  C   UNL     1       0.588  12.968  18.244  0.00  0.00    +0.000 C 
ATOM     29  C   UNL     1      -0.841  12.426  18.456  0.00  0.00    +0.000 C 
ATOM     30  C   UNL     1      -0.925  10.883  18.412  0.00  0.00    +0.000 C 
ATOM     31  C   UNL     1       0.202  10.084  19.173  0.00  0.00    +0.000 C 
ATOM     32  C   UNL     1       1.510  10.703  18.651  0.00  0.00    +0.000 C 
BRANCH  29  33
ATOM     33  N   UNL     1      -1.449  12.989  19.658  0.00  0.00    +0.000 NA
ATOM     34  H   UNL     1      -0.959  13.828  19.960  0.00  0.00    +0.000 HD
ATOM     35  H   UNL     1      -1.371  12.326  20.427  0.00  0.00    +0.000 HD
ENDBRANCH  29  33
ENDBRANCH  20  31
ENDBRANCH   1  25
TORSDOF 5
ENDMDL
MODEL 5
REMARK VINA RESULT:      -8.2      3.928      8.698
REMARK  Name = 
REMARK  6 active torsions:
REMARK  status: ('A' for Active; 'I' for Inactive)
REMARK    1  A    between atoms: C_1  and  C_2
REMARK    2  A    between atoms: C_4  and  N_5
REMARK    3  A    between atoms: C_7  and  C_8
REMARK    4  A    between atoms: C_13  and  N_14
REMARK    5  A    between atoms: C_15  and  C_17
REMARK    6  A    between atoms: C_22  and  C_23
REMARK                            x       y       z     vdW  Elec       q    Type
REMARK                         _______ _______ _______ _____ _____    ______ ____
ROOT
ATOM      1  N   UNL     1       1.618   7.980  20.988  0.00  0.00    +0.000 N 
ATOM      2  C   UNL     1       1.189   6.680  20.723  0.00  0.00    +0.000 C 
ATOM      3  O   UNL     1       0.029   6.291  20.812  0.00  0.00    +0.000 OA
ATOM      4  H   UNL     1       2.580   8.151  20.758  0.00  0.00    +0.000 HD
ENDROOT
BRANCH   2   5
ATOM      5  C   UNL     1       2.218   5.651  20.295  0.00  0.00    +0.000 A 
ATOM      6  C   UNL     1       2.190   4.427  20.980  0.00  0.00    +0.000 A 
ATOM      7  C   UNL     1       3.090   3.429  20.639  0.00  0.00    +0.000 A 
ATOM      8  C   UNL     1       3.996   3.676  19.627  0.00  0.00    +0.000 A 
ATOM      9  F   UNL     1       4.884   2.717  19.325  0.00  0.00    +0.000 F 
ATOM     10  C   UNL     1       3.987   4.913  18.958  0.00  0.00    +0.000 A 
ATOM     11  N   UNL     1       3.107   5.926  19.291  0.00  0.00    +0.000 NA
BRANCH  10  12
ATOM     12  C   UNL     1       4.934   5.169  17.851  0.00  0.00    +0.000 A 
ATOM     13  C   UNL     1       6.020   6.047  18.000  0.00  0.00    +0.000 A 
ATOM     14  C   UNL     1       6.926   6.242  16.948  0.00  0.00    +0.000 A 
ATOM     15  F   UNL     1       7.957   7.082  17.128  0.00  0.00    +0.000 F 
ATOM     16  C   UNL     1       6.792   5.580  15.738  0.00  0.00    +0.000 A 
ATOM     17  C   UNL     1       5.725   4.704  15.566  0.00  0.00    +0.000 A 
ATOM     18  C   UNL     1       4.815   4.515  16.605  0.00  0.00    +0.000 A 
ATOM     19  F   UNL     1       3.789   3.676  16.380  0.00  0.00    +0.000 F 
ENDBRANCH  10  12
ENDBRANCH   2   5
BRANCH   1  25
ATOM     20  C   UNL     1       0.070   9.956  20.681  0.00  0.00    +0.000 A 
ATOM     21  C   UNL     1      -0.831  10.832  21.341  0.00  0.00    +0.000 A 
ATOM     22  C   UNL     1      -0.830  10.950  22.717  0.00  0.00    +0.000 A 
ATOM     23  N   UNL     1      -0.027  10.233  23.505  0.00  0.00    +0.000 NA
ATOM     24  C   UNL     1       0.749   9.307  22.887  0.00  0.00    +0.000 A 
ATOM     25  C   UNL     1       0.815   9.056  21.503  0.00  0.00    +0.000 A 
BRANCH  20  31
ATOM     26  C   UNL     1       1.794  12.615  20.450  0.00  0.00    +0.000 C 
ATOM     27  C   UNL     1       1.693  12.215  18.974  0.00  0.00    +0.000 C 
ATOM     28  C   UNL     1       0.595  13.006  18.257  0.00  0.00    +0.000 C 
ATOM     29  C   UNL     1      -0.837  12.473  18.471  0.00  0.00    +0.000 C 
ATOM     30  C   UNL     1      -0.934  10.932  18.408  0.00  0.00    +0.000 C 
ATOM     31  C   UNL     1       0.190  10.114  19.152  0.00  0.00    +0.000 C 
ATOM     32  C   UNL     1       1.500  10.729  18.630  0.00  0.00    +0.000 C 
BRANCH  29  33
ATOM     33  N   UNL     1      -1.434  13.026  19.683  0.00  0.00    +0.000 NA
ATOM     34  H   UNL     1      -0.741  13.518  20.243  0.00  0.00    +0.000 HD
ATOM     35  H   UNL     1      -1.785  12.271  20.269  0.00  0.00    +0.000 HD
ENDBRANCH  29  33
ENDBRANCH  20  31
ENDBRANCH   1  25
TORSDOF 5
ENDMDL
MODEL 6
REMARK VINA RESULT:      -8.1      2.799      4.838
REMARK  Name = 
REMARK  6 active torsions:
REMARK  status: ('A' for Active; 'I' for Inactive)
REMARK    1  A    between atoms: C_1  and  C_2
REMARK    2  A    between atoms: C_4  and  N_5
REMARK    3  A    between atoms: C_7  and  C_8
REMARK    4  A    between atoms: C_13  and  N_14
REMARK    5  A    between atoms: C_15  and  C_17
REMARK    6  A    between atoms: C_22  and  C_23
REMARK                            x       y       z     vdW  Elec       q    Type
REMARK                         _______ _______ _______ _____ _____    ______ ____
ROOT
ATOM      1  N   UNL     1       2.307   7.741  18.623  0.00  0.00    +0.000 N 
ATOM      2  C   UNL     1       1.674   8.542  19.573  0.00  0.00    +0.000 C 
ATOM      3  O   UNL     1       1.589   8.281  20.769  0.00  0.00    +0.000 OA
ATOM      4  H   UNL     1       2.378   8.160  17.713  0.00  0.00    +0.000 HD
ENDROOT
BRANCH   2   5
ATOM      5  C   UNL     1       1.030   9.837  19.115  0.00  0.00    +0.000 A 
ATOM      6  C   UNL     1       1.891  10.932  18.954  0.00  0.00    +0.000 A 
ATOM      7  C   UNL     1       1.381  12.149  18.526  0.00  0.00    +0.000 A 
ATOM      8  C   UNL     1       0.028  12.243  18.271  0.00  0.00    +0.000 A 
ATOM      9  F   UNL     1      -0.462  13.432  17.888  0.00  0.00    +0.000 F 
ATOM     10  C   UNL     1      -0.802  11.119  18.435  0.00  0.00    +0.000 A 
ATOM     11  N   UNL     1      -0.316   9.901  18.874  0.00  0.00    +0.000 NA
BRANCH  10  12
ATOM     12  C   UNL     1      -2.246  11.207  18.131  0.00  0.00    +0.000 A 
ATOM     13  C   UNL     1      -3.154  11.787  19.033  0.00  0.00    +0.000 A 
ATOM     14  C   UNL     1      -4.513  11.894  18.703  0.00  0.00    +0.000 A 
ATOM     15  F   UNL     1      -5.351  12.459  19.585  0.00  0.00    +0.000 F 
ATOM     16  C   UNL     1      -5.006  11.445  17.489  0.00  0.00    +0.000 A 
ATOM     17  C   UNL     1      -4.126  10.869  16.577  0.00  0.00    +0.000 A 
ATOM     18  C   UNL     1      -2.777  10.750  16.904  0.00  0.00    +0.000 A 
ATOM     19  F   UNL     1      -1.973  10.165  16.000  0.00  0.00    +0.000 F 
ENDBRANCH  10  12
ENDBRANCH   2   5
BRANCH   1  25
ATOM     20  C   UNL     1       4.207   6.078  18.477  0.00  0.00    +0.000 A 
ATOM     21  C   UNL     1       4.688   4.828  18.945  0.00  0.00    +0.000 A 
ATOM     22  C   UNL     1       3.839   3.919  19.548  0.00  0.00    +0.000 A 
ATOM     23  N   UNL     1       2.545   4.168  19.762  0.00  0.00    +0.000 NA
ATOM     24  C   UNL     1       2.110   5.409  19.427  0.00  0.00    +0.000 A 
ATOM     25  C   UNL     1       2.875   6.438  18.847  0.00  0.00    +0.000 A 
BRANCH  20  31
ATOM     26  C   UNL     1       4.570   4.099  16.018  0.00  0.00    +0.000 C 
ATOM     27  C   UNL     1       5.352   5.317  15.517  0.00  0.00    +0.000 C 
ATOM     28  C   UNL     1       6.858   5.138  15.731  0.00  0.00    +0.000 C 
ATOM     29  C   UNL     1       7.354   5.441  17.160  0.00  0.00    +0.000 C 
ATOM     30  C   UNL     1       6.708   6.702  17.779  0.00  0.00    +0.000 C 
ATOM     31  C   UNL     1       5.156   6.885  17.568  0.00  0.00    +0.000 C 
ATOM     32  C   UNL     1       4.966   6.706  16.052  0.00  0.00    +0.000 C 
BRANCH  29  33
ATOM     33  N   UNL     1       7.240   4.268  18.023  0.00  0.00    +0.000 NA
ATOM     34  H   UNL     1       7.541   4.479  18.971  0.00  0.00    +0.000 HD
ATOM     35  H   UNL     1       7.860   3.533  17.687  0.00  0.00    +0.000 HD
ENDBRANCH  29  33
ENDBRANCH  20  31
ENDBRANCH   1  25
TORSDOF 5
ENDMDL
MODEL 7
REMARK VINA RESULT:      -8.0      2.280      4.440
REMARK  Name = 
REMARK  6 active torsions:
REMARK  status: ('A' for Active; 'I' for Inactive)
REMARK    1  A    between atoms: C_1  and  C_2
REMARK    2  A    between atoms: C_4  and  N_5
REMARK    3  A    between atoms: C_7  and  C_8
REMARK    4  A    between atoms: C_13  and  N_14
REMARK    5  A    between atoms: C_15  and  C_17
REMARK    6  A    between atoms: C_22  and  C_23
REMARK                            x       y       z     vdW  Elec       q    Type
REMARK                         _______ _______ _______ _____ _____    ______ ____
ROOT
ATOM      1  N   UNL     1       2.477   7.153  19.027  0.00  0.00    +0.000 N 
ATOM      2  C   UNL     1       1.855   7.855  20.058  0.00  0.00    +0.000 C 
ATOM      3  O   UNL     1       1.871   7.528  21.240  0.00  0.00    +0.000 OA
ATOM      4  H   UNL     1       2.456   7.621  18.139  0.00  0.00    +0.000 HD
ENDROOT
BRANCH   2   5
ATOM      5  C   UNL     1       1.091   9.119  19.715  0.00  0.00    +0.000 A 
ATOM      6  C   UNL     1       0.864   9.354  18.352  0.00  0.00    +0.000 A 
ATOM      7  C   UNL     1       0.160  10.483  17.957  0.00  0.00    +0.000 A 
ATOM      8  C   UNL     1      -0.296  11.348  18.930  0.00  0.00    +0.000 A 
ATOM      9  F   UNL     1      -0.947  12.454  18.538  0.00  0.00    +0.000 F 
ATOM     10  C   UNL     1      -0.056  11.074  20.289  0.00  0.00    +0.000 A 
ATOM     11  N   UNL     1       0.654   9.961  20.702  0.00  0.00    +0.000 NA
BRANCH  10  12
ATOM     12  C   UNL     1      -0.572  11.981  21.336  0.00  0.00    +0.000 A 
ATOM     13  C   UNL     1      -1.654  11.620  22.155  0.00  0.00    +0.000 A 
ATOM     14  C   UNL     1      -2.098  12.483  23.167  0.00  0.00    +0.000 A 
ATOM     15  F   UNL     1      -3.130  12.102  23.936  0.00  0.00    +0.000 F 
ATOM     16  C   UNL     1      -1.492  13.707  23.401  0.00  0.00    +0.000 A 
ATOM     17  C   UNL     1      -0.417  14.087  22.603  0.00  0.00    +0.000 A 
ATOM     18  C   UNL     1       0.022  13.238  21.589  0.00  0.00    +0.000 A 
ATOM     19  F   UNL     1       1.049  13.662  20.832  0.00  0.00    +0.000 F 
ENDBRANCH  10  12
ENDBRANCH   2   5
BRANCH   1  25
ATOM     20  C   UNL     1       4.497   5.662  18.719  0.00  0.00    +0.000 A 
ATOM     21  C   UNL     1       5.086   4.423  19.082  0.00  0.00    +0.000 A 
ATOM     22  C   UNL     1       4.326   3.407  19.631  0.00  0.00    +0.000 A 
ATOM     23  N   UNL     1       3.023   3.536  19.888  0.00  0.00    +0.000 NA
ATOM     24  C   UNL     1       2.483   4.759  19.655  0.00  0.00    +0.000 A 
ATOM     25  C   UNL     1       3.151   5.887  19.140  0.00  0.00    +0.000 A 
BRANCH  20  31
ATOM     26  C   UNL     1       4.649   4.059  15.980  0.00  0.00    +0.000 C 
ATOM     27  C   UNL     1       5.378   5.350  15.592  0.00  0.00    +0.000 C 
ATOM     28  C   UNL     1       6.898   5.169  15.645  0.00  0.00    +0.000 C 
ATOM     29  C   UNL     1       7.518   5.275  17.054  0.00  0.00    +0.000 C 
ATOM     30  C   UNL     1       6.923   6.423  17.901  0.00  0.00    +0.000 C 
ATOM     31  C   UNL     1       5.357   6.607  17.855  0.00  0.00    +0.000 C 
ATOM     32  C   UNL     1       5.033   6.642  16.352  0.00  0.00    +0.000 C 
BRANCH  29  33
ATOM     33  N   UNL     1       7.487   3.989  17.746  0.00  0.00    +0.000 NA
ATOM     34  H   UNL     1       8.425   3.680  17.987  0.00  0.00    +0.000 HD
ATOM     35  H   UNL     1       7.105   3.275  17.128  0.00  0.00    +0.000 HD
ENDBRANCH  29  33
ENDBRANCH  20  31
ENDBRANCH   1  25
TORSDOF 5
ENDMDL
MODEL 8
REMARK VINA RESULT:      -8.0      3.700      8.563
REMARK  Name = 
REMARK  6 active torsions:
REMARK  status: ('A' for Active; 'I' for Inactive)
REMARK    1  A    between atoms: C_1  and  C_2
REMARK    2  A    between atoms: C_4  and  N_5
REMARK    3  A    between atoms: C_7  and  C_8
REMARK    4  A    between atoms: C_13  and  N_14
REMARK    5  A    between atoms: C_15  and  C_17
REMARK    6  A    between atoms: C_22  and  C_23
REMARK                            x       y       z     vdW  Elec       q    Type
REMARK                         _______ _______ _______ _____ _____    ______ ____
ROOT
ATOM      1  N   UNL     1       2.012  10.299  19.173  0.00  0.00    +0.000 N 
ATOM      2  C   UNL     1       1.869   9.233  18.287  0.00  0.00    +0.000 C 
ATOM      3  O   UNL     1       1.328   9.300  17.188  0.00  0.00    +0.000 OA
ATOM      4  H   UNL     1       2.577  10.093  19.978  0.00  0.00    +0.000 HD
ENDROOT
BRANCH   2   5
ATOM      5  C   UNL     1       2.412   7.875  18.693  0.00  0.00    +0.000 A 
ATOM      6  C   UNL     1       1.780   7.257  19.781  0.00  0.00    +0.000 A 
ATOM      7  C   UNL     1       2.210   6.008  20.205  0.00  0.00    +0.000 A 
ATOM      8  C   UNL     1       3.258   5.410  19.536  0.00  0.00    +0.000 A 
ATOM      9  F   UNL     1       3.688   4.216  19.973  0.00  0.00    +0.000 F 
ATOM     10  C   UNL     1       3.861   6.058  18.443  0.00  0.00    +0.000 A 
ATOM     11  N   UNL     1       3.456   7.309  18.013  0.00  0.00    +0.000 NA
BRANCH  10  12
ATOM     12  C   UNL     1       4.962   5.406  17.703  0.00  0.00    +0.000 A 
ATOM     13  C   UNL     1       4.784   4.915  16.399  0.00  0.00    +0.000 A 
ATOM     14  C   UNL     1       5.855   4.336  15.705  0.00  0.00    +0.000 A 
ATOM     15  F   UNL     1       5.651   3.884  14.458  0.00  0.00    +0.000 F 
ATOM     16  C   UNL     1       7.118   4.232  16.266  0.00  0.00    +0.000 A 
ATOM     17  C   UNL     1       7.321   4.712  17.557  0.00  0.00    +0.000 A 
ATOM     18  C   UNL     1       6.256   5.279  18.256  0.00  0.00    +0.000 A 
ATOM     19  F   UNL     1       6.499   5.706  19.507  0.00  0.00    +0.000 F 
ENDBRANCH  10  12
ENDBRANCH   2   5
BRANCH   1  25
ATOM     20  C   UNL     1       0.168  12.008  19.452  0.00  0.00    +0.000 A 
ATOM     21  C   UNL     1      -0.142  13.392  19.407  0.00  0.00    +0.000 A 
ATOM     22  C   UNL     1       0.698  14.289  18.774  0.00  0.00    +0.000 A 
ATOM     23  N   UNL     1       1.852  13.927  18.211  0.00  0.00    +0.000 NA
ATOM     24  C   UNL     1       2.210  12.627  18.358  0.00  0.00    +0.000 A 
ATOM     25  C   UNL     1       1.471  11.622  19.012  0.00  0.00    +0.000 A 
BRANCH  20  31
ATOM     26  C   UNL     1      -0.352  13.039  22.412  0.00  0.00    +0.000 C 
ATOM     27  C   UNL     1      -1.457  11.985  22.283  0.00  0.00    +0.000 C 
ATOM     28  C   UNL     1      -1.047  10.665  22.942  0.00  0.00    +0.000 C 
ATOM     29  C   UNL     1      -0.128   9.767  22.086  0.00  0.00    +0.000 C 
ATOM     30  C   UNL     1      -0.544   9.704  20.599  0.00  0.00    +0.000 C 
ATOM     31  C   UNL     1      -0.960  11.063  19.915  0.00  0.00    +0.000 C 
ATOM     32  C   UNL     1      -1.998  11.660  20.880  0.00  0.00    +0.000 C 
BRANCH  29  33
ATOM     33  N   UNL     1       1.277  10.123  22.264  0.00  0.00    +0.000 NA
ATOM     34  H   UNL     1       1.662  10.532  21.416  0.00  0.00    +0.000 HD
ATOM     35  H   UNL     1       1.824   9.283  22.445  0.00  0.00    +0.000 HD
ENDBRANCH  29  33
ENDBRANCH  20  31
ENDBRANCH   1  25
TORSDOF 5
ENDMDL
MODEL 9
REMARK VINA RESULT:      -7.9      3.517      9.690
REMARK  Name = 
REMARK  6 active torsions:
REMARK  status: ('A' for Active; 'I' for Inactive)
REMARK    1  A    between atoms: C_1  and  C_2
REMARK    2  A    between atoms: C_4  and  N_5
REMARK    3  A    between atoms: C_7  and  C_8
REMARK    4  A    between atoms: C_13  and  N_14
REMARK    5  A    between atoms: C_15  and  C_17
REMARK    6  A    between atoms: C_22  and  C_23
REMARK                            x       y       z     vdW  Elec       q    Type
REMARK                         _______ _______ _______ _____ _____    ______ ____
ROOT
ATOM      1  N   UNL     1      -0.009  11.084  20.974  0.00  0.00    +0.000 N 
ATOM      2  C   UNL     1       0.765  10.005  21.397  0.00  0.00    +0.000 C 
ATOM      3  O   UNL     1       1.060   9.764  22.563  0.00  0.00    +0.000 OA
ATOM      4  H   UNL     1      -0.243  11.065  19.998  0.00  0.00    +0.000 HD
ENDROOT
BRANCH   2   5
ATOM      5  C   UNL     1       1.301   9.044  20.351  0.00  0.00    +0.000 A 
ATOM      6  C   UNL     1       1.499   9.574  19.068  0.00  0.00    +0.000 A 
ATOM      7  C   UNL     1       1.998   8.763  18.060  0.00  0.00    +0.000 A 
ATOM      8  C   UNL     1       2.285   7.445  18.356  0.00  0.00    +0.000 A 
ATOM      9  F   UNL     1       2.737   6.659  17.367  0.00  0.00    +0.000 F 
ATOM     10  C   UNL     1       2.080   6.952  19.657  0.00  0.00    +0.000 A 
ATOM     11  N   UNL     1       1.572   7.741  20.673  0.00  0.00    +0.000 NA
BRANCH  10  12
ATOM     12  C   UNL     1       2.417   5.551  19.986  0.00  0.00    +0.000 A 
ATOM     13  C   UNL     1       1.470   4.677  20.543  0.00  0.00    +0.000 A 
ATOM     14  C   UNL     1       1.804   3.342  20.809  0.00  0.00    +0.000 A 
ATOM     15  F   UNL     1       0.871   2.533  21.335  0.00  0.00    +0.000 F 
ATOM     16  C   UNL     1       3.063   2.835  20.529  0.00  0.00    +0.000 A 
ATOM     17  C   UNL     1       4.019   3.680  19.974  0.00  0.00    +0.000 A 
ATOM     18  C   UNL     1       3.696   5.012  19.719  0.00  0.00    +0.000 A 
ATOM     19  F   UNL     1       4.662   5.792  19.204  0.00  0.00    +0.000 F 
ENDBRANCH  10  12
ENDBRANCH   2   5
BRANCH   1  25
ATOM     20  C   UNL     1       0.081  13.449  21.865  0.00  0.00    +0.000 A 
ATOM     21  C   UNL     1      -0.644  14.450  22.564  0.00  0.00    +0.000 A 
ATOM     22  C   UNL     1      -1.758  14.129  23.315  0.00  0.00    +0.000 A 
ATOM     23  N   UNL     1      -2.241  12.887  23.400  0.00  0.00    +0.000 NA
ATOM     24  C   UNL     1      -1.624  11.950  22.638  0.00  0.00    +0.000 A 
ATOM     25  C   UNL     1      -0.510  12.150  21.799  0.00  0.00    +0.000 A 
BRANCH  20  31
ATOM     26  C   UNL     1      -0.724  15.705  19.778  0.00  0.00    +0.000 C 
ATOM     27  C   UNL     1       0.804  15.775  19.693  0.00  0.00    +0.000 C 
ATOM     28  C   UNL     1       1.331  15.006  18.478  0.00  0.00    +0.000 C 
ATOM     29  C   UNL     1       1.439  13.479  18.671  0.00  0.00    +0.000 C 
ATOM     30  C   UNL     1       2.004  13.073  20.052  0.00  0.00    +0.000 C 
ATOM     31  C   UNL     1       1.458  13.858  21.306  0.00  0.00    +0.000 C 
ATOM     32  C   UNL     1       1.626  15.337  20.917  0.00  0.00    +0.000 C 
BRANCH  29  33
ATOM     33  N   UNL     1       0.176  12.813  18.362  0.00  0.00    +0.000 NA
ATOM     34  H   UNL     1      -0.436  12.791  19.174  0.00  0.00    +0.000 HD
ATOM     35  H   UNL     1       0.351  11.841  18.115  0.00  0.00    +0.000 HD
ENDBRANCH  29  33
ENDBRANCH  20  31
ENDBRANCH   1  25
TORSDOF 5
ENDMDL
