MODEL 1
REMARK VINA RESULT:      -7.5      0.000      0.000
REMARK  Name = 
REMARK  8 active torsions:
REMARK  status: ('A' for Active; 'I' for Inactive)
REMARK    1  A    between atoms: C_1  and  C_2
REMARK    2  A    between atoms: C_2  and  C_3
REMARK    3  A    between atoms: C_2  and  O_4
REMARK    4  A    between atoms: O_4  and  C_5
REMARK    5  A    between atoms: C_8  and  C_9
REMARK    6  A    between atoms: N_11  and  C_12
REMARK    7  A    between atoms: C_15  and  N_16
REMARK    8  A    between atoms: C_20  and  C_22
REMARK                            x       y       z     vdW  Elec       q    Type
REMARK                         _______ _______ _______ _____ _____    ______ ____
ROOT
ATOM      1  C   UNL     1      -0.208   9.962  20.628  0.00  0.00    +0.000 A 
ATOM      2  C   UNL     1       0.506   9.998  19.434  0.00  0.00    +0.000 A 
ATOM      3  C   UNL     1       1.416   8.988  19.107  0.00  0.00    +0.000 A 
ATOM      4  C   UNL     1       1.659   7.907  19.960  0.00  0.00    +0.000 A 
ATOM      5  C   UNL     1       0.948   7.891  21.166  0.00  0.00    +0.000 A 
ATOM      6  C   UNL     1       0.031   8.904  21.505  0.00  0.00    +0.000 A 
ENDROOT
BRANCH   4   7
ATOM      7  N   UNL     1       2.563   6.928  19.611  0.00  0.00    +0.000 N 
ATOM      8  C   UNL     1       2.439   5.527  20.045  0.00  0.00    +0.000 C 
ATOM      9  C   UNL     1       2.337   4.577  18.836  0.00  0.00    +0.000 C 
ATOM     10  N   UNL     1       3.398   4.846  17.858  0.00  0.00    +0.000 N 
ATOM     11  C   UNL     1       4.159   3.791  17.351  0.00  0.00    +0.000 C 
ATOM     12  O   UNL     1       3.865   2.624  17.620  0.00  0.00    +0.000 OA
ATOM     13  C   UNL     1       3.441   6.248  17.416  0.00  0.00    +0.000 C 
ATOM     14  C   UNL     1       3.621   7.194  18.616  0.00  0.00    +0.000 C 
BRANCH  11  15
ATOM     15  C   UNL     1       5.290   4.090  16.489  0.00  0.00    +0.000 A 
ATOM     16  C   UNL     1       5.396   4.050  15.108  0.00  0.00    +0.000 A 
ATOM     17  C   UNL     1       6.715   4.453  14.785  0.00  0.00    +0.000 A 
ATOM     18  C   UNL     1       7.354   4.659  15.983  0.00  0.00    +0.000 A 
ATOM     19  O   UNL     1       6.514   4.409  17.018  0.00  0.00    +0.000 OA
ENDBRANCH  11  15
ENDBRANCH   4   7
BRANCH   1  22
ATOM     20  C   UNL     1      -1.237  11.532  22.242  0.00  0.00    +0.000 C 
ATOM     21  O   UNL     1      -0.482  11.322  23.187  0.00  0.00    +0.000 OA
ATOM     22  N   UNL     1      -1.157  10.949  20.989  0.00  0.00    +0.000 N 
ATOM     23  H   UNL     1      -1.708  11.348  20.243  0.00  0.00    +0.000 HD
BRANCH  20  27
ATOM     24  C   UNL     1      -4.331  14.396  23.110  0.00  0.00    +0.000 A 
ATOM     25  C   UNL     1      -3.438  13.957  24.078  0.00  0.00    +0.000 A 
ATOM     26  C   UNL     1      -2.423  13.059  23.754  0.00  0.00    +0.000 A 
ATOM     27  C   UNL     1      -2.287  12.562  22.452  0.00  0.00    +0.000 A 
ATOM     28  C   UNL     1      -3.185  12.983  21.463  0.00  0.00    +0.000 A 
ATOM     29  C   UNL     1      -4.203  13.896  21.801  0.00  0.00    +0.000 A 
BRANCH  24  30
ATOM     30  O   UNL     1      -5.362  15.273  23.321  0.00  0.00    +0.000 OA
BRANCH  30  32
ATOM     31  C   UNL     1      -7.219  13.927  23.998  0.00  0.00    +0.000 C 
ATOM     32  C   UNL     1      -6.680  14.864  22.922  0.00  0.00    +0.000 C 
ATOM     33  C   UNL     1      -7.592  16.081  22.775  0.00  0.00    +0.000 C 
ENDBRANCH  30  32
ENDBRANCH  24  30
ENDBRANCH  20  27
ENDBRANCH   1  22
TORSDOF 6
ENDMDL
MODEL 2
REMARK VINA RESULT:      -7.5      2.238     12.667
REMARK  Name = 
REMARK  8 active torsions:
REMARK  status: ('A' for Active; 'I' for Inactive)
REMARK    1  A    between atoms: C_1  and  C_2
REMARK    2  A    between atoms: C_2  and  C_3
REMARK    3  A    between atoms: C_2  and  O_4
REMARK    4  A    between atoms: O_4  and  C_5
REMARK    5  A    between atoms: C_8  and  C_9
REMARK    6  A    between atoms: N_11  and  C_12
REMARK    7  A    between atoms: C_15  and  N_16
REMARK    8  A    between atoms: C_20  and  C_22
REMARK                            x       y       z     vdW  Elec       q    Type
REMARK                         _______ _______ _______ _____ _____    ______ ____
ROOT
ATOM      1  C   UNL     1       0.305  10.163  18.648  0.00  0.00    +0.000 A 
ATOM      2  C   UNL     1       0.729  11.134  19.551  0.00  0.00    +0.000 A 
ATOM      3  C   UNL     1      -0.165  12.076  20.070  0.00  0.00    +0.000 A 
ATOM      4  C   UNL     1      -1.514  12.094  19.705  0.00  0.00    +0.000 A 
ATOM      5  C   UNL     1      -1.925  11.123  18.783  0.00  0.00    +0.000 A 
ATOM      6  C   UNL     1      -1.032  10.172  18.254  0.00  0.00    +0.000 A 
ENDROOT
BRANCH   4   7
ATOM      7  N   UNL     1      -2.370  13.036  20.233  0.00  0.00    +0.000 N 
ATOM      8  C   UNL     1      -3.828  12.846  20.305  0.00  0.00    +0.000 C 
ATOM      9  C   UNL     1      -4.327  12.915  21.761  0.00  0.00    +0.000 C 
ATOM     10  N   UNL     1      -3.808  14.105  22.445  0.00  0.00    +0.000 N 
ATOM     11  C   UNL     1      -4.677  14.928  23.163  0.00  0.00    +0.000 C 
ATOM     12  O   UNL     1      -5.852  14.594  23.336  0.00  0.00    +0.000 OA
ATOM     13  C   UNL     1      -2.342  14.216  22.390  0.00  0.00    +0.000 C 
ATOM     14  C   UNL     1      -1.849  14.226  20.933  0.00  0.00    +0.000 C 
BRANCH  11  15
ATOM     15  C   UNL     1      -4.171  16.171  23.720  0.00  0.00    +0.000 A 
ATOM     16  C   UNL     1      -4.009  17.414  23.131  0.00  0.00    +0.000 A 
ATOM     17  C   UNL     1      -3.494  18.278  24.128  0.00  0.00    +0.000 A 
ATOM     18  C   UNL     1      -3.318  17.504  25.248  0.00  0.00    +0.000 A 
ATOM     19  O   UNL     1      -3.689  16.223  25.003  0.00  0.00    +0.000 OA
ENDBRANCH  11  15
ENDBRANCH   4   7
BRANCH   1  22
ATOM     20  C   UNL     1       1.840   8.235  18.879  0.00  0.00    +0.000 C 
ATOM     21  O   UNL     1       1.748   8.089  20.095  0.00  0.00    +0.000 OA
ATOM     22  N   UNL     1       1.168   9.175  18.117  0.00  0.00    +0.000 N 
ATOM     23  H   UNL     1       1.175   9.065  17.113  0.00  0.00    +0.000 HD
BRANCH  20  27
ATOM     24  C   UNL     1       4.288   5.222  17.018  0.00  0.00    +0.000 A 
ATOM     25  C   UNL     1       3.114   4.909  17.692  0.00  0.00    +0.000 A 
ATOM     26  C   UNL     1       2.324   5.913  18.248  0.00  0.00    +0.000 A 
ATOM     27  C   UNL     1       2.701   7.259  18.160  0.00  0.00    +0.000 A 
ATOM     28  C   UNL     1       3.886   7.595  17.497  0.00  0.00    +0.000 A 
ATOM     29  C   UNL     1       4.673   6.572  16.931  0.00  0.00    +0.000 A 
BRANCH  24  30
ATOM     30  O   UNL     1       5.135   4.316  16.437  0.00  0.00    +0.000 OA
BRANCH  30  32
ATOM     31  C   UNL     1       7.507   4.473  16.700  0.00  0.00    +0.000 C 
ATOM     32  C   UNL     1       6.322   4.820  15.804  0.00  0.00    +0.000 C 
ATOM     33  C   UNL     1       6.499   4.188  14.425  0.00  0.00    +0.000 C 
ENDBRANCH  30  32
ENDBRANCH  24  30
ENDBRANCH  20  27
ENDBRANCH   1  22
TORSDOF 6
ENDMDL
MODEL 3
REMARK VINA RESULT:      -7.4      1.879     12.721
REMARK  Name = 
REMARK  8 active torsions:
REMARK  status: ('A' for Active; 'I' for Inactive)
REMARK    1  A    between atoms: C_1  and  C_2
REMARK    2  A    between atoms: C_2  and  C_3
REMARK    3  A    between atoms: C_2  and  O_4
REMARK    4  A    between atoms: O_4  and  C_5
REMARK    5  A    between atoms: C_8  and  C_9
REMARK    6  A    between atoms: N_11  and  C_12
REMARK    7  A    between atoms: C_15  and  N_16
REMARK    8  A    between atoms: C_20  and  C_22
REMARK                            x       y       z     vdW  Elec       q    Type
REMARK                         _______ _______ _______ _____ _____    ______ ____
ROOT
ATOM      1  C   UNL     1       0.741   9.620  20.737  0.00  0.00    +0.000 A 
ATOM      2  C   UNL     1       0.586  10.922  20.269  0.00  0.00    +0.000 A 
ATOM      3  C   UNL     1      -0.217  11.842  20.949  0.00  0.00    +0.000 A 
ATOM      4  C   UNL     1      -0.906  11.501  22.117  0.00  0.00    +0.000 A 
ATOM      5  C   UNL     1      -0.756  10.183  22.568  0.00  0.00    +0.000 A 
ATOM      6  C   UNL     1       0.049   9.249  21.889  0.00  0.00    +0.000 A 
ENDROOT
BRANCH   4   7
ATOM      7  N   UNL     1      -1.692  12.429  22.764  0.00  0.00    +0.000 N 
ATOM      8  C   UNL     1      -1.153  13.665  23.355  0.00  0.00    +0.000 C 
ATOM      9  C   UNL     1      -1.803  14.912  22.724  0.00  0.00    +0.000 C 
ATOM     10  N   UNL     1      -3.267  14.800  22.711  0.00  0.00    +0.000 N 
ATOM     11  C   UNL     1      -4.048  15.860  23.175  0.00  0.00    +0.000 C 
ATOM     12  O   UNL     1      -3.525  16.936  23.474  0.00  0.00    +0.000 OA
ATOM     13  C   UNL     1      -3.752  13.574  22.060  0.00  0.00    +0.000 C 
ATOM     14  C   UNL     1      -3.164  12.325  22.739  0.00  0.00    +0.000 C 
BRANCH  11  15
ATOM     15  C   UNL     1      -5.486  15.681  23.280  0.00  0.00    +0.000 A 
ATOM     16  C   UNL     1      -6.522  16.434  22.755  0.00  0.00    +0.000 A 
ATOM     17  C   UNL     1      -7.729  15.806  23.147  0.00  0.00    +0.000 A 
ATOM     18  C   UNL     1      -7.366  14.742  23.934  0.00  0.00    +0.000 A 
ATOM     19  O   UNL     1      -6.016  14.678  24.051  0.00  0.00    +0.000 OA
ENDBRANCH  11  15
ENDBRANCH   4   7
BRANCH   1  22
ATOM     20  C   UNL     1       1.634   8.490  18.723  0.00  0.00    +0.000 C 
ATOM     21  O   UNL     1       1.046   9.160  17.879  0.00  0.00    +0.000 OA
ATOM     22  N   UNL     1       1.564   8.663  20.095  0.00  0.00    +0.000 N 
ATOM     23  H   UNL     1       2.242   8.183  20.669  0.00  0.00    +0.000 HD
BRANCH  20  27
ATOM     24  C   UNL     1       4.294   5.334  17.501  0.00  0.00    +0.000 A 
ATOM     25  C   UNL     1       3.174   5.095  18.287  0.00  0.00    +0.000 A 
ATOM     26  C   UNL     1       2.311   6.133  18.631  0.00  0.00    +0.000 A 
ATOM     27  C   UNL     1       2.559   7.446  18.211  0.00  0.00    +0.000 A 
ATOM     28  C   UNL     1       3.689   7.711  17.429  0.00  0.00    +0.000 A 
ATOM     29  C   UNL     1       4.550   6.652  17.081  0.00  0.00    +0.000 A 
BRANCH  24  30
ATOM     30  O   UNL     1       5.203   4.389  17.107  0.00  0.00    +0.000 OA
BRANCH  30  32
ATOM     31  C   UNL     1       7.578   4.531  17.355  0.00  0.00    +0.000 C 
ATOM     32  C   UNL     1       6.394   4.842  16.444  0.00  0.00    +0.000 C 
ATOM     33  C   UNL     1       6.558   4.132  15.102  0.00  0.00    +0.000 C 
ENDBRANCH  30  32
ENDBRANCH  24  30
ENDBRANCH  20  27
ENDBRANCH   1  22
TORSDOF 6
ENDMDL
MODEL 4
REMARK VINA RESULT:      -7.3      0.780      1.587
REMARK  Name = 
REMARK  8 active torsions:
REMARK  status: ('A' for Active; 'I' for Inactive)
REMARK    1  A    between atoms: C_1  and  C_2
REMARK    2  A    between atoms: C_2  and  C_3
REMARK    3  A    between atoms: C_2  and  O_4
REMARK    4  A    between atoms: O_4  and  C_5
REMARK    5  A    between atoms: C_8  and  C_9
REMARK    6  A    between atoms: N_11  and  C_12
REMARK    7  A    between atoms: C_15  and  N_16
REMARK    8  A    between atoms: C_20  and  C_22
REMARK                            x       y       z     vdW  Elec       q    Type
REMARK                         _______ _______ _______ _____ _____    ______ ____
ROOT
ATOM      1  C   UNL     1      -0.211  10.004  20.688  0.00  0.00    +0.000 A 
ATOM      2  C   UNL     1      -0.039   8.860  21.462  0.00  0.00    +0.000 A 
ATOM      3  C   UNL     1       0.874   7.868  21.090  0.00  0.00    +0.000 A 
ATOM      4  C   UNL     1       1.645   7.971  19.929  0.00  0.00    +0.000 A 
ATOM      5  C   UNL     1       1.451   9.118  19.149  0.00  0.00    +0.000 A 
ATOM      6  C   UNL     1       0.533  10.121  19.514  0.00  0.00    +0.000 A 
ENDROOT
BRANCH   4   7
ATOM      7  N   UNL     1       2.535   6.976  19.588  0.00  0.00    +0.000 N 
ATOM      8  C   UNL     1       2.378   5.576  20.016  0.00  0.00    +0.000 C 
ATOM      9  C   UNL     1       2.274   4.631  18.804  0.00  0.00    +0.000 C 
ATOM     10  N   UNL     1       3.352   4.882  17.840  0.00  0.00    +0.000 N 
ATOM     11  C   UNL     1       4.099   3.814  17.340  0.00  0.00    +0.000 C 
ATOM     12  O   UNL     1       3.779   2.652  17.602  0.00  0.00    +0.000 OA
ATOM     13  C   UNL     1       3.428   6.285  17.403  0.00  0.00    +0.000 C 
ATOM     14  C   UNL     1       3.611   7.223  18.607  0.00  0.00    +0.000 C 
BRANCH  11  15
ATOM     15  C   UNL     1       5.246   4.093  16.493  0.00  0.00    +0.000 A 
ATOM     16  C   UNL     1       6.543   4.443  16.830  0.00  0.00    +0.000 A 
ATOM     17  C   UNL     1       7.261   4.581  15.617  0.00  0.00    +0.000 A 
ATOM     18  C   UNL     1       6.353   4.365  14.611  0.00  0.00    +0.000 A 
ATOM     19  O   UNL     1       5.126   4.105  15.127  0.00  0.00    +0.000 OA
ENDBRANCH  11  15
ENDBRANCH   4   7
BRANCH   1  22
ATOM     20  C   UNL     1      -1.159  11.636  22.289  0.00  0.00    +0.000 C 
ATOM     21  O   UNL     1      -0.423  11.388  23.240  0.00  0.00    +0.000 OA
ATOM     22  N   UNL     1      -1.104  11.044  21.038  0.00  0.00    +0.000 N 
ATOM     23  H   UNL     1      -1.627  11.472  20.287  0.00  0.00    +0.000 HD
BRANCH  20  27
ATOM     24  C   UNL     1      -4.024  14.836  22.574  0.00  0.00    +0.000 A 
ATOM     25  C   UNL     1      -4.050  13.911  21.538  0.00  0.00    +0.000 A 
ATOM     26  C   UNL     1      -3.132  12.864  21.498  0.00  0.00    +0.000 A 
ATOM     27  C   UNL     1      -2.150  12.726  22.487  0.00  0.00    +0.000 A 
ATOM     28  C   UNL     1      -2.099  13.655  23.533  0.00  0.00    +0.000 A 
ATOM     29  C   UNL     1      -3.036  14.706  23.567  0.00  0.00    +0.000 A 
BRANCH  24  30
ATOM     30  O   UNL     1      -4.876  15.900  22.708  0.00  0.00    +0.000 OA
BRANCH  30  32
ATOM     31  C   UNL     1      -6.261  17.366  23.993  0.00  0.00    +0.000 C 
ATOM     32  C   UNL     1      -5.703  15.951  23.882  0.00  0.00    +0.000 C 
ATOM     33  C   UNL     1      -6.842  14.940  23.775  0.00  0.00    +0.000 C 
ENDBRANCH  30  32
ENDBRANCH  24  30
ENDBRANCH  20  27
ENDBRANCH   1  22
TORSDOF 6
ENDMDL
MODEL 5
REMARK VINA RESULT:      -7.3      1.940     12.629
REMARK  Name = 
REMARK  8 active torsions:
REMARK  status: ('A' for Active; 'I' for Inactive)
REMARK    1  A    between atoms: C_1  and  C_2
REMARK    2  A    between atoms: C_2  and  C_3
REMARK    3  A    between atoms: C_2  and  O_4
REMARK    4  A    between atoms: O_4  and  C_5
REMARK    5  A    between atoms: C_8  and  C_9
REMARK    6  A    between atoms: N_11  and  C_12
REMARK    7  A    between atoms: C_15  and  N_16
REMARK    8  A    between atoms: C_20  and  C_22
REMARK                            x       y       z     vdW  Elec       q    Type
REMARK                         _______ _______ _______ _____ _____    ______ ____
ROOT
ATOM      1  C   UNL     1       1.645   8.773  18.764  0.00  0.00    +0.000 A 
ATOM      2  C   UNL     1       0.842   9.720  18.134  0.00  0.00    +0.000 A 
ATOM      3  C   UNL     1      -0.033  10.527  18.868  0.00  0.00    +0.000 A 
ATOM      4  C   UNL     1      -0.149  10.418  20.258  0.00  0.00    +0.000 A 
ATOM      5  C   UNL     1       0.651   9.450  20.877  0.00  0.00    +0.000 A 
ATOM      6  C   UNL     1       1.533   8.632  20.147  0.00  0.00    +0.000 A 
ENDROOT
BRANCH   4   7
ATOM      7  N   UNL     1      -1.022  11.226  20.953  0.00  0.00    +0.000 N 
ATOM      8  C   UNL     1      -0.892  11.494  22.395  0.00  0.00    +0.000 C 
ATOM      9  C   UNL     1      -0.723  13.002  22.667  0.00  0.00    +0.000 C 
ATOM     10  N   UNL     1      -1.746  13.787  21.965  0.00  0.00    +0.000 N 
ATOM     11  C   UNL     1      -2.468  14.762  22.655  0.00  0.00    +0.000 C 
ATOM     12  O   UNL     1      -2.165  15.059  23.813  0.00  0.00    +0.000 OA
ATOM     13  C   UNL     1      -1.794  13.520  20.519  0.00  0.00    +0.000 C 
ATOM     14  C   UNL     1      -2.041  12.027  20.246  0.00  0.00    +0.000 C 
BRANCH  11  15
ATOM     15  C   UNL     1      -3.565  15.434  21.980  0.00  0.00    +0.000 A 
ATOM     16  C   UNL     1      -3.621  16.688  21.395  0.00  0.00    +0.000 A 
ATOM     17  C   UNL     1      -4.926  16.838  20.866  0.00  0.00    +0.000 A 
ATOM     18  C   UNL     1      -5.608  15.696  21.207  0.00  0.00    +0.000 A 
ATOM     19  O   UNL     1      -4.807  14.858  21.910  0.00  0.00    +0.000 OA
ENDBRANCH  11  15
ENDBRANCH   4   7
BRANCH   1  22
ATOM     20  C   UNL     1       2.777   6.613  18.340  0.00  0.00    +0.000 C 
ATOM     21  O   UNL     1       2.180   5.942  19.176  0.00  0.00    +0.000 OA
ATOM     22  N   UNL     1       2.562   7.953  18.064  0.00  0.00    +0.000 N 
ATOM     23  H   UNL     1       2.972   8.337  17.225  0.00  0.00    +0.000 HD
BRANCH  20  27
ATOM     24  C   UNL     1       5.609   4.728  15.702  0.00  0.00    +0.000 A 
ATOM     25  C   UNL     1       5.515   6.108  15.822  0.00  0.00    +0.000 A 
ATOM     26  C   UNL     1       4.615   6.685  16.715  0.00  0.00    +0.000 A 
ATOM     27  C   UNL     1       3.769   5.892  17.500  0.00  0.00    +0.000 A 
ATOM     28  C   UNL     1       3.838   4.499  17.386  0.00  0.00    +0.000 A 
ATOM     29  C   UNL     1       4.757   3.926  16.485  0.00  0.00    +0.000 A 
BRANCH  24  30
ATOM     30  O   UNL     1       6.456   4.060  14.858  0.00  0.00    +0.000 OA
BRANCH  30  32
ATOM     31  C   UNL     1       7.878   5.053  13.211  0.00  0.00    +0.000 C 
ATOM     32  C   UNL     1       6.493   4.474  13.483  0.00  0.00    +0.000 C 
ATOM     33  C   UNL     1       6.227   3.284  12.562  0.00  0.00    +0.000 C 
ENDBRANCH  30  32
ENDBRANCH  24  30
ENDBRANCH  20  27
ENDBRANCH   1  22
TORSDOF 6
ENDMDL
MODEL 6
REMARK VINA RESULT:      -7.3      1.146      1.624
REMARK  Name = 
REMARK  8 active torsions:
REMARK  status: ('A' for Active; 'I' for Inactive)
REMARK    1  A    between atoms: C_1  and  C_2
REMARK    2  A    between atoms: C_2  and  C_3
REMARK    3  A    between atoms: C_2  and  O_4
REMARK    4  A    between atoms: O_4  and  C_5
REMARK    5  A    between atoms: C_8  and  C_9
REMARK    6  A    between atoms: N_11  and  C_12
REMARK    7  A    between atoms: C_15  and  N_16
REMARK    8  A    between atoms: C_20  and  C_22
REMARK                            x       y       z     vdW  Elec       q    Type
REMARK                         _______ _______ _______ _____ _____    ______ ____
ROOT
ATOM      1  C   UNL     1      -0.125   9.700  20.887  0.00  0.00    +0.000 A 
ATOM      2  C   UNL     1       0.182   8.569  21.638  0.00  0.00    +0.000 A 
ATOM      3  C   UNL     1       1.123   7.638  21.188  0.00  0.00    +0.000 A 
ATOM      4  C   UNL     1       1.790   7.792  19.969  0.00  0.00    +0.000 A 
ATOM      5  C   UNL     1       1.461   8.925  19.214  0.00  0.00    +0.000 A 
ATOM      6  C   UNL     1       0.513   9.866  19.658  0.00  0.00    +0.000 A 
ENDROOT
BRANCH   4   7
ATOM      7  N   UNL     1       2.712   6.857  19.552  0.00  0.00    +0.000 N 
ATOM      8  C   UNL     1       2.684   5.451  19.988  0.00  0.00    +0.000 C 
ATOM      9  C   UNL     1       2.540   4.498  18.785  0.00  0.00    +0.000 C 
ATOM     10  N   UNL     1       3.515   4.817  17.735  0.00  0.00    +0.000 N 
ATOM     11  C   UNL     1       4.287   3.799  17.171  0.00  0.00    +0.000 C 
ATOM     12  O   UNL     1       4.066   2.619  17.455  0.00  0.00    +0.000 OA
ATOM     13  C   UNL     1       3.462   6.221  17.297  0.00  0.00    +0.000 C 
ATOM     14  C   UNL     1       3.683   7.172  18.486  0.00  0.00    +0.000 C 
BRANCH  11  15
ATOM     15  C   UNL     1       5.338   4.151  16.232  0.00  0.00    +0.000 A 
ATOM     16  C   UNL     1       6.615   4.635  16.460  0.00  0.00    +0.000 A 
ATOM     17  C   UNL     1       7.229   4.790  15.193  0.00  0.00    +0.000 A 
ATOM     18  C   UNL     1       6.276   4.450  14.265  0.00  0.00    +0.000 A 
ATOM     19  O   UNL     1       5.120   4.096  14.879  0.00  0.00    +0.000 OA
ENDBRANCH  11  15
ENDBRANCH   4   7
BRANCH   1  22
ATOM     20  C   UNL     1      -0.698  11.919  21.823  0.00  0.00    +0.000 C 
ATOM     21  O   UNL     1       0.443  12.359  21.928  0.00  0.00    +0.000 OA
ATOM     22  N   UNL     1      -1.052  10.681  21.314  0.00  0.00    +0.000 N 
ATOM     23  H   UNL     1      -2.025  10.517  21.097  0.00  0.00    +0.000 HD
BRANCH  20  27
ATOM     24  C   UNL     1      -4.058  14.345  22.988  0.00  0.00    +0.000 A 
ATOM     25  C   UNL     1      -3.790  13.119  23.583  0.00  0.00    +0.000 A 
ATOM     26  C   UNL     1      -2.671  12.378  23.210  0.00  0.00    +0.000 A 
ATOM     27  C   UNL     1      -1.799  12.838  22.215  0.00  0.00    +0.000 A 
ATOM     28  C   UNL     1      -2.058  14.065  21.594  0.00  0.00    +0.000 A 
ATOM     29  C   UNL     1      -3.188  14.810  21.985  0.00  0.00    +0.000 A 
BRANCH  24  30
ATOM     30  O   UNL     1      -5.126  15.151  23.279  0.00  0.00    +0.000 OA
BRANCH  30  32
ATOM     31  C   UNL     1      -6.164  17.305  23.231  0.00  0.00    +0.000 C 
ATOM     32  C   UNL     1      -4.870  16.546  23.506  0.00  0.00    +0.000 C 
ATOM     33  C   UNL     1      -4.418  16.776  24.947  0.00  0.00    +0.000 C 
ENDBRANCH  30  32
ENDBRANCH  24  30
ENDBRANCH  20  27
ENDBRANCH   1  22
TORSDOF 6
ENDMDL
MODEL 7
REMARK VINA RESULT:      -7.3      1.260      1.355
REMARK  Name = 
REMARK  8 active torsions:
REMARK  status: ('A' for Active; 'I' for Inactive)
REMARK    1  A    between atoms: C_1  and  C_2
REMARK    2  A    between atoms: C_2  and  C_3
REMARK    3  A    between atoms: C_2  and  O_4
REMARK    4  A    between atoms: O_4  and  C_5
REMARK    5  A    between atoms: C_8  and  C_9
REMARK    6  A    between atoms: N_11  and  C_12
REMARK    7  A    between atoms: C_15  and  N_16
REMARK    8  A    between atoms: C_20  and  C_22
REMARK                            x       y       z     vdW  Elec       q    Type
REMARK                         _______ _______ _______ _____ _____    ______ ____
ROOT
ATOM      1  C   UNL     1       0.080  10.327  20.700  0.00  0.00    +0.000 A 
ATOM      2  C   UNL     1       0.618  10.193  19.424  0.00  0.00    +0.000 A 
ATOM      3  C   UNL     1       1.403   9.087  19.085  0.00  0.00    +0.000 A 
ATOM      4  C   UNL     1       1.692   8.075  20.006  0.00  0.00    +0.000 A 
ATOM      5  C   UNL     1       1.160   8.230  21.291  0.00  0.00    +0.000 A 
ATOM      6  C   UNL     1       0.369   9.341  21.643  0.00  0.00    +0.000 A 
ENDROOT
BRANCH   4   7
ATOM      7  N   UNL     1       2.471   6.998  19.642  0.00  0.00    +0.000 N 
ATOM      8  C   UNL     1       2.088   5.602  19.911  0.00  0.00    +0.000 C 
ATOM      9  C   UNL     1       1.979   4.794  18.604  0.00  0.00    +0.000 C 
ATOM     10  N   UNL     1       3.170   4.974  17.765  0.00  0.00    +0.000 N 
ATOM     11  C   UNL     1       3.815   3.860  17.225  0.00  0.00    +0.000 C 
ATOM     12  O   UNL     1       3.318   2.737  17.339  0.00  0.00    +0.000 OA
ATOM     13  C   UNL     1       3.474   6.386  17.481  0.00  0.00    +0.000 C 
ATOM     14  C   UNL     1       3.661   7.177  18.787  0.00  0.00    +0.000 C 
BRANCH  11  15
ATOM     15  C   UNL     1       5.066   4.049  16.511  0.00  0.00    +0.000 A 
ATOM     16  C   UNL     1       5.336   4.001  15.153  0.00  0.00    +0.000 A 
ATOM     17  C   UNL     1       6.717   4.274  14.999  0.00  0.00    +0.000 A 
ATOM     18  C   UNL     1       7.221   4.415  16.268  0.00  0.00    +0.000 A 
ATOM     19  O   UNL     1       6.241   4.246  17.189  0.00  0.00    +0.000 OA
ENDBRANCH  11  15
ENDBRANCH   4   7
BRANCH   1  22
ATOM     20  C   UNL     1      -0.262  12.626  21.552  0.00  0.00    +0.000 C 
ATOM     21  O   UNL     1       0.919  12.944  21.660  0.00  0.00    +0.000 OA
ATOM     22  N   UNL     1      -0.741  11.416  21.080  0.00  0.00    +0.000 N 
ATOM     23  H   UNL     1      -1.724  11.350  20.854  0.00  0.00    +0.000 HD
BRANCH  20  27
ATOM     24  C   UNL     1      -3.175  15.532  22.815  0.00  0.00    +0.000 A 
ATOM     25  C   UNL     1      -2.168  15.081  23.658  0.00  0.00    +0.000 A 
ATOM     26  C   UNL     1      -1.217  14.170  23.204  0.00  0.00    +0.000 A 
ATOM     27  C   UNL     1      -1.261  13.671  21.897  0.00  0.00    +0.000 A 
ATOM     28  C   UNL     1      -2.276  14.103  21.035  0.00  0.00    +0.000 A 
ATOM     29  C   UNL     1      -3.228  15.030  21.501  0.00  0.00    +0.000 A 
BRANCH  24  30
ATOM     30  O   UNL     1      -4.157  16.423  23.158  0.00  0.00    +0.000 OA
BRANCH  30  32
ATOM     31  C   UNL     1      -5.129  17.438  25.094  0.00  0.00    +0.000 C 
ATOM     32  C   UNL     1      -4.945  16.134  24.324  0.00  0.00    +0.000 C 
ATOM     33  C   UNL     1      -6.303  15.563  23.920  0.00  0.00    +0.000 C 
ENDBRANCH  30  32
ENDBRANCH  24  30
ENDBRANCH  20  27
ENDBRANCH   1  22
TORSDOF 6
ENDMDL
MODEL 8
REMARK VINA RESULT:      -7.3      1.072      1.778
REMARK  Name = 
REMARK  8 active torsions:
REMARK  status: ('A' for Active; 'I' for Inactive)
REMARK    1  A    between atoms: C_1  and  C_2
REMARK    2  A    between atoms: C_2  and  C_3
REMARK    3  A    between atoms: C_2  and  O_4
REMARK    4  A    between atoms: O_4  and  C_5
REMARK    5  A    between atoms: C_8  and  C_9
REMARK    6  A    between atoms: N_11  and  C_12
REMARK    7  A    between atoms: C_15  and  N_16
REMARK    8  A    between atoms: C_20  and  C_22
REMARK                            x       y       z     vdW  Elec       q    Type
REMARK                         _______ _______ _______ _____ _____    ______ ____
ROOT
ATOM      1  C   UNL     1      -0.084   9.942  20.721  0.00  0.00    +0.000 A 
ATOM      2  C   UNL     1       0.208   8.858  21.543  0.00  0.00    +0.000 A 
ATOM      3  C   UNL     1       1.117   7.873  21.142  0.00  0.00    +0.000 A 
ATOM      4  C   UNL     1       1.763   7.924  19.903  0.00  0.00    +0.000 A 
ATOM      5  C   UNL     1       1.448   9.011  19.078  0.00  0.00    +0.000 A 
ATOM      6  C   UNL     1       0.533  10.006  19.472  0.00  0.00    +0.000 A 
ENDROOT
BRANCH   4   7
ATOM      7  N   UNL     1       2.651   6.937  19.535  0.00  0.00    +0.000 N 
ATOM      8  C   UNL     1       2.531   5.540  19.982  0.00  0.00    +0.000 C 
ATOM      9  C   UNL     1       2.389   4.582  18.783  0.00  0.00    +0.000 C 
ATOM     10  N   UNL     1       3.424   4.838  17.774  0.00  0.00    +0.000 N 
ATOM     11  C   UNL     1       4.165   3.775  17.254  0.00  0.00    +0.000 C 
ATOM     12  O   UNL     1       3.871   2.612  17.539  0.00  0.00    +0.000 OA
ATOM     13  C   UNL     1       3.464   6.237  17.322  0.00  0.00    +0.000 C 
ATOM     14  C   UNL     1       3.683   7.189  18.509  0.00  0.00    +0.000 C 
BRANCH  11  15
ATOM     15  C   UNL     1       5.273   4.061  16.358  0.00  0.00    +0.000 A 
ATOM     16  C   UNL     1       5.352   3.975  14.978  0.00  0.00    +0.000 A 
ATOM     17  C   UNL     1       6.657   4.387  14.614  0.00  0.00    +0.000 A 
ATOM     18  C   UNL     1       7.316   4.644  15.790  0.00  0.00    +0.000 A 
ATOM     19  O   UNL     1       6.502   4.417  16.850  0.00  0.00    +0.000 OA
ENDBRANCH  11  15
ENDBRANCH   4   7
BRANCH   1  22
ATOM     20  C   UNL     1      -1.188  11.387  22.401  0.00  0.00    +0.000 C 
ATOM     21  O   UNL     1      -0.609  10.963  23.396  0.00  0.00    +0.000 OA
ATOM     22  N   UNL     1      -0.977  10.975  21.096  0.00  0.00    +0.000 N 
ATOM     23  H   UNL     1      -1.368  11.535  20.352  0.00  0.00    +0.000 HD
BRANCH  20  27
ATOM     24  C   UNL     1      -3.836  14.753  22.838  0.00  0.00    +0.000 A 
ATOM     25  C   UNL     1      -3.338  14.360  21.603  0.00  0.00    +0.000 A 
ATOM     26  C   UNL     1      -2.514  13.241  21.491  0.00  0.00    +0.000 A 
ATOM     27  C   UNL     1      -2.154  12.495  22.620  0.00  0.00    +0.000 A 
ATOM     28  C   UNL     1      -2.635  12.882  23.877  0.00  0.00    +0.000 A 
ATOM     29  C   UNL     1      -3.473  14.010  23.976  0.00  0.00    +0.000 A 
BRANCH  24  30
ATOM     30  O   UNL     1      -4.649  15.833  23.058  0.00  0.00    +0.000 OA
BRANCH  30  32
ATOM     31  C   UNL     1      -3.655  18.003  22.915  0.00  0.00    +0.000 C 
ATOM     32  C   UNL     1      -4.132  16.906  23.861  0.00  0.00    +0.000 C 
ATOM     33  C   UNL     1      -5.218  17.444  24.791  0.00  0.00    +0.000 C 
ENDBRANCH  30  32
ENDBRANCH  24  30
ENDBRANCH  20  27
ENDBRANCH   1  22
TORSDOF 6
ENDMDL
MODEL 9
REMARK VINA RESULT:      -7.2      0.790      1.167
REMARK  Name = 
REMARK  8 active torsions:
REMARK  status: ('A' for Active; 'I' for Inactive)
REMARK    1  A    between atoms: C_1  and  C_2
REMARK    2  A    between atoms: C_2  and  C_3
REMARK    3  A    between atoms: C_2  and  O_4
REMARK    4  A    between atoms: O_4  and  C_5
REMARK    5  A    between atoms: C_8  and  C_9
REMARK    6  A    between atoms: N_11  and  C_12
REMARK    7  A    between atoms: C_15  and  N_16
REMARK    8  A    between atoms: C_20  and  C_22
REMARK                            x       y       z     vdW  Elec       q    Type
REMARK                         _______ _______ _______ _____ _____    ______ ____
ROOT
ATOM      1  C   UNL     1      -0.120   9.689  20.896  0.00  0.00    +0.000 A 
ATOM      2  C   UNL     1       0.199   8.562  21.649  0.00  0.00    +0.000 A 
ATOM      3  C   UNL     1       1.140   7.633  21.194  0.00  0.00    +0.000 A 
ATOM      4  C   UNL     1       1.794   7.784  19.967  0.00  0.00    +0.000 A 
ATOM      5  C   UNL     1       1.453   8.913  19.212  0.00  0.00    +0.000 A 
ATOM      6  C   UNL     1       0.505   9.852  19.661  0.00  0.00    +0.000 A 
ENDROOT
BRANCH   4   7
ATOM      7  N   UNL     1       2.716   6.851  19.545  0.00  0.00    +0.000 N 
ATOM      8  C   UNL     1       2.695   5.446  19.985  0.00  0.00    +0.000 C 
ATOM      9  C   UNL     1       2.545   4.490  18.786  0.00  0.00    +0.000 C 
ATOM     10  N   UNL     1       3.511   4.809  17.727  0.00  0.00    +0.000 N 
ATOM     11  C   UNL     1       4.281   3.793  17.160  0.00  0.00    +0.000 C 
ATOM     12  O   UNL     1       4.067   2.613  17.448  0.00  0.00    +0.000 OA
ATOM     13  C   UNL     1       3.450   6.212  17.287  0.00  0.00    +0.000 C 
ATOM     14  C   UNL     1       3.677   7.167  18.471  0.00  0.00    +0.000 C 
BRANCH  11  15
ATOM     15  C   UNL     1       5.324   4.146  16.211  0.00  0.00    +0.000 A 
ATOM     16  C   UNL     1       5.331   4.088  14.827  0.00  0.00    +0.000 A 
ATOM     17  C   UNL     1       6.594   4.566  14.401  0.00  0.00    +0.000 A 
ATOM     18  C   UNL     1       7.304   4.833  15.545  0.00  0.00    +0.000 A 
ATOM     19  O   UNL     1       6.561   4.549  16.643  0.00  0.00    +0.000 OA
ENDBRANCH  11  15
ENDBRANCH   4   7
BRANCH   1  22
ATOM     20  C   UNL     1      -0.693  11.905  21.839  0.00  0.00    +0.000 C 
ATOM     21  O   UNL     1       0.448  12.346  21.941  0.00  0.00    +0.000 OA
ATOM     22  N   UNL     1      -1.047  10.667  21.328  0.00  0.00    +0.000 N 
ATOM     23  H   UNL     1      -2.020  10.503  21.114  0.00  0.00    +0.000 HD
BRANCH  20  27
ATOM     24  C   UNL     1      -4.058  14.327  22.996  0.00  0.00    +0.000 A 
ATOM     25  C   UNL     1      -3.842  13.061  23.524  0.00  0.00    +0.000 A 
ATOM     26  C   UNL     1      -2.720  12.320  23.158  0.00  0.00    +0.000 A 
ATOM     27  C   UNL     1      -1.793  12.822  22.236  0.00  0.00    +0.000 A 
ATOM     28  C   UNL     1      -1.998  14.090  21.683  0.00  0.00    +0.000 A 
ATOM     29  C   UNL     1      -3.132  14.834  22.066  0.00  0.00    +0.000 A 
BRANCH  24  30
ATOM     30  O   UNL     1      -5.123  15.137  23.287  0.00  0.00    +0.000 OA
BRANCH  30  32
ATOM     31  C   UNL     1      -7.026  14.471  22.000  0.00  0.00    +0.000 C 
ATOM     32  C   UNL     1      -5.966  15.550  22.199  0.00  0.00    +0.000 C 
ATOM     33  C   UNL     1      -6.628  16.889  22.518  0.00  0.00    +0.000 C 
ENDBRANCH  30  32
ENDBRANCH  24  30
ENDBRANCH  20  27
ENDBRANCH   1  22
TORSDOF 6
ENDMDL
