MODEL 1
REMARK VINA RESULT:      -8.0      0.000      0.000
REMARK  Name = 
REMARK  4 active torsions:
REMARK  status: ('A' for Active; 'I' for Inactive)
REMARK    1  A    between atoms: N_3  and  S_4
REMARK    2  A    between atoms: S_4  and  C_7
REMARK    3  A    between atoms: N_18  and  S_19
REMARK    4  A    between atoms: S_19  and  C_22
REMARK                            x       y       z     vdW  Elec       q    Type
REMARK                         _______ _______ _______ _____ _____    ______ ____
ROOT
ATOM      1  O   UNL     1       1.429   5.960  21.236  0.00  0.00    +0.000 OA
ATOM      2  C   UNL     1       1.715   6.619  20.254  0.00  0.00    +0.000 A 
ATOM      3  N   UNL     1       1.679   8.003  20.175  0.00  0.00    +0.000 N 
ATOM      4  C   UNL     1       2.042   8.372  18.851  0.00  0.00    +0.000 A 
ATOM      5  C   UNL     1       2.382   7.263  18.184  0.00  0.00    +0.000 A 
ATOM      6  N   UNL     1       2.201   6.145  19.044  0.00  0.00    +0.000 N 
ENDROOT
BRANCH   3   7
ATOM      7  S   UNL     1       0.907   9.045  21.190  0.00  0.00    +0.000 S 
ATOM      8  O   UNL     1      -0.379   8.495  21.565  0.00  0.00    +0.000 OA
ATOM      9  O   UNL     1       1.847   9.445  22.219  0.00  0.00    +0.000 OA
BRANCH   7  10
ATOM     10  C   UNL     1       0.577  10.465  20.191  0.00  0.00    +0.000 A 
ATOM     11  C   UNL     1       1.367  11.613  20.297  0.00  0.00    +0.000 A 
ATOM     12  C   UNL     1       1.034  12.734  19.541  0.00  0.00    +0.000 A 
ATOM     13  F   UNL     1       1.775  13.840  19.646  0.00  0.00    +0.000 F 
ATOM     14  C   UNL     1      -0.071  12.712  18.690  0.00  0.00    +0.000 A 
ATOM     15  F   UNL     1      -0.390  13.795  17.974  0.00  0.00    +0.000 F 
ATOM     16  C   UNL     1      -0.852  11.567  18.580  0.00  0.00    +0.000 A 
ATOM     17  C   UNL     1      -0.520  10.445  19.331  0.00  0.00    +0.000 A 
ATOM     18  F   UNL     1      -1.272   9.343  19.205  0.00  0.00    +0.000 F 
ENDBRANCH   7  10
ENDBRANCH   3   7
BRANCH   6  19
ATOM     19  S   UNL     1       2.435   4.595  18.540  0.00  0.00    +0.000 S 
ATOM     20  O   UNL     1       2.553   3.737  19.698  0.00  0.00    +0.000 OA
ATOM     21  O   UNL     1       1.496   4.273  17.488  0.00  0.00    +0.000 OA
BRANCH  19  22
ATOM     22  C   UNL     1       4.033   4.654  17.780  0.00  0.00    +0.000 A 
ATOM     23  C   UNL     1       4.194   4.298  16.437  0.00  0.00    +0.000 A 
ATOM     24  C   UNL     1       5.453   4.424  15.856  0.00  0.00    +0.000 A 
ATOM     25  F   UNL     1       5.618   4.094  14.569  0.00  0.00    +0.000 F 
ATOM     26  C   UNL     1       6.534   4.897  16.596  0.00  0.00    +0.000 A 
ATOM     27  F   UNL     1       7.741   5.019  16.028  0.00  0.00    +0.000 F 
ATOM     28  C   UNL     1       6.374   5.249  17.931  0.00  0.00    +0.000 A 
ATOM     29  C   UNL     1       5.118   5.131  18.515  0.00  0.00    +0.000 A 
ATOM     30  F   UNL     1       4.986   5.480  19.801  0.00  0.00    +0.000 F 
ENDBRANCH  19  22
ENDBRANCH   6  19
TORSDOF 4
ENDMDL
MODEL 2
REMARK VINA RESULT:      -8.0      4.204      6.023
REMARK  Name = 
REMARK  4 active torsions:
REMARK  status: ('A' for Active; 'I' for Inactive)
REMARK    1  A    between atoms: N_3  and  S_4
REMARK    2  A    between atoms: S_4  and  C_7
REMARK    3  A    between atoms: N_18  and  S_19
REMARK    4  A    between atoms: S_19  and  C_22
REMARK                            x       y       z     vdW  Elec       q    Type
REMARK                         _______ _______ _______ _____ _____    ______ ____
ROOT
ATOM      1  O   UNL     1       5.000   5.310  19.607  0.00  0.00    +0.000 OA
ATOM      2  C   UNL     1       4.749   6.045  18.671  0.00  0.00    +0.000 A 
ATOM      3  N   UNL     1       3.636   6.866  18.566  0.00  0.00    +0.000 N 
ATOM      4  C   UNL     1       3.697   7.523  17.308  0.00  0.00    +0.000 A 
ATOM      5  C   UNL     1       4.851   7.193  16.717  0.00  0.00    +0.000 A 
ATOM      6  N   UNL     1       5.542   6.276  17.556  0.00  0.00    +0.000 N 
ENDROOT
BRANCH   3   7
ATOM      7  S   UNL     1       2.241   6.777  19.437  0.00  0.00    +0.000 S 
ATOM      8  O   UNL     1       2.487   7.217  20.795  0.00  0.00    +0.000 OA
ATOM      9  O   UNL     1       1.188   7.400  18.658  0.00  0.00    +0.000 OA
BRANCH   7  10
ATOM     10  C   UNL     1       1.887   5.049  19.523  0.00  0.00    +0.000 A 
ATOM     11  C   UNL     1       1.848   4.387  20.753  0.00  0.00    +0.000 A 
ATOM     12  C   UNL     1       1.633   3.011  20.774  0.00  0.00    +0.000 A 
ATOM     13  F   UNL     1       1.608   2.369  21.945  0.00  0.00    +0.000 F 
ATOM     14  C   UNL     1       1.456   2.304  19.585  0.00  0.00    +0.000 A 
ATOM     15  F   UNL     1       1.258   0.982  19.612  0.00  0.00    +0.000 F 
ATOM     16  C   UNL     1       1.488   2.964  18.362  0.00  0.00    +0.000 A 
ATOM     17  C   UNL     1       1.700   4.338  18.339  0.00  0.00    +0.000 A 
ATOM     18  F   UNL     1       1.713   4.965  17.153  0.00  0.00    +0.000 F 
ENDBRANCH   7  10
ENDBRANCH   3   7
BRANCH   6  19
ATOM     19  S   UNL     1       6.966   5.576  17.116  0.00  0.00    +0.000 S 
ATOM     20  O   UNL     1       7.957   6.609  16.920  0.00  0.00    +0.000 OA
ATOM     21  O   UNL     1       7.248   4.451  17.981  0.00  0.00    +0.000 OA
BRANCH  19  22
ATOM     22  C   UNL     1       6.608   4.898  15.520  0.00  0.00    +0.000 A 
ATOM     23  C   UNL     1       7.377   5.254  14.408  0.00  0.00    +0.000 A 
ATOM     24  C   UNL     1       7.108   4.646  13.184  0.00  0.00    +0.000 A 
ATOM     25  F   UNL     1       7.844   4.974  12.114  0.00  0.00    +0.000 F 
ATOM     26  C   UNL     1       6.094   3.700  13.067  0.00  0.00    +0.000 A 
ATOM     27  F   UNL     1       5.845   3.117  11.887  0.00  0.00    +0.000 F 
ATOM     28  C   UNL     1       5.329   3.347  14.172  0.00  0.00    +0.000 A 
ATOM     29  C   UNL     1       5.595   3.946  15.399  0.00  0.00    +0.000 A 
ATOM     30  F   UNL     1       4.849   3.588  16.450  0.00  0.00    +0.000 F 
ENDBRANCH  19  22
ENDBRANCH   6  19
TORSDOF 4
ENDMDL
MODEL 3
REMARK VINA RESULT:      -7.9      2.003      2.992
REMARK  Name = 
REMARK  4 active torsions:
REMARK  status: ('A' for Active; 'I' for Inactive)
REMARK    1  A    between atoms: N_3  and  S_4
REMARK    2  A    between atoms: S_4  and  C_7
REMARK    3  A    between atoms: N_18  and  S_19
REMARK    4  A    between atoms: S_19  and  C_22
REMARK                            x       y       z     vdW  Elec       q    Type
REMARK                         _______ _______ _______ _____ _____    ______ ____
ROOT
ATOM      1  O   UNL     1       1.306   7.891  21.015  0.00  0.00    +0.000 OA
ATOM      2  C   UNL     1       1.672   8.099  19.873  0.00  0.00    +0.000 A 
ATOM      3  N   UNL     1       1.709   9.339  19.252  0.00  0.00    +0.000 N 
ATOM      4  C   UNL     1       2.153   9.142  17.917  0.00  0.00    +0.000 A 
ATOM      5  C   UNL     1       2.469   7.852  17.764  0.00  0.00    +0.000 A 
ATOM      6  N   UNL     1       2.191   7.171  18.981  0.00  0.00    +0.000 N 
ENDROOT
BRANCH   3   7
ATOM      7  S   UNL     1       0.943  10.719  19.723  0.00  0.00    +0.000 S 
ATOM      8  O   UNL     1       0.644  10.650  21.139  0.00  0.00    +0.000 OA
ATOM      9  O   UNL     1       1.690  11.845  19.199  0.00  0.00    +0.000 OA
BRANCH   7  10
ATOM     10  C   UNL     1      -0.606  10.669  18.877  0.00  0.00    +0.000 A 
ATOM     11  C   UNL     1      -0.776   9.875  17.739  0.00  0.00    +0.000 A 
ATOM     12  C   UNL     1      -1.992   9.915  17.062  0.00  0.00    +0.000 A 
ATOM     13  F   UNL     1      -2.156   9.169  15.966  0.00  0.00    +0.000 F 
ATOM     14  C   UNL     1      -3.027  10.734  17.513  0.00  0.00    +0.000 A 
ATOM     15  F   UNL     1      -4.189  10.773  16.852  0.00  0.00    +0.000 F 
ATOM     16  C   UNL     1      -2.861  11.519  18.648  0.00  0.00    +0.000 A 
ATOM     17  C   UNL     1      -1.648  11.478  19.328  0.00  0.00    +0.000 A 
ATOM     18  F   UNL     1      -1.507  12.228  20.430  0.00  0.00    +0.000 F 
ENDBRANCH   7  10
ENDBRANCH   3   7
BRANCH   6  19
ATOM     19  S   UNL     1       2.370   5.543  19.145  0.00  0.00    +0.000 S 
ATOM     20  O   UNL     1       2.328   5.204  20.550  0.00  0.00    +0.000 OA
ATOM     21  O   UNL     1       1.510   4.857  18.205  0.00  0.00    +0.000 OA
BRANCH  19  22
ATOM     22  C   UNL     1       4.030   5.261  18.598  0.00  0.00    +0.000 A 
ATOM     23  C   UNL     1       5.115   5.677  19.377  0.00  0.00    +0.000 A 
ATOM     24  C   UNL     1       6.404   5.376  18.948  0.00  0.00    +0.000 A 
ATOM     25  F   UNL     1       7.450   5.762  19.690  0.00  0.00    +0.000 F 
ATOM     26  C   UNL     1       6.613   4.673  17.764  0.00  0.00    +0.000 A 
ATOM     27  F   UNL     1       7.857   4.383  17.360  0.00  0.00    +0.000 F 
ATOM     28  C   UNL     1       5.536   4.261  16.989  0.00  0.00    +0.000 A 
ATOM     29  C   UNL     1       4.245   4.554  17.416  0.00  0.00    +0.000 A 
ATOM     30  F   UNL     1       3.222   4.143  16.657  0.00  0.00    +0.000 F 
ENDBRANCH  19  22
ENDBRANCH   6  19
TORSDOF 4
ENDMDL
MODEL 4
REMARK VINA RESULT:      -7.9      1.985      7.966
REMARK  Name = 
REMARK  4 active torsions:
REMARK  status: ('A' for Active; 'I' for Inactive)
REMARK    1  A    between atoms: N_3  and  S_4
REMARK    2  A    between atoms: S_4  and  C_7
REMARK    3  A    between atoms: N_18  and  S_19
REMARK    4  A    between atoms: S_19  and  C_22
REMARK                            x       y       z     vdW  Elec       q    Type
REMARK                         _______ _______ _______ _____ _____    ______ ____
ROOT
ATOM      1  O   UNL     1       1.024   7.809  20.876  0.00  0.00    +0.000 OA
ATOM      2  C   UNL     1       1.545   7.934  19.783  0.00  0.00    +0.000 A 
ATOM      3  N   UNL     1       2.076   6.903  19.022  0.00  0.00    +0.000 N 
ATOM      4  C   UNL     1       2.623   7.473  17.841  0.00  0.00    +0.000 A 
ATOM      5  C   UNL     1       2.346   8.781  17.838  0.00  0.00    +0.000 A 
ATOM      6  N   UNL     1       1.655   9.100  19.040  0.00  0.00    +0.000 N 
ENDROOT
BRANCH   3   7
ATOM      7  S   UNL     1       2.481   5.389  19.528  0.00  0.00    +0.000 S 
ATOM      8  O   UNL     1       2.726   5.404  20.956  0.00  0.00    +0.000 OA
ATOM      9  O   UNL     1       1.516   4.460  18.974  0.00  0.00    +0.000 OA
BRANCH   7  10
ATOM     10  C   UNL     1       4.034   5.069  18.752  0.00  0.00    +0.000 A 
ATOM     11  C   UNL     1       5.230   5.484  19.346  0.00  0.00    +0.000 A 
ATOM     12  C   UNL     1       6.429   5.272  18.671  0.00  0.00    +0.000 A 
ATOM     13  F   UNL     1       7.574   5.679  19.225  0.00  0.00    +0.000 F 
ATOM     14  C   UNL     1       6.438   4.653  17.421  0.00  0.00    +0.000 A 
ATOM     15  F   UNL     1       7.593   4.461  16.775  0.00  0.00    +0.000 F 
ATOM     16  C   UNL     1       5.250   4.234  16.834  0.00  0.00    +0.000 A 
ATOM     17  C   UNL     1       4.051   4.441  17.508  0.00  0.00    +0.000 A 
ATOM     18  F   UNL     1       2.914   4.018  16.938  0.00  0.00    +0.000 F 
ENDBRANCH   7  10
ENDBRANCH   3   7
BRANCH   6  19
ATOM     19  S   UNL     1       1.227  10.641  19.432  0.00  0.00    +0.000 S 
ATOM     20  O   UNL     1       1.120  10.748  20.869  0.00  0.00    +0.000 OA
ATOM     21  O   UNL     1       2.040  11.580  18.690  0.00  0.00    +0.000 OA
BRANCH  19  22
ATOM     22  C   UNL     1      -0.415  10.782  18.783  0.00  0.00    +0.000 A 
ATOM     23  C   UNL     1      -0.840   9.951  17.741  0.00  0.00    +0.000 A 
ATOM     24  C   UNL     1      -2.159  10.044  17.305  0.00  0.00    +0.000 A 
ATOM     25  F   UNL     1      -2.580   9.248  16.314  0.00  0.00    +0.000 F 
ATOM     26  C   UNL     1      -3.041  10.946  17.895  0.00  0.00    +0.000 A 
ATOM     27  F   UNL     1      -4.310  11.026  17.473  0.00  0.00    +0.000 F 
ATOM     28  C   UNL     1      -2.618  11.772  18.929  0.00  0.00    +0.000 A 
ATOM     29  C   UNL     1      -1.303  11.680  19.373  0.00  0.00    +0.000 A 
ATOM     30  F   UNL     1      -0.918  12.482  20.373  0.00  0.00    +0.000 F 
ENDBRANCH  19  22
ENDBRANCH   6  19
TORSDOF 4
ENDMDL
MODEL 5
REMARK VINA RESULT:      -7.8      0.764      1.582
REMARK  Name = 
REMARK  4 active torsions:
REMARK  status: ('A' for Active; 'I' for Inactive)
REMARK    1  A    between atoms: N_3  and  S_4
REMARK    2  A    between atoms: S_4  and  C_7
REMARK    3  A    between atoms: N_18  and  S_19
REMARK    4  A    between atoms: S_19  and  C_22
REMARK                            x       y       z     vdW  Elec       q    Type
REMARK                         _______ _______ _______ _____ _____    ______ ____
ROOT
ATOM      1  O   UNL     1       1.495   5.820  21.186  0.00  0.00    +0.000 OA
ATOM      2  C   UNL     1       1.784   6.514  20.230  0.00  0.00    +0.000 A 
ATOM      3  N   UNL     1       1.677   7.897  20.178  0.00  0.00    +0.000 N 
ATOM      4  C   UNL     1       2.072   8.313  18.878  0.00  0.00    +0.000 A 
ATOM      5  C   UNL     1       2.498   7.240  18.203  0.00  0.00    +0.000 A 
ATOM      6  N   UNL     1       2.343   6.095  19.032  0.00  0.00    +0.000 N 
ENDROOT
BRANCH   3   7
ATOM      7  S   UNL     1       0.811   8.874  21.181  0.00  0.00    +0.000 S 
ATOM      8  O   UNL     1      -0.378   8.178  21.630  0.00  0.00    +0.000 OA
ATOM      9  O   UNL     1       1.725   9.438  22.155  0.00  0.00    +0.000 OA
BRANCH   7  10
ATOM     10  C   UNL     1       0.262  10.192  20.142  0.00  0.00    +0.000 A 
ATOM     11  C   UNL     1      -0.759   9.990  19.208  0.00  0.00    +0.000 A 
ATOM     12  C   UNL     1      -1.117  11.035  18.362  0.00  0.00    +0.000 A 
ATOM     13  F   UNL     1      -2.081  10.846  17.457  0.00  0.00    +0.000 F 
ATOM     14  C   UNL     1      -0.469  12.268  18.445  0.00  0.00    +0.000 A 
ATOM     15  F   UNL     1      -0.813  13.264  17.622  0.00  0.00    +0.000 F 
ATOM     16  C   UNL     1       0.541  12.471  19.378  0.00  0.00    +0.000 A 
ATOM     17  C   UNL     1       0.899  11.429  20.227  0.00  0.00    +0.000 A 
ATOM     18  F   UNL     1       1.864  11.643  21.133  0.00  0.00    +0.000 F 
ENDBRANCH   7  10
ENDBRANCH   3   7
BRANCH   6  19
ATOM     19  S   UNL     1       2.679   4.570  18.507  0.00  0.00    +0.000 S 
ATOM     20  O   UNL     1       2.959   3.731  19.649  0.00  0.00    +0.000 OA
ATOM     21  O   UNL     1       1.698   4.161  17.526  0.00  0.00    +0.000 OA
BRANCH  19  22
ATOM     22  C   UNL     1       4.205   4.772  17.630  0.00  0.00    +0.000 A 
ATOM     23  C   UNL     1       4.280   4.492  16.263  0.00  0.00    +0.000 A 
ATOM     24  C   UNL     1       5.478   4.730  15.595  0.00  0.00    +0.000 A 
ATOM     25  F   UNL     1       5.560   4.472  14.283  0.00  0.00    +0.000 F 
ATOM     26  C   UNL     1       6.582   5.238  16.273  0.00  0.00    +0.000 A 
ATOM     27  F   UNL     1       7.730   5.469  15.622  0.00  0.00    +0.000 F 
ATOM     28  C   UNL     1       6.508   5.516  17.633  0.00  0.00    +0.000 A 
ATOM     29  C   UNL     1       5.312   5.286  18.305  0.00  0.00    +0.000 A 
ATOM     30  F   UNL     1       5.261   5.564  19.613  0.00  0.00    +0.000 F 
ENDBRANCH  19  22
ENDBRANCH   6  19
TORSDOF 4
ENDMDL
MODEL 6
REMARK VINA RESULT:      -7.8      2.083      7.935
REMARK  Name = 
REMARK  4 active torsions:
REMARK  status: ('A' for Active; 'I' for Inactive)
REMARK    1  A    between atoms: N_3  and  S_4
REMARK    2  A    between atoms: S_4  and  C_7
REMARK    3  A    between atoms: N_18  and  S_19
REMARK    4  A    between atoms: S_19  and  C_22
REMARK                            x       y       z     vdW  Elec       q    Type
REMARK                         _______ _______ _______ _____ _____    ______ ____
ROOT
ATOM      1  O   UNL     1       2.473   7.949  17.533  0.00  0.00    +0.000 OA
ATOM      2  C   UNL     1       2.095   7.863  18.686  0.00  0.00    +0.000 A 
ATOM      3  N   UNL     1       2.090   6.703  19.447  0.00  0.00    +0.000 N 
ATOM      4  C   UNL     1       1.536   7.019  20.717  0.00  0.00    +0.000 A 
ATOM      5  C   UNL     1       1.308   8.336  20.760  0.00  0.00    +0.000 A 
ATOM      6  N   UNL     1       1.663   8.898  19.503  0.00  0.00    +0.000 N 
ENDROOT
BRANCH   3   7
ATOM      7  S   UNL     1       2.210   5.151  18.910  0.00  0.00    +0.000 S 
ATOM      8  O   UNL     1       1.908   4.237  19.993  0.00  0.00    +0.000 OA
ATOM      9  O   UNL     1       1.479   5.053  17.661  0.00  0.00    +0.000 OA
BRANCH   7  10
ATOM     10  C   UNL     1       3.924   4.946  18.540  0.00  0.00    +0.000 A 
ATOM     11  C   UNL     1       4.906   5.463  19.390  0.00  0.00    +0.000 A 
ATOM     12  C   UNL     1       6.245   5.339  19.029  0.00  0.00    +0.000 A 
ATOM     13  F   UNL     1       7.189   5.843  19.829  0.00  0.00    +0.000 F 
ATOM     14  C   UNL     1       6.603   4.707  17.838  0.00  0.00    +0.000 A 
ATOM     15  F   UNL     1       7.891   4.600  17.494  0.00  0.00    +0.000 F 
ATOM     16  C   UNL     1       5.627   4.188  16.996  0.00  0.00    +0.000 A 
ATOM     17  C   UNL     1       4.288   4.307  17.356  0.00  0.00    +0.000 A 
ATOM     18  F   UNL     1       3.358   3.787  16.543  0.00  0.00    +0.000 F 
ENDBRANCH   7  10
ENDBRANCH   3   7
BRANCH   6  19
ATOM     19  S   UNL     1       1.435  10.490  19.149  0.00  0.00    +0.000 S 
ATOM     20  O   UNL     1       1.513  11.259  20.370  0.00  0.00    +0.000 OA
ATOM     21  O   UNL     1       2.239  10.858  18.004  0.00  0.00    +0.000 OA
BRANCH  19  22
ATOM     22  C   UNL     1      -0.252  10.547  18.612  0.00  0.00    +0.000 A 
ATOM     23  C   UNL     1      -0.656   9.854  17.467  0.00  0.00    +0.000 A 
ATOM     24  C   UNL     1      -2.003   9.867  17.117  0.00  0.00    +0.000 A 
ATOM     25  F   UNL     1      -2.404   9.200  16.026  0.00  0.00    +0.000 F 
ATOM     26  C   UNL     1      -2.933  10.554  17.892  0.00  0.00    +0.000 A 
ATOM     27  F   UNL     1      -4.229  10.557  17.550  0.00  0.00    +0.000 F 
ATOM     28  C   UNL     1      -2.531  11.244  19.029  0.00  0.00    +0.000 A 
ATOM     29  C   UNL     1      -1.188  11.231  19.387  0.00  0.00    +0.000 A 
ATOM     30  F   UNL     1      -0.823  11.898  20.489  0.00  0.00    +0.000 F 
ENDBRANCH  19  22
ENDBRANCH   6  19
TORSDOF 4
ENDMDL
MODEL 7
REMARK VINA RESULT:      -7.8      3.014      4.144
REMARK  Name = 
REMARK  4 active torsions:
REMARK  status: ('A' for Active; 'I' for Inactive)
REMARK    1  A    between atoms: N_3  and  S_4
REMARK    2  A    between atoms: S_4  and  C_7
REMARK    3  A    between atoms: N_18  and  S_19
REMARK    4  A    between atoms: S_19  and  C_22
REMARK                            x       y       z     vdW  Elec       q    Type
REMARK                         _______ _______ _______ _____ _____    ______ ____
ROOT
ATOM      1  O   UNL     1       2.381   9.309  17.364  0.00  0.00    +0.000 OA
ATOM      2  C   UNL     1       2.145   8.742  18.414  0.00  0.00    +0.000 A 
ATOM      3  N   UNL     1       1.283   9.200  19.401  0.00  0.00    +0.000 N 
ATOM      4  C   UNL     1       1.324   8.273  20.477  0.00  0.00    +0.000 A 
ATOM      5  C   UNL     1       2.099   7.244  20.118  0.00  0.00    +0.000 A 
ATOM      6  N   UNL     1       2.620   7.503  18.819  0.00  0.00    +0.000 N 
ENDROOT
BRANCH   3   7
ATOM      7  S   UNL     1       0.692  10.726  19.585  0.00  0.00    +0.000 S 
ATOM      8  O   UNL     1       0.400  10.968  20.983  0.00  0.00    +0.000 OA
ATOM      9  O   UNL     1       1.563  11.633  18.864  0.00  0.00    +0.000 OA
BRANCH   7  10
ATOM     10  C   UNL     1      -0.860  10.698  18.743  0.00  0.00    +0.000 A 
ATOM     11  C   UNL     1      -1.049   9.891  17.617  0.00  0.00    +0.000 A 
ATOM     12  C   UNL     1      -2.265   9.948  16.942  0.00  0.00    +0.000 A 
ATOM     13  F   UNL     1      -2.448   9.191  15.856  0.00  0.00    +0.000 F 
ATOM     14  C   UNL     1      -3.282  10.794  17.382  0.00  0.00    +0.000 A 
ATOM     15  F   UNL     1      -4.444  10.850  16.724  0.00  0.00    +0.000 F 
ATOM     16  C   UNL     1      -3.097  11.592  18.506  0.00  0.00    +0.000 A 
ATOM     17  C   UNL     1      -1.884  11.534  19.184  0.00  0.00    +0.000 A 
ATOM     18  F   UNL     1      -1.724  12.297  20.276  0.00  0.00    +0.000 F 
ENDBRANCH   7  10
ENDBRANCH   3   7
BRANCH   6  19
ATOM     19  S   UNL     1       3.692   6.495  18.080  0.00  0.00    +0.000 S 
ATOM     20  O   UNL     1       3.553   6.630  16.647  0.00  0.00    +0.000 OA
ATOM     21  O   UNL     1       4.993   6.623  18.699  0.00  0.00    +0.000 OA
BRANCH  19  22
ATOM     22  C   UNL     1       3.093   4.884  18.505  0.00  0.00    +0.000 A 
ATOM     23  C   UNL     1       3.829   4.056  19.358  0.00  0.00    +0.000 A 
ATOM     24  C   UNL     1       3.292   2.825  19.724  0.00  0.00    +0.000 A 
ATOM     25  F   UNL     1       3.984   2.026  20.547  0.00  0.00    +0.000 F 
ATOM     26  C   UNL     1       2.045   2.424  19.253  0.00  0.00    +0.000 A 
ATOM     27  F   UNL     1       1.534   1.239  19.614  0.00  0.00    +0.000 F 
ATOM     28  C   UNL     1       1.314   3.246  18.405  0.00  0.00    +0.000 A 
ATOM     29  C   UNL     1       1.843   4.480  18.039  0.00  0.00    +0.000 A 
ATOM     30  F   UNL     1       1.120   5.258  17.224  0.00  0.00    +0.000 F 
ENDBRANCH  19  22
ENDBRANCH   6  19
TORSDOF 4
ENDMDL
MODEL 8
REMARK VINA RESULT:      -7.8      2.032      2.857
REMARK  Name = 
REMARK  4 active torsions:
REMARK  status: ('A' for Active; 'I' for Inactive)
REMARK    1  A    between atoms: N_3  and  S_4
REMARK    2  A    between atoms: S_4  and  C_7
REMARK    3  A    between atoms: N_18  and  S_19
REMARK    4  A    between atoms: S_19  and  C_22
REMARK                            x       y       z     vdW  Elec       q    Type
REMARK                         _______ _______ _______ _____ _____    ______ ____
ROOT
ATOM      1  O   UNL     1       1.451   7.743  20.906  0.00  0.00    +0.000 OA
ATOM      2  C   UNL     1       1.682   8.085  19.761  0.00  0.00    +0.000 A 
ATOM      3  N   UNL     1       1.528   9.368  19.258  0.00  0.00    +0.000 N 
ATOM      4  C   UNL     1       1.860   9.335  17.876  0.00  0.00    +0.000 A 
ATOM      5  C   UNL     1       2.294   8.106  17.577  0.00  0.00    +0.000 A 
ATOM      6  N   UNL     1       2.207   7.299  18.745  0.00  0.00    +0.000 N 
ENDROOT
BRANCH   3   7
ATOM      7  S   UNL     1       0.670  10.609  19.919  0.00  0.00    +0.000 S 
ATOM      8  O   UNL     1       0.275  10.260  21.269  0.00  0.00    +0.000 OA
ATOM      9  O   UNL     1       1.402  11.837  19.677  0.00  0.00    +0.000 OA
BRANCH   7  10
ATOM     10  C   UNL     1      -0.812  10.675  18.961  0.00  0.00    +0.000 A 
ATOM     11  C   UNL     1      -0.966   9.876  17.824  0.00  0.00    +0.000 A 
ATOM     12  C   UNL     1      -2.121  10.006  17.059  0.00  0.00    +0.000 A 
ATOM     13  F   UNL     1      -2.269   9.257  15.963  0.00  0.00    +0.000 F 
ATOM     14  C   UNL     1      -3.112  10.919  17.420  0.00  0.00    +0.000 A 
ATOM     15  F   UNL     1      -4.215  11.045  16.674  0.00  0.00    +0.000 F 
ATOM     16  C   UNL     1      -2.962  11.709  18.554  0.00  0.00    +0.000 A 
ATOM     17  C   UNL     1      -1.810  11.578  19.323  0.00  0.00    +0.000 A 
ATOM     18  F   UNL     1      -1.685  12.335  20.423  0.00  0.00    +0.000 F 
ENDBRANCH   7  10
ENDBRANCH   3   7
BRANCH   6  19
ATOM     19  S   UNL     1       2.572   5.694  18.741  0.00  0.00    +0.000 S 
ATOM     20  O   UNL     1       2.955   5.295  20.076  0.00  0.00    +0.000 OA
ATOM     21  O   UNL     1       1.549   4.960  18.027  0.00  0.00    +0.000 OA
BRANCH  19  22
ATOM     22  C   UNL     1       4.031   5.613  17.741  0.00  0.00    +0.000 A 
ATOM     23  C   UNL     1       4.975   6.644  17.778  0.00  0.00    +0.000 A 
ATOM     24  C   UNL     1       6.143   6.512  17.032  0.00  0.00    +0.000 A 
ATOM     25  F   UNL     1       7.057   7.490  17.066  0.00  0.00    +0.000 F 
ATOM     26  C   UNL     1       6.369   5.375  16.262  0.00  0.00    +0.000 A 
ATOM     27  F   UNL     1       7.498   5.253  15.550  0.00  0.00    +0.000 F 
ATOM     28  C   UNL     1       5.431   4.351  16.224  0.00  0.00    +0.000 A 
ATOM     29  C   UNL     1       4.265   4.474  16.972  0.00  0.00    +0.000 A 
ATOM     30  F   UNL     1       3.377   3.474  16.924  0.00  0.00    +0.000 F 
ENDBRANCH  19  22
ENDBRANCH   6  19
TORSDOF 4
ENDMDL
MODEL 9
REMARK VINA RESULT:      -7.8      2.068      8.116
REMARK  Name = 
REMARK  4 active torsions:
REMARK  status: ('A' for Active; 'I' for Inactive)
REMARK    1  A    between atoms: N_3  and  S_4
REMARK    2  A    between atoms: S_4  and  C_7
REMARK    3  A    between atoms: N_18  and  S_19
REMARK    4  A    between atoms: S_19  and  C_22
REMARK                            x       y       z     vdW  Elec       q    Type
REMARK                         _______ _______ _______ _____ _____    ______ ____
ROOT
ATOM      1  O   UNL     1       2.653   7.904  17.612  0.00  0.00    +0.000 OA
ATOM      2  C   UNL     1       2.192   7.834  18.735  0.00  0.00    +0.000 A 
ATOM      3  N   UNL     1       2.122   6.683  19.506  0.00  0.00    +0.000 N 
ATOM      4  C   UNL     1       1.479   7.017  20.728  0.00  0.00    +0.000 A 
ATOM      5  C   UNL     1       1.258   8.336  20.741  0.00  0.00    +0.000 A 
ATOM      6  N   UNL     1       1.709   8.881  19.507  0.00  0.00    +0.000 N 
ENDROOT
BRANCH   3   7
ATOM      7  S   UNL     1       2.269   5.124  18.995  0.00  0.00    +0.000 S 
ATOM      8  O   UNL     1       2.009   4.224  20.101  0.00  0.00    +0.000 OA
ATOM      9  O   UNL     1       1.518   4.985  17.763  0.00  0.00    +0.000 OA
BRANCH   7  10
ATOM     10  C   UNL     1       3.981   4.953  18.597  0.00  0.00    +0.000 A 
ATOM     11  C   UNL     1       4.967   5.460  19.448  0.00  0.00    +0.000 A 
ATOM     12  C   UNL     1       6.303   5.364  19.066  0.00  0.00    +0.000 A 
ATOM     13  F   UNL     1       7.251   5.858  19.867  0.00  0.00    +0.000 F 
ATOM     14  C   UNL     1       6.652   4.770  17.853  0.00  0.00    +0.000 A 
ATOM     15  F   UNL     1       7.936   4.690  17.489  0.00  0.00    +0.000 F 
ATOM     16  C   UNL     1       5.671   4.260  17.010  0.00  0.00    +0.000 A 
ATOM     17  C   UNL     1       4.337   4.351  17.391  0.00  0.00    +0.000 A 
ATOM     18  F   UNL     1       3.402   3.842  16.576  0.00  0.00    +0.000 F 
ENDBRANCH   7  10
ENDBRANCH   3   7
BRANCH   6  19
ATOM     19  S   UNL     1       1.519  10.470  19.120  0.00  0.00    +0.000 S 
ATOM     20  O   UNL     1       1.792  11.275  20.290  0.00  0.00    +0.000 OA
ATOM     21  O   UNL     1       2.188  10.755  17.869  0.00  0.00    +0.000 OA
BRANCH  19  22
ATOM     22  C   UNL     1      -0.217  10.604  18.797  0.00  0.00    +0.000 A 
ATOM     23  C   UNL     1      -1.013  11.476  19.546  0.00  0.00    +0.000 A 
ATOM     24  C   UNL     1      -2.360  11.605  19.217  0.00  0.00    +0.000 A 
ATOM     25  F   UNL     1      -3.130  12.443  19.922  0.00  0.00    +0.000 F 
ATOM     26  C   UNL     1      -2.905  10.881  18.160  0.00  0.00    +0.000 A 
ATOM     27  F   UNL     1      -4.201  11.014  17.847  0.00  0.00    +0.000 F 
ATOM     28  C   UNL     1      -2.115  10.014  17.416  0.00  0.00    +0.000 A 
ATOM     29  C   UNL     1      -0.767   9.885  17.737  0.00  0.00    +0.000 A 
ATOM     30  F   UNL     1      -0.023   9.047  17.005  0.00  0.00    +0.000 F 
ENDBRANCH  19  22
ENDBRANCH   6  19
TORSDOF 4
ENDMDL
