MODEL 1
REMARK VINA RESULT:      -7.5      0.000      0.000
REMARK  Name = 
REMARK  5 active torsions:
REMARK  status: ('A' for Active; 'I' for Inactive)
REMARK    1  A    between atoms: C_1  and  C_2
REMARK    2  A    between atoms: C_7  and  C_8
REMARK    3  A    between atoms: C_8  and  O_9
REMARK    4  A    between atoms: C_8  and  C_10
REMARK    5  A    between atoms: C_8  and  C_17
REMARK                            x       y       z     vdW  Elec       q    Type
REMARK                         _______ _______ _______ _____ _____    ______ ____
ROOT
ATOM      1  C   UNL     1       3.765   5.438  18.652  0.00  0.00    +0.000 C 
ENDROOT
BRANCH   1   8
ATOM      2  C   UNL     1       4.482   2.653  19.944  0.00  0.00    +0.000 C 
ATOM      3  C   UNL     1       3.153   2.962  19.304  0.00  0.00    +0.000 A 
ATOM      4  C   UNL     1       2.201   1.929  19.278  0.00  0.00    +0.000 A 
ATOM      5  C   UNL     1       0.958   2.160  18.725  0.00  0.00    +0.000 A 
ATOM      6  N   UNL     1       0.589   3.342  18.203  0.00  0.00    +0.000 NA
ATOM      7  C   UNL     1       1.515   4.324  18.220  0.00  0.00    +0.000 A 
ATOM      8  C   UNL     1       2.825   4.209  18.720  0.00  0.00    +0.000 A 
ENDBRANCH   1   8
BRANCH   1   9
ATOM      9  C   UNL     1       4.821   5.296  17.521  0.00  0.00    +0.000 A 
ATOM     10  C   UNL     1       6.040   6.002  17.516  0.00  0.00    +0.000 A 
ATOM     11  C   UNL     1       6.917   5.917  16.427  0.00  0.00    +0.000 A 
ATOM     12  C   UNL     1       6.591   5.131  15.323  0.00  0.00    +0.000 A 
ATOM     13 CL   UNL     1       7.654   5.062  13.975  0.00  0.00    +0.000 Cl
ATOM     14  C   UNL     1       5.401   4.416  15.303  0.00  0.00    +0.000 A 
ATOM     15  C   UNL     1       4.529   4.491  16.393  0.00  0.00    +0.000 A 
ENDBRANCH   1   9
BRANCH   1  16
ATOM     16  C   UNL     1       3.005   6.757  18.632  0.00  0.00    +0.000 A 
ATOM     17  C   UNL     1       2.313   7.226  19.739  0.00  0.00    +0.000 A 
ATOM     18  N   UNL     1       1.623   8.386  19.777  0.00  0.00    +0.000 NA
ATOM     19  C   UNL     1       1.633   9.107  18.648  0.00  0.00    +0.000 A 
ATOM     20  N   UNL     1       2.289   8.787  17.525  0.00  0.00    +0.000 NA
ATOM     21  C   UNL     1       2.964   7.616  17.546  0.00  0.00    +0.000 A 
ENDBRANCH   1  16
BRANCH   1  22
ATOM     22  O   UNL     1       4.577   5.479  19.842  0.00  0.00    +0.000 OA
ATOM     23  H   UNL     1       4.969   6.365  19.895  0.00  0.00    +0.000 HD
ENDBRANCH   1  22
TORSDOF 4
ENDMDL
MODEL 2
REMARK VINA RESULT:      -7.4      1.358      1.907
REMARK  Name = 
REMARK  5 active torsions:
REMARK  status: ('A' for Active; 'I' for Inactive)
REMARK    1  A    between atoms: C_1  and  C_2
REMARK    2  A    between atoms: C_7  and  C_8
REMARK    3  A    between atoms: C_8  and  O_9
REMARK    4  A    between atoms: C_8  and  C_10
REMARK    5  A    between atoms: C_8  and  C_17
REMARK                            x       y       z     vdW  Elec       q    Type
REMARK                         _______ _______ _______ _____ _____    ______ ____
ROOT
ATOM      1  C   UNL     1       3.508   5.773  18.975  0.00  0.00    +0.000 C 
ENDROOT
BRANCH   1   8
ATOM      2  C   UNL     1       1.140   4.302  17.501  0.00  0.00    +0.000 C 
ATOM      3  C   UNL     1       1.584   3.978  18.905  0.00  0.00    +0.000 A 
ATOM      4  C   UNL     1       0.875   2.971  19.582  0.00  0.00    +0.000 A 
ATOM      5  C   UNL     1       1.251   2.614  20.861  0.00  0.00    +0.000 A 
ATOM      6  N   UNL     1       2.281   3.179  21.514  0.00  0.00    +0.000 NA
ATOM      7  C   UNL     1       2.946   4.156  20.861  0.00  0.00    +0.000 A 
ATOM      8  C   UNL     1       2.644   4.635  19.574  0.00  0.00    +0.000 A 
ENDBRANCH   1   8
BRANCH   1   9
ATOM      9  C   UNL     1       4.219   5.333  17.667  0.00  0.00    +0.000 A 
ATOM     10  C   UNL     1       4.571   3.996  17.397  0.00  0.00    +0.000 A 
ATOM     11  C   UNL     1       5.299   3.660  16.248  0.00  0.00    +0.000 A 
ATOM     12  C   UNL     1       5.694   4.652  15.353  0.00  0.00    +0.000 A 
ATOM     13 CL   UNL     1       6.621   4.238  13.966  0.00  0.00    +0.000 Cl
ATOM     14  C   UNL     1       5.355   5.978  15.587  0.00  0.00    +0.000 A 
ATOM     15  C   UNL     1       4.619   6.314  16.727  0.00  0.00    +0.000 A 
ENDBRANCH   1   9
BRANCH   1  16
ATOM     16  C   UNL     1       2.746   7.087  18.857  0.00  0.00    +0.000 A 
ATOM     17  C   UNL     1       2.028   7.620  19.917  0.00  0.00    +0.000 A 
ATOM     18  N   UNL     1       1.335   8.778  19.868  0.00  0.00    +0.000 NA
ATOM     19  C   UNL     1       1.371   9.429  18.698  0.00  0.00    +0.000 A 
ATOM     20  N   UNL     1       2.054   9.044  17.612  0.00  0.00    +0.000 NA
ATOM     21  C   UNL     1       2.729   7.878  17.721  0.00  0.00    +0.000 A 
ENDBRANCH   1  16
BRANCH   1  22
ATOM     22  O   UNL     1       4.610   6.047  19.862  0.00  0.00    +0.000 OA
ATOM     23  H   UNL     1       4.777   5.240  20.375  0.00  0.00    +0.000 HD
ENDBRANCH   1  22
TORSDOF 4
ENDMDL
MODEL 3
REMARK VINA RESULT:      -7.4      1.299      1.738
REMARK  Name = 
REMARK  5 active torsions:
REMARK  status: ('A' for Active; 'I' for Inactive)
REMARK    1  A    between atoms: C_1  and  C_2
REMARK    2  A    between atoms: C_7  and  C_8
REMARK    3  A    between atoms: C_8  and  O_9
REMARK    4  A    between atoms: C_8  and  C_10
REMARK    5  A    between atoms: C_8  and  C_17
REMARK                            x       y       z     vdW  Elec       q    Type
REMARK                         _______ _______ _______ _____ _____    ______ ____
ROOT
ATOM      1  C   UNL     1       3.615   5.725  18.921  0.00  0.00    +0.000 C 
ENDROOT
BRANCH   1   8
ATOM      2  C   UNL     1       1.204   4.406  17.376  0.00  0.00    +0.000 C 
ATOM      3  C   UNL     1       1.669   3.962  18.740  0.00  0.00    +0.000 A 
ATOM      4  C   UNL     1       0.960   2.911  19.345  0.00  0.00    +0.000 A 
ATOM      5  C   UNL     1       1.354   2.446  20.584  0.00  0.00    +0.000 A 
ATOM      6  N   UNL     1       2.402   2.944  21.261  0.00  0.00    +0.000 NA
ATOM      7  C   UNL     1       3.068   3.964  20.679  0.00  0.00    +0.000 A 
ATOM      8  C   UNL     1       2.749   4.551  19.440  0.00  0.00    +0.000 A 
ENDBRANCH   1   8
BRANCH   1   9
ATOM      9  C   UNL     1       4.395   5.344  17.634  0.00  0.00    +0.000 A 
ATOM     10  C   UNL     1       4.728   6.276  16.632  0.00  0.00    +0.000 A 
ATOM     11  C   UNL     1       5.346   5.867  15.443  0.00  0.00    +0.000 A 
ATOM     12  C   UNL     1       5.638   4.522  15.231  0.00  0.00    +0.000 A 
ATOM     13 CL   UNL     1       6.361   4.023  13.754  0.00  0.00    +0.000 Cl
ATOM     14  C   UNL     1       5.331   3.580  16.204  0.00  0.00    +0.000 A 
ATOM     15  C   UNL     1       4.724   3.987  17.395  0.00  0.00    +0.000 A 
ENDBRANCH   1   9
BRANCH   1  16
ATOM     16  C   UNL     1       2.833   7.027  18.812  0.00  0.00    +0.000 A 
ATOM     17  C   UNL     1       2.096   7.535  19.872  0.00  0.00    +0.000 A 
ATOM     18  N   UNL     1       1.384   8.683  19.830  0.00  0.00    +0.000 NA
ATOM     19  C   UNL     1       1.421   9.349  18.669  0.00  0.00    +0.000 A 
ATOM     20  N   UNL     1       2.121   8.988  17.585  0.00  0.00    +0.000 NA
ATOM     21  C   UNL     1       2.815   7.833  17.686  0.00  0.00    +0.000 A 
ENDBRANCH   1  16
BRANCH   1  22
ATOM     22  O   UNL     1       4.671   5.989  19.867  0.00  0.00    +0.000 OA
ATOM     23  H   UNL     1       5.461   6.232  19.360  0.00  0.00    +0.000 HD
ENDBRANCH   1  22
TORSDOF 4
ENDMDL
MODEL 4
REMARK VINA RESULT:      -7.4      0.034      1.003
REMARK  Name = 
REMARK  5 active torsions:
REMARK  status: ('A' for Active; 'I' for Inactive)
REMARK    1  A    between atoms: C_1  and  C_2
REMARK    2  A    between atoms: C_7  and  C_8
REMARK    3  A    between atoms: C_8  and  O_9
REMARK    4  A    between atoms: C_8  and  C_10
REMARK    5  A    between atoms: C_8  and  C_17
REMARK                            x       y       z     vdW  Elec       q    Type
REMARK                         _______ _______ _______ _____ _____    ______ ____
ROOT
ATOM      1  C   UNL     1       3.760   5.435  18.662  0.00  0.00    +0.000 C 
ENDROOT
BRANCH   1   8
ATOM      2  C   UNL     1       4.443   2.652  19.979  0.00  0.00    +0.000 C 
ATOM      3  C   UNL     1       3.125   2.966  19.318  0.00  0.00    +0.000 A 
ATOM      4  C   UNL     1       2.168   1.937  19.282  0.00  0.00    +0.000 A 
ATOM      5  C   UNL     1       0.934   2.172  18.710  0.00  0.00    +0.000 A 
ATOM      6  N   UNL     1       0.580   3.354  18.177  0.00  0.00    +0.000 NA
ATOM      7  C   UNL     1       1.511   4.331  18.202  0.00  0.00    +0.000 A 
ATOM      8  C   UNL     1       2.812   4.211  18.722  0.00  0.00    +0.000 A 
ENDBRANCH   1   8
BRANCH   1   9
ATOM      9  C   UNL     1       4.810   5.298  17.525  0.00  0.00    +0.000 A 
ATOM     10  C   UNL     1       6.028   6.004  17.516  0.00  0.00    +0.000 A 
ATOM     11  C   UNL     1       6.900   5.923  16.422  0.00  0.00    +0.000 A 
ATOM     12  C   UNL     1       6.568   5.141  15.317  0.00  0.00    +0.000 A 
ATOM     13 CL   UNL     1       7.624   5.078  13.963  0.00  0.00    +0.000 Cl
ATOM     14  C   UNL     1       5.378   4.426  15.301  0.00  0.00    +0.000 A 
ATOM     15  C   UNL     1       4.512   4.497  16.395  0.00  0.00    +0.000 A 
ENDBRANCH   1   9
BRANCH   1  16
ATOM     16  C   UNL     1       3.008   6.759  18.659  0.00  0.00    +0.000 A 
ATOM     17  C   UNL     1       2.972   7.584  17.544  0.00  0.00    +0.000 A 
ATOM     18  N   UNL     1       2.322   8.767  17.487  0.00  0.00    +0.000 NA
ATOM     19  C   UNL     1       1.679   9.132  18.603  0.00  0.00    +0.000 A 
ATOM     20  N   UNL     1       1.605   8.413  19.731  0.00  0.00    +0.000 NA
ATOM     21  C   UNL     1       2.272   7.239  19.729  0.00  0.00    +0.000 A 
ENDBRANCH   1  16
BRANCH   1  22
ATOM     22  O   UNL     1       4.577   5.459  19.849  0.00  0.00    +0.000 OA
ATOM     23  H   UNL     1       5.478   5.212  19.586  0.00  0.00    +0.000 HD
ENDBRANCH   1  22
TORSDOF 4
ENDMDL
MODEL 5
REMARK VINA RESULT:      -7.4      1.310      2.129
REMARK  Name = 
REMARK  5 active torsions:
REMARK  status: ('A' for Active; 'I' for Inactive)
REMARK    1  A    between atoms: C_1  and  C_2
REMARK    2  A    between atoms: C_7  and  C_8
REMARK    3  A    between atoms: C_8  and  O_9
REMARK    4  A    between atoms: C_8  and  C_10
REMARK    5  A    between atoms: C_8  and  C_17
REMARK                            x       y       z     vdW  Elec       q    Type
REMARK                         _______ _______ _______ _____ _____    ______ ____
ROOT
ATOM      1  C   UNL     1       3.538   5.713  18.954  0.00  0.00    +0.000 C 
ENDROOT
BRANCH   1   8
ATOM      2  C   UNL     1       1.133   4.328  17.457  0.00  0.00    +0.000 C 
ATOM      3  C   UNL     1       1.593   3.943  18.840  0.00  0.00    +0.000 A 
ATOM      4  C   UNL     1       0.881   2.919  19.487  0.00  0.00    +0.000 A 
ATOM      5  C   UNL     1       1.269   2.508  20.746  0.00  0.00    +0.000 A 
ATOM      6  N   UNL     1       2.315   3.035  21.406  0.00  0.00    +0.000 NA
ATOM      7  C   UNL     1       2.983   4.029  20.783  0.00  0.00    +0.000 A 
ATOM      8  C   UNL     1       2.669   4.562  19.520  0.00  0.00    +0.000 A 
ENDBRANCH   1   8
BRANCH   1   9
ATOM      9  C   UNL     1       4.250   5.306  17.636  0.00  0.00    +0.000 A 
ATOM     10  C   UNL     1       4.624   3.981  17.342  0.00  0.00    +0.000 A 
ATOM     11  C   UNL     1       5.352   3.676  16.184  0.00  0.00    +0.000 A 
ATOM     12  C   UNL     1       5.723   4.690  15.302  0.00  0.00    +0.000 A 
ATOM     13 CL   UNL     1       6.649   4.314  13.904  0.00  0.00    +0.000 Cl
ATOM     14  C   UNL     1       5.361   6.005  15.560  0.00  0.00    +0.000 A 
ATOM     15  C   UNL     1       4.626   6.309  16.709  0.00  0.00    +0.000 A 
ENDBRANCH   1   9
BRANCH   1  16
ATOM     16  C   UNL     1       2.782   7.032  18.873  0.00  0.00    +0.000 A 
ATOM     17  C   UNL     1       2.745   7.790  17.712  0.00  0.00    +0.000 A 
ATOM     18  N   UNL     1       2.092   8.965  17.584  0.00  0.00    +0.000 NA
ATOM     19  C   UNL     1       1.445   9.394  18.676  0.00  0.00    +0.000 A 
ATOM     20  N   UNL     1       1.371   8.742  19.844  0.00  0.00    +0.000 NA
ATOM     21  C   UNL     1       2.043   7.571  19.912  0.00  0.00    +0.000 A 
ENDBRANCH   1  16
BRANCH   1  22
ATOM     22  O   UNL     1       4.641   5.957  19.850  0.00  0.00    +0.000 OA
ATOM     23  H   UNL     1       5.269   6.535  19.388  0.00  0.00    +0.000 HD
ENDBRANCH   1  22
TORSDOF 4
ENDMDL
MODEL 6
REMARK VINA RESULT:      -7.3      1.342      2.029
REMARK  Name = 
REMARK  5 active torsions:
REMARK  status: ('A' for Active; 'I' for Inactive)
REMARK    1  A    between atoms: C_1  and  C_2
REMARK    2  A    between atoms: C_7  and  C_8
REMARK    3  A    between atoms: C_8  and  O_9
REMARK    4  A    between atoms: C_8  and  C_10
REMARK    5  A    between atoms: C_8  and  C_17
REMARK                            x       y       z     vdW  Elec       q    Type
REMARK                         _______ _______ _______ _____ _____    ______ ____
ROOT
ATOM      1  C   UNL     1       3.568   5.765  18.984  0.00  0.00    +0.000 C 
ENDROOT
BRANCH   1   8
ATOM      2  C   UNL     1       1.193   4.400  17.422  0.00  0.00    +0.000 C 
ATOM      3  C   UNL     1       1.630   3.992  18.806  0.00  0.00    +0.000 A 
ATOM      4  C   UNL     1       0.911   2.954  19.423  0.00  0.00    +0.000 A 
ATOM      5  C   UNL     1       1.280   2.522  20.681  0.00  0.00    +0.000 A 
ATOM      6  N   UNL     1       2.313   3.040  21.367  0.00  0.00    +0.000 NA
ATOM      7  C   UNL     1       2.988   4.047  20.773  0.00  0.00    +0.000 A 
ATOM      8  C   UNL     1       2.693   4.601  19.514  0.00  0.00    +0.000 A 
ENDBRANCH   1   8
BRANCH   1   9
ATOM      9  C   UNL     1       4.340   5.368  17.696  0.00  0.00    +0.000 A 
ATOM     10  C   UNL     1       4.701   6.296  16.700  0.00  0.00    +0.000 A 
ATOM     11  C   UNL     1       5.310   5.876  15.510  0.00  0.00    +0.000 A 
ATOM     12  C   UNL     1       5.563   4.523  15.291  0.00  0.00    +0.000 A 
ATOM     13 CL   UNL     1       6.275   4.012  13.813  0.00  0.00    +0.000 Cl
ATOM     14  C   UNL     1       5.227   3.586  16.258  0.00  0.00    +0.000 A 
ATOM     15  C   UNL     1       4.630   4.003  17.450  0.00  0.00    +0.000 A 
ENDBRANCH   1   9
BRANCH   1  16
ATOM     16  C   UNL     1       2.797   7.073  18.870  0.00  0.00    +0.000 A 
ATOM     17  C   UNL     1       2.780   7.819  17.701  0.00  0.00    +0.000 A 
ATOM     18  N   UNL     1       2.115   8.984  17.545  0.00  0.00    +0.000 NA
ATOM     19  C   UNL     1       1.434   9.414  18.615  0.00  0.00    +0.000 A 
ATOM     20  N   UNL     1       1.339   8.772  19.787  0.00  0.00    +0.000 NA
ATOM     21  C   UNL     1       2.023   7.612  19.884  0.00  0.00    +0.000 A 
ENDBRANCH   1  16
BRANCH   1  22
ATOM     22  O   UNL     1       4.629   6.025  19.924  0.00  0.00    +0.000 OA
ATOM     23  H   UNL     1       5.088   5.185  20.084  0.00  0.00    +0.000 HD
ENDBRANCH   1  22
TORSDOF 4
ENDMDL
MODEL 7
REMARK VINA RESULT:      -7.3      0.147      1.039
REMARK  Name = 
REMARK  5 active torsions:
REMARK  status: ('A' for Active; 'I' for Inactive)
REMARK    1  A    between atoms: C_1  and  C_2
REMARK    2  A    between atoms: C_7  and  C_8
REMARK    3  A    between atoms: C_8  and  O_9
REMARK    4  A    between atoms: C_8  and  C_10
REMARK    5  A    between atoms: C_8  and  C_17
REMARK                            x       y       z     vdW  Elec       q    Type
REMARK                         _______ _______ _______ _____ _____    ______ ____
ROOT
ATOM      1  C   UNL     1       3.718   5.529  18.547  0.00  0.00    +0.000 C 
ENDROOT
BRANCH   1   8
ATOM      2  C   UNL     1       4.525   2.764  19.831  0.00  0.00    +0.000 C 
ATOM      3  C   UNL     1       3.175   3.044  19.223  0.00  0.00    +0.000 A 
ATOM      4  C   UNL     1       2.245   1.990  19.223  0.00  0.00    +0.000 A 
ATOM      5  C   UNL     1       0.983   2.193  18.700  0.00  0.00    +0.000 A 
ATOM      6  N   UNL     1       0.577   3.366  18.184  0.00  0.00    +0.000 NA
ATOM      7  C   UNL     1       1.482   4.367  18.174  0.00  0.00    +0.000 A 
ATOM      8  C   UNL     1       2.806   4.280  18.643  0.00  0.00    +0.000 A 
ENDBRANCH   1   8
BRANCH   1   9
ATOM      9  C   UNL     1       4.703   5.435  17.350  0.00  0.00    +0.000 A 
ATOM     10  C   UNL     1       4.464   4.629  16.220  0.00  0.00    +0.000 A 
ATOM     11  C   UNL     1       5.426   4.501  15.210  0.00  0.00    +0.000 A 
ATOM     12  C   UNL     1       6.644   5.170  15.311  0.00  0.00    +0.000 A 
ATOM     13 CL   UNL     1       7.834   4.976  14.087  0.00  0.00    +0.000 Cl
ATOM     14  C   UNL     1       6.905   5.979  16.409  0.00  0.00    +0.000 A 
ATOM     15  C   UNL     1       5.943   6.117  17.413  0.00  0.00    +0.000 A 
ENDBRANCH   1   9
BRANCH   1  16
ATOM     16  C   UNL     1       2.935   6.833  18.609  0.00  0.00    +0.000 A 
ATOM     17  C   UNL     1       2.284   7.248  19.761  0.00  0.00    +0.000 A 
ATOM     18  N   UNL     1       1.575   8.393  19.871  0.00  0.00    +0.000 NA
ATOM     19  C   UNL     1       1.525   9.155  18.770  0.00  0.00    +0.000 A 
ATOM     20  N   UNL     1       2.138   8.889  17.609  0.00  0.00    +0.000 NA
ATOM     21  C   UNL     1       2.833   7.731  17.559  0.00  0.00    +0.000 A 
ENDBRANCH   1  16
BRANCH   1  22
ATOM     22  O   UNL     1       4.602   5.557  19.685  0.00  0.00    +0.000 OA
ATOM     23  H   UNL     1       4.391   6.353  20.198  0.00  0.00    +0.000 HD
ENDBRANCH   1  22
TORSDOF 4
ENDMDL
MODEL 8
REMARK VINA RESULT:      -7.2      0.125      1.441
REMARK  Name = 
REMARK  5 active torsions:
REMARK  status: ('A' for Active; 'I' for Inactive)
REMARK    1  A    between atoms: C_1  and  C_2
REMARK    2  A    between atoms: C_7  and  C_8
REMARK    3  A    between atoms: C_8  and  O_9
REMARK    4  A    between atoms: C_8  and  C_10
REMARK    5  A    between atoms: C_8  and  C_17
REMARK                            x       y       z     vdW  Elec       q    Type
REMARK                         _______ _______ _______ _____ _____    ______ ____
ROOT
ATOM      1  C   UNL     1       3.730   5.504  18.562  0.00  0.00    +0.000 C 
ENDROOT
BRANCH   1   8
ATOM      2  C   UNL     1       4.526   2.741  19.855  0.00  0.00    +0.000 C 
ATOM      3  C   UNL     1       3.177   3.023  19.243  0.00  0.00    +0.000 A 
ATOM      4  C   UNL     1       2.244   1.972  19.245  0.00  0.00    +0.000 A 
ATOM      5  C   UNL     1       0.984   2.178  18.719  0.00  0.00    +0.000 A 
ATOM      6  N   UNL     1       0.583   3.350  18.199  0.00  0.00    +0.000 NA
ATOM      7  C   UNL     1       1.491   4.349  18.188  0.00  0.00    +0.000 A 
ATOM      8  C   UNL     1       2.814   4.259  18.659  0.00  0.00    +0.000 A 
ENDBRANCH   1   8
BRANCH   1   9
ATOM      9  C   UNL     1       4.700   5.416  17.353  0.00  0.00    +0.000 A 
ATOM     10  C   UNL     1       4.461   4.593  16.234  0.00  0.00    +0.000 A 
ATOM     11  C   UNL     1       5.411   4.471  15.213  0.00  0.00    +0.000 A 
ATOM     12  C   UNL     1       6.619   5.162  15.291  0.00  0.00    +0.000 A 
ATOM     13 CL   UNL     1       7.796   4.977  14.053  0.00  0.00    +0.000 Cl
ATOM     14  C   UNL     1       6.880   5.988  16.376  0.00  0.00    +0.000 A 
ATOM     15  C   UNL     1       5.928   6.120  17.391  0.00  0.00    +0.000 A 
ENDBRANCH   1   9
BRANCH   1  16
ATOM     16  C   UNL     1       2.954   6.812  18.642  0.00  0.00    +0.000 A 
ATOM     17  C   UNL     1       2.835   7.667  17.557  0.00  0.00    +0.000 A 
ATOM     18  N   UNL     1       2.160   8.837  17.573  0.00  0.00    +0.000 NA
ATOM     19  C   UNL     1       1.576   9.156  18.736  0.00  0.00    +0.000 A 
ATOM     20  N   UNL     1       1.583   8.404  19.844  0.00  0.00    +0.000 NA
ATOM     21  C   UNL     1       2.272   7.244  19.768  0.00  0.00    +0.000 A 
ENDBRANCH   1  16
BRANCH   1  22
ATOM     22  O   UNL     1       4.628   5.520  19.690  0.00  0.00    +0.000 OA
ATOM     23  H   UNL     1       4.752   4.601  19.975  0.00  0.00    +0.000 HD
ENDBRANCH   1  22
TORSDOF 4
ENDMDL
MODEL 9
REMARK VINA RESULT:      -7.1      3.256      4.940
REMARK  Name = 
REMARK  5 active torsions:
REMARK  status: ('A' for Active; 'I' for Inactive)
REMARK    1  A    between atoms: C_1  and  C_2
REMARK    2  A    between atoms: C_7  and  C_8
REMARK    3  A    between atoms: C_8  and  O_9
REMARK    4  A    between atoms: C_8  and  C_10
REMARK    5  A    between atoms: C_8  and  C_17
REMARK                            x       y       z     vdW  Elec       q    Type
REMARK                         _______ _______ _______ _____ _____    ______ ____
ROOT
ATOM      1  C   UNL     1       3.788   6.086  17.807  0.00  0.00    +0.000 C 
ENDROOT
BRANCH   1   8
ATOM      2  C   UNL     1       4.782   3.446  16.397  0.00  0.00    +0.000 C 
ATOM      3  C   UNL     1       3.555   3.520  17.269  0.00  0.00    +0.000 A 
ATOM      4  C   UNL     1       2.817   2.335  17.434  0.00  0.00    +0.000 A 
ATOM      5  C   UNL     1       1.697   2.335  18.240  0.00  0.00    +0.000 A 
ATOM      6  N   UNL     1       1.260   3.422  18.898  0.00  0.00    +0.000 NA
ATOM      7  C   UNL     1       1.966   4.559  18.722  0.00  0.00    +0.000 A 
ATOM      8  C   UNL     1       3.101   4.700  17.903  0.00  0.00    +0.000 A 
ENDBRANCH   1   8
BRANCH   1   9
ATOM      9  C   UNL     1       2.937   7.201  18.473  0.00  0.00    +0.000 A 
ATOM     10  C   UNL     1       2.493   7.136  19.808  0.00  0.00    +0.000 A 
ATOM     11  C   UNL     1       1.646   8.118  20.335  0.00  0.00    +0.000 A 
ATOM     12  C   UNL     1       1.221   9.180  19.538  0.00  0.00    +0.000 A 
ATOM     13 CL   UNL     1       0.151  10.360  20.181  0.00  0.00    +0.000 Cl
ATOM     14  C   UNL     1       1.649   9.277  18.221  0.00  0.00    +0.000 A 
ATOM     15  C   UNL     1       2.503   8.303  17.696  0.00  0.00    +0.000 A 
ENDBRANCH   1   9
BRANCH   1  16
ATOM     16  C   UNL     1       5.240   6.053  18.265  0.00  0.00    +0.000 A 
ATOM     17  C   UNL     1       6.239   6.748  17.600  0.00  0.00    +0.000 A 
ATOM     18  N   UNL     1       7.540   6.754  17.962  0.00  0.00    +0.000 NA
ATOM     19  C   UNL     1       7.846   6.028  19.045  0.00  0.00    +0.000 A 
ATOM     20  N   UNL     1       6.974   5.344  19.797  0.00  0.00    +0.000 NA
ATOM     21  C   UNL     1       5.687   5.376  19.388  0.00  0.00    +0.000 A 
ENDBRANCH   1  16
BRANCH   1  22
ATOM     22  O   UNL     1       3.830   6.498  16.426  0.00  0.00    +0.000 OA
ATOM     23  H   UNL     1       3.094   7.114  16.285  0.00  0.00    +0.000 HD
ENDBRANCH   1  22
TORSDOF 4
ENDMDL
