MODEL 1
REMARK VINA RESULT:      -8.2      0.000      0.000
REMARK  Name = 
REMARK  4 active torsions:
REMARK  status: ('A' for Active; 'I' for Inactive)
REMARK    1  A    between atoms: C_2  and  C_3
REMARK    2  A    between atoms: C_16  and  C_17
REMARK    3  A    between atoms: C_17  and  O_18
REMARK    4  A    between atoms: O_18  and  C_19
REMARK                            x       y       z     vdW  Elec       q    Type
REMARK                         _______ _______ _______ _____ _____    ______ ____
ROOT
ATOM      1  O   UNL     1       3.114   4.448  20.007  0.00  0.00    +0.000 OA
ATOM      2  C   UNL     1       3.378   5.211  19.074  0.00  0.00    +0.000 C 
ATOM      3  N   UNL     1       2.743   6.473  18.948  0.00  0.00    +0.000 N 
ATOM      4  C   UNL     1       3.144   7.449  17.936  0.00  0.00    +0.000 C 
ATOM      5  C   UNL     1       2.265   8.655  17.720  0.00  0.00    +0.000 C 
ATOM      6  N   UNL     1       1.543   9.017  18.898  0.00  0.00    +0.000 N 
ATOM      7  N   UNL     1       0.821  10.140  18.889  0.00  0.00    +0.000 NA
ATOM      8  C   UNL     1       0.277  10.175  20.108  0.00  0.00    +0.000 A 
ATOM      9  C   UNL     1       0.638   9.028  20.868  0.00  0.00    +0.000 A 
ATOM     10  C   UNL     1       1.448   8.281  20.030  0.00  0.00    +0.000 A 
ATOM     11  C   UNL     1       2.175   6.990  20.206  0.00  0.00    +0.000 C 
ENDROOT
BRANCH   2  12
ATOM     12  C   UNL     1       4.523   4.812  18.178  0.00  0.00    +0.000 A 
ATOM     13  C   UNL     1       4.389   4.376  16.859  0.00  0.00    +0.000 A 
ATOM     14  C   UNL     1       5.500   4.288  16.024  0.00  0.00    +0.000 A 
ATOM     15  F   UNL     1       5.316   4.039  14.722  0.00  0.00    +0.000 F 
ATOM     16  C   UNL     1       6.779   4.471  16.515  0.00  0.00    +0.000 A 
ATOM     17  C   UNL     1       6.928   4.739  17.867  0.00  0.00    +0.000 A 
ATOM     18  F   UNL     1       8.161   4.844  18.377  0.00  0.00    +0.000 F 
ATOM     19  C   UNL     1       5.822   4.930  18.696  0.00  0.00    +0.000 A 
ENDBRANCH   2  12
BRANCH   8  20
ATOM     20  C   UNL     1      -0.566  11.343  20.494  0.00  0.00    +0.000 C 
BRANCH  20  21
ATOM     21  O   UNL     1      -0.932  12.081  19.328  0.00  0.00    +0.000 OA
BRANCH  21  22
ATOM     22  C   UNL     1      -2.228  11.948  18.918  0.00  0.00    +0.000 A 
ATOM     23  C   UNL     1      -2.383  11.342  17.674  0.00  0.00    +0.000 A 
ATOM     24  C   UNL     1      -3.655  11.148  17.137  0.00  0.00    +0.000 A 
ATOM     25  C   UNL     1      -4.779  11.543  17.859  0.00  0.00    +0.000 A 
ATOM     26  C   UNL     1      -4.629  12.124  19.114  0.00  0.00    +0.000 A 
ATOM     27  C   UNL     1      -3.352  12.324  19.652  0.00  0.00    +0.000 A 
ENDBRANCH  21  22
ENDBRANCH  20  21
ENDBRANCH   8  20
TORSDOF 4
ENDMDL
MODEL 2
REMARK VINA RESULT:      -8.2      2.076      2.751
REMARK  Name = 
REMARK  4 active torsions:
REMARK  status: ('A' for Active; 'I' for Inactive)
REMARK    1  A    between atoms: C_2  and  C_3
REMARK    2  A    between atoms: C_16  and  C_17
REMARK    3  A    between atoms: C_17  and  O_18
REMARK    4  A    between atoms: O_18  and  C_19
REMARK                            x       y       z     vdW  Elec       q    Type
REMARK                         _______ _______ _______ _____ _____    ______ ____
ROOT
ATOM      1  O   UNL     1       3.125   4.353  20.022  0.00  0.00    +0.000 OA
ATOM      2  C   UNL     1       3.363   5.134  19.097  0.00  0.00    +0.000 C 
ATOM      3  N   UNL     1       2.746   6.409  19.028  0.00  0.00    +0.000 N 
ATOM      4  C   UNL     1       3.121   7.402  18.023  0.00  0.00    +0.000 C 
ATOM      5  C   UNL     1       2.255   8.628  17.873  0.00  0.00    +0.000 C 
ATOM      6  N   UNL     1       1.591   8.974  19.090  0.00  0.00    +0.000 N 
ATOM      7  N   UNL     1       0.891  10.109  19.138  0.00  0.00    +0.000 NA
ATOM      8  C   UNL     1       0.400  10.125  20.381  0.00  0.00    +0.000 A 
ATOM      9  C   UNL     1       0.773   8.953  21.096  0.00  0.00    +0.000 A 
ATOM     10  C   UNL     1       1.531   8.213  20.207  0.00  0.00    +0.000 A 
ATOM     11  C   UNL     1       2.242   6.906  20.321  0.00  0.00    +0.000 C 
ENDROOT
BRANCH   2  12
ATOM     12  C   UNL     1       4.461   4.737  18.143  0.00  0.00    +0.000 A 
ATOM     13  C   UNL     1       4.264   4.361  16.813  0.00  0.00    +0.000 A 
ATOM     14  C   UNL     1       5.341   4.273  15.935  0.00  0.00    +0.000 A 
ATOM     15  F   UNL     1       5.102   4.086  14.631  0.00  0.00    +0.000 F 
ATOM     16  C   UNL     1       6.642   4.395  16.384  0.00  0.00    +0.000 A 
ATOM     17  C   UNL     1       6.849   4.601  17.739  0.00  0.00    +0.000 A 
ATOM     18  F   UNL     1       8.103   4.646  18.207  0.00  0.00    +0.000 F 
ATOM     19  C   UNL     1       5.780   4.792  18.616  0.00  0.00    +0.000 A 
ENDBRANCH   2  12
BRANCH   8  20
ATOM     20  C   UNL     1      -0.404  11.297  20.830  0.00  0.00    +0.000 C 
BRANCH  20  21
ATOM     21  O   UNL     1      -0.264  11.467  22.241  0.00  0.00    +0.000 OA
BRANCH  21  22
ATOM     22  C   UNL     1      -1.155  12.315  22.833  0.00  0.00    +0.000 A 
ATOM     23  C   UNL     1      -2.348  11.716  23.230  0.00  0.00    +0.000 A 
ATOM     24  C   UNL     1      -3.346  12.470  23.845  0.00  0.00    +0.000 A 
ATOM     25  C   UNL     1      -3.141  13.827  24.084  0.00  0.00    +0.000 A 
ATOM     26  C   UNL     1      -1.940  14.423  23.713  0.00  0.00    +0.000 A 
ATOM     27  C   UNL     1      -0.939  13.668  23.091  0.00  0.00    +0.000 A 
ENDBRANCH  21  22
ENDBRANCH  20  21
ENDBRANCH   8  20
TORSDOF 4
ENDMDL
MODEL 3
REMARK VINA RESULT:      -8.2      0.540      1.080
REMARK  Name = 
REMARK  4 active torsions:
REMARK  status: ('A' for Active; 'I' for Inactive)
REMARK    1  A    between atoms: C_2  and  C_3
REMARK    2  A    between atoms: C_16  and  C_17
REMARK    3  A    between atoms: C_17  and  O_18
REMARK    4  A    between atoms: O_18  and  C_19
REMARK                            x       y       z     vdW  Elec       q    Type
REMARK                         _______ _______ _______ _____ _____    ______ ____
ROOT
ATOM      1  O   UNL     1       3.245   4.033  19.563  0.00  0.00    +0.000 OA
ATOM      2  C   UNL     1       3.541   4.878  18.713  0.00  0.00    +0.000 C 
ATOM      3  N   UNL     1       2.948   6.166  18.712  0.00  0.00    +0.000 N 
ATOM      4  C   UNL     1       3.389   7.225  17.806  0.00  0.00    +0.000 C 
ATOM      5  C   UNL     1       2.549   8.475  17.707  0.00  0.00    +0.000 C 
ATOM      6  N   UNL     1       1.829   8.739  18.912  0.00  0.00    +0.000 N 
ATOM      7  N   UNL     1       1.143   9.880  19.012  0.00  0.00    +0.000 NA
ATOM      8  C   UNL     1       0.588   9.810  20.225  0.00  0.00    +0.000 A 
ATOM      9  C   UNL     1       0.906   8.581  20.867  0.00  0.00    +0.000 A 
ATOM     10  C   UNL     1       1.700   7.897  19.963  0.00  0.00    +0.000 A 
ATOM     11  C   UNL     1       2.384   6.572  20.012  0.00  0.00    +0.000 C 
ENDROOT
BRANCH   2  12
ATOM     12  C   UNL     1       4.681   4.534  17.789  0.00  0.00    +0.000 A 
ATOM     13  C   UNL     1       4.542   4.204  16.439  0.00  0.00    +0.000 A 
ATOM     14  C   UNL     1       5.652   4.166  15.601  0.00  0.00    +0.000 A 
ATOM     15  F   UNL     1       5.466   4.022  14.283  0.00  0.00    +0.000 F 
ATOM     16  C   UNL     1       6.933   4.293  16.104  0.00  0.00    +0.000 A 
ATOM     17  C   UNL     1       7.085   4.453  17.472  0.00  0.00    +0.000 A 
ATOM     18  F   UNL     1       8.319   4.502  17.989  0.00  0.00    +0.000 F 
ATOM     19  C   UNL     1       5.981   4.594  18.314  0.00  0.00    +0.000 A 
ENDBRANCH   2  12
BRANCH   8  20
ATOM     20  C   UNL     1      -0.220  10.960  20.722  0.00  0.00    +0.000 C 
BRANCH  20  21
ATOM     21  O   UNL     1      -0.570  11.813  19.631  0.00  0.00    +0.000 OA
BRANCH  21  22
ATOM     22  C   UNL     1      -1.891  11.837  19.290  0.00  0.00    +0.000 A 
ATOM     23  C   UNL     1      -2.716  12.474  20.213  0.00  0.00    +0.000 A 
ATOM     24  C   UNL     1      -4.089  12.567  19.988  0.00  0.00    +0.000 A 
ATOM     25  C   UNL     1      -4.636  12.037  18.822  0.00  0.00    +0.000 A 
ATOM     26  C   UNL     1      -3.812  11.423  17.884  0.00  0.00    +0.000 A 
ATOM     27  C   UNL     1      -2.434  11.326  18.112  0.00  0.00    +0.000 A 
ENDBRANCH  21  22
ENDBRANCH  20  21
ENDBRANCH   8  20
TORSDOF 4
ENDMDL
MODEL 4
REMARK VINA RESULT:      -8.1      2.039      3.218
REMARK  Name = 
REMARK  4 active torsions:
REMARK  status: ('A' for Active; 'I' for Inactive)
REMARK    1  A    between atoms: C_2  and  C_3
REMARK    2  A    between atoms: C_16  and  C_17
REMARK    3  A    between atoms: C_17  and  O_18
REMARK    4  A    between atoms: O_18  and  C_19
REMARK                            x       y       z     vdW  Elec       q    Type
REMARK                         _______ _______ _______ _____ _____    ______ ____
ROOT
ATOM      1  O   UNL     1       3.315   4.672  20.021  0.00  0.00    +0.000 OA
ATOM      2  C   UNL     1       3.478   5.491  19.112  0.00  0.00    +0.000 C 
ATOM      3  N   UNL     1       2.742   6.703  19.069  0.00  0.00    +0.000 N 
ATOM      4  C   UNL     1       3.021   7.748  18.085  0.00  0.00    +0.000 C 
ATOM      5  C   UNL     1       2.042   8.889  17.959  0.00  0.00    +0.000 C 
ATOM      6  N   UNL     1       1.349   9.144  19.181  0.00  0.00    +0.000 N 
ATOM      7  N   UNL     1       0.544  10.207  19.251  0.00  0.00    +0.000 NA
ATOM      8  C   UNL     1       0.054  10.150  20.493  0.00  0.00    +0.000 A 
ATOM      9  C   UNL     1       0.536   9.005  21.185  0.00  0.00    +0.000 A 
ATOM     10  C   UNL     1       1.362   8.358  20.283  0.00  0.00    +0.000 A 
ATOM     11  C   UNL     1       2.193   7.123  20.371  0.00  0.00    +0.000 C 
ENDROOT
BRANCH   2  12
ATOM     12  C   UNL     1       4.608   5.220  18.153  0.00  0.00    +0.000 A 
ATOM     13  C   UNL     1       5.963   5.236  18.492  0.00  0.00    +0.000 A 
ATOM     14  C   UNL     1       6.917   4.714  17.623  0.00  0.00    +0.000 A 
ATOM     15  F   UNL     1       8.179   4.582  18.048  0.00  0.00    +0.000 F 
ATOM     16  C   UNL     1       6.577   4.315  16.344  0.00  0.00    +0.000 A 
ATOM     17  C   UNL     1       5.258   4.456  15.944  0.00  0.00    +0.000 A 
ATOM     18  F   UNL     1       4.922   4.147  14.685  0.00  0.00    +0.000 F 
ATOM     19  C   UNL     1       4.271   4.882  16.834  0.00  0.00    +0.000 A 
ENDBRANCH   2  12
BRANCH   8  20
ATOM     20  C   UNL     1      -0.857  11.232  20.965  0.00  0.00    +0.000 C 
BRANCH  20  21
ATOM     21  O   UNL     1      -0.493  11.628  22.288  0.00  0.00    +0.000 OA
BRANCH  21  22
ATOM     22  C   UNL     1      -1.368  12.461  22.925  0.00  0.00    +0.000 A 
ATOM     23  C   UNL     1      -2.584  11.874  23.265  0.00  0.00    +0.000 A 
ATOM     24  C   UNL     1      -3.568  12.615  23.917  0.00  0.00    +0.000 A 
ATOM     25  C   UNL     1      -3.325  13.946  24.250  0.00  0.00    +0.000 A 
ATOM     26  C   UNL     1      -2.101  14.527  23.937  0.00  0.00    +0.000 A 
ATOM     27  C   UNL     1      -1.114  13.785  23.278  0.00  0.00    +0.000 A 
ENDBRANCH  21  22
ENDBRANCH  20  21
ENDBRANCH   8  20
TORSDOF 4
ENDMDL
MODEL 5
REMARK VINA RESULT:      -8.1      0.413      1.617
REMARK  Name = 
REMARK  4 active torsions:
REMARK  status: ('A' for Active; 'I' for Inactive)
REMARK    1  A    between atoms: C_2  and  C_3
REMARK    2  A    between atoms: C_16  and  C_17
REMARK    3  A    between atoms: C_17  and  O_18
REMARK    4  A    between atoms: O_18  and  C_19
REMARK                            x       y       z     vdW  Elec       q    Type
REMARK                         _______ _______ _______ _____ _____    ______ ____
ROOT
ATOM      1  O   UNL     1       3.305   4.551  19.668  0.00  0.00    +0.000 OA
ATOM      2  C   UNL     1       3.528   5.408  18.808  0.00  0.00    +0.000 C 
ATOM      3  N   UNL     1       2.836   6.646  18.802  0.00  0.00    +0.000 N 
ATOM      4  C   UNL     1       3.186   7.728  17.883  0.00  0.00    +0.000 C 
ATOM      5  C   UNL     1       2.251   8.908  17.781  0.00  0.00    +0.000 C 
ATOM      6  N   UNL     1       1.523   9.126  18.990  0.00  0.00    +0.000 N 
ATOM      7  N   UNL     1       0.752  10.212  19.087  0.00  0.00    +0.000 NA
ATOM      8  C   UNL     1       0.215  10.110  20.306  0.00  0.00    +0.000 A 
ATOM      9  C   UNL     1       0.633   8.915  20.955  0.00  0.00    +0.000 A 
ATOM     10  C   UNL     1       1.469   8.286  20.050  0.00  0.00    +0.000 A 
ATOM     11  C   UNL     1       2.254   7.019  20.103  0.00  0.00    +0.000 C 
ENDROOT
BRANCH   2  12
ATOM     12  C   UNL     1       4.683   5.145  17.876  0.00  0.00    +0.000 A 
ATOM     13  C   UNL     1       6.023   5.079  18.265  0.00  0.00    +0.000 A 
ATOM     14  C   UNL     1       6.988   4.569  17.401  0.00  0.00    +0.000 A 
ATOM     15  F   UNL     1       8.225   4.355  17.864  0.00  0.00    +0.000 F 
ATOM     16  C   UNL     1       6.683   4.266  16.088  0.00  0.00    +0.000 A 
ATOM     17  C   UNL     1       5.387   4.489  15.649  0.00  0.00    +0.000 A 
ATOM     18  F   UNL     1       5.089   4.274  14.362  0.00  0.00    +0.000 F 
ATOM     19  C   UNL     1       4.384   4.905  16.527  0.00  0.00    +0.000 A 
ENDBRANCH   2  12
BRANCH   8  20
ATOM     20  C   UNL     1      -0.676  11.198  20.801  0.00  0.00    +0.000 C 
BRANCH  20  21
ATOM     21  O   UNL     1      -1.016  12.073  19.724  0.00  0.00    +0.000 OA
BRANCH  21  22
ATOM     22  C   UNL     1      -2.320  12.045  19.319  0.00  0.00    +0.000 A 
ATOM     23  C   UNL     1      -2.534  11.412  18.097  0.00  0.00    +0.000 A 
ATOM     24  C   UNL     1      -3.819  11.316  17.567  0.00  0.00    +0.000 A 
ATOM     25  C   UNL     1      -4.900  11.839  18.274  0.00  0.00    +0.000 A 
ATOM     26  C   UNL     1      -4.694  12.447  19.508  0.00  0.00    +0.000 A 
ATOM     27  C   UNL     1      -3.403  12.548  20.039  0.00  0.00    +0.000 A 
ENDBRANCH  21  22
ENDBRANCH  20  21
ENDBRANCH   8  20
TORSDOF 4
ENDMDL
MODEL 6
REMARK VINA RESULT:      -7.9      1.551      2.117
REMARK  Name = 
REMARK  4 active torsions:
REMARK  status: ('A' for Active; 'I' for Inactive)
REMARK    1  A    between atoms: C_2  and  C_3
REMARK    2  A    between atoms: C_16  and  C_17
REMARK    3  A    between atoms: C_17  and  O_18
REMARK    4  A    between atoms: O_18  and  C_19
REMARK                            x       y       z     vdW  Elec       q    Type
REMARK                         _______ _______ _______ _____ _____    ______ ____
ROOT
ATOM      1  O   UNL     1       2.947   4.893  20.378  0.00  0.00    +0.000 OA
ATOM      2  C   UNL     1       3.220   5.568  19.382  0.00  0.00    +0.000 C 
ATOM      3  N   UNL     1       2.579   6.807  19.130  0.00  0.00    +0.000 N 
ATOM      4  C   UNL     1       2.989   7.688  18.038  0.00  0.00    +0.000 C 
ATOM      5  C   UNL     1       2.104   8.861  17.697  0.00  0.00    +0.000 C 
ATOM      6  N   UNL     1       1.361   9.325  18.826  0.00  0.00    +0.000 N 
ATOM      7  N   UNL     1       0.632  10.436  18.701  0.00  0.00    +0.000 NA
ATOM      8  C   UNL     1       0.068  10.581  19.903  0.00  0.00    +0.000 A 
ATOM      9  C   UNL     1       0.426   9.512  20.772  0.00  0.00    +0.000 A 
ATOM     10  C   UNL     1       1.253   8.697  20.020  0.00  0.00    +0.000 A 
ATOM     11  C   UNL     1       1.987   7.434  20.326  0.00  0.00    +0.000 C 
ENDROOT
BRANCH   2  12
ATOM     12  C   UNL     1       4.382   5.097  18.545  0.00  0.00    +0.000 A 
ATOM     13  C   UNL     1       4.269   4.508  17.284  0.00  0.00    +0.000 A 
ATOM     14  C   UNL     1       5.389   4.352  16.472  0.00  0.00    +0.000 A 
ATOM     15  F   UNL     1       5.222   3.950  15.206  0.00  0.00    +0.000 F 
ATOM     16  C   UNL     1       6.659   4.623  16.945  0.00  0.00    +0.000 A 
ATOM     17  C   UNL     1       6.791   5.049  18.257  0.00  0.00    +0.000 A 
ATOM     18  F   UNL     1       8.016   5.244  18.759  0.00  0.00    +0.000 F 
ATOM     19  C   UNL     1       5.673   5.306  19.053  0.00  0.00    +0.000 A 
ENDBRANCH   2  12
BRANCH   8  20
ATOM     20  C   UNL     1      -0.788  11.772  20.166  0.00  0.00    +0.000 C 
BRANCH  20  21
ATOM     21  O   UNL     1      -0.857  12.018  21.572  0.00  0.00    +0.000 OA
BRANCH  21  22
ATOM     22  C   UNL     1      -2.092  12.326  22.065  0.00  0.00    +0.000 A 
ATOM     23  C   UNL     1      -3.005  12.765  21.109  0.00  0.00    +0.000 A 
ATOM     24  C   UNL     1      -4.302  13.115  21.480  0.00  0.00    +0.000 A 
ATOM     25  C   UNL     1      -4.695  13.006  22.812  0.00  0.00    +0.000 A 
ATOM     26  C   UNL     1      -3.794  12.542  23.765  0.00  0.00    +0.000 A 
ATOM     27  C   UNL     1      -2.490  12.194  23.395  0.00  0.00    +0.000 A 
ENDBRANCH  21  22
ENDBRANCH  20  21
ENDBRANCH   8  20
TORSDOF 4
ENDMDL
MODEL 7
REMARK VINA RESULT:      -7.9      2.192      2.780
REMARK  Name = 
REMARK  4 active torsions:
REMARK  status: ('A' for Active; 'I' for Inactive)
REMARK    1  A    between atoms: C_2  and  C_3
REMARK    2  A    between atoms: C_16  and  C_17
REMARK    3  A    between atoms: C_17  and  O_18
REMARK    4  A    between atoms: O_18  and  C_19
REMARK                            x       y       z     vdW  Elec       q    Type
REMARK                         _______ _______ _______ _____ _____    ______ ____
ROOT
ATOM      1  O   UNL     1       3.215   3.884  19.392  0.00  0.00    +0.000 OA
ATOM      2  C   UNL     1       3.496   4.783  18.594  0.00  0.00    +0.000 C 
ATOM      3  N   UNL     1       2.912   6.071  18.696  0.00  0.00    +0.000 N 
ATOM      4  C   UNL     1       3.337   7.188  17.853  0.00  0.00    +0.000 C 
ATOM      5  C   UNL     1       2.505   8.446  17.863  0.00  0.00    +0.000 C 
ATOM      6  N   UNL     1       1.818   8.632  19.101  0.00  0.00    +0.000 N 
ATOM      7  N   UNL     1       1.144   9.767  19.297  0.00  0.00    +0.000 NA
ATOM      8  C   UNL     1       0.621   9.618  20.517  0.00  0.00    +0.000 A 
ATOM      9  C   UNL     1       0.946   8.346  21.065  0.00  0.00    +0.000 A 
ATOM     10  C   UNL     1       1.710   7.720  20.096  0.00  0.00    +0.000 A 
ATOM     11  C   UNL     1       2.386   6.391  20.036  0.00  0.00    +0.000 C 
ENDROOT
BRANCH   2  12
ATOM     12  C   UNL     1       4.608   4.497  17.619  0.00  0.00    +0.000 A 
ATOM     13  C   UNL     1       4.431   4.253  16.255  0.00  0.00    +0.000 A 
ATOM     14  C   UNL     1       5.517   4.267  15.385  0.00  0.00    +0.000 A 
ATOM     15  F   UNL     1       5.294   4.206  14.066  0.00  0.00    +0.000 F 
ATOM     16  C   UNL     1       6.812   4.360  15.859  0.00  0.00    +0.000 A 
ATOM     17  C   UNL     1       7.003   4.433  17.230  0.00  0.00    +0.000 A 
ATOM     18  F   UNL     1       8.250   4.448  17.714  0.00  0.00    +0.000 F 
ATOM     19  C   UNL     1       5.923   4.522  18.110  0.00  0.00    +0.000 A 
ENDBRANCH   2  12
BRANCH   8  20
ATOM     20  C   UNL     1      -0.166  10.735  21.113  0.00  0.00    +0.000 C 
BRANCH  20  21
ATOM     21  O   UNL     1       0.720  11.747  21.594  0.00  0.00    +0.000 OA
BRANCH  21  22
ATOM     22  C   UNL     1       0.955  12.789  20.743  0.00  0.00    +0.000 A 
ATOM     23  C   UNL     1      -0.191  13.361  20.196  0.00  0.00    +0.000 A 
ATOM     24  C   UNL     1      -0.091  14.432  19.310  0.00  0.00    +0.000 A 
ATOM     25  C   UNL     1       1.161  14.948  18.985  0.00  0.00    +0.000 A 
ATOM     26  C   UNL     1       2.306  14.397  19.551  0.00  0.00    +0.000 A 
ATOM     27  C   UNL     1       2.208  13.318  20.437  0.00  0.00    +0.000 A 
ENDBRANCH  21  22
ENDBRANCH  20  21
ENDBRANCH   8  20
TORSDOF 4
ENDMDL
MODEL 8
REMARK VINA RESULT:      -7.9      4.403      9.595
REMARK  Name = 
REMARK  4 active torsions:
REMARK  status: ('A' for Active; 'I' for Inactive)
REMARK    1  A    between atoms: C_2  and  C_3
REMARK    2  A    between atoms: C_16  and  C_17
REMARK    3  A    between atoms: C_17  and  O_18
REMARK    4  A    between atoms: O_18  and  C_19
REMARK                            x       y       z     vdW  Elec       q    Type
REMARK                         _______ _______ _______ _____ _____    ______ ____
ROOT
ATOM      1  O   UNL     1      -0.258  11.792  18.684  0.00  0.00    +0.000 OA
ATOM      2  C   UNL     1      -0.052  11.217  19.757  0.00  0.00    +0.000 C 
ATOM      3  N   UNL     1       0.575   9.945  19.806  0.00  0.00    +0.000 N 
ATOM      4  C   UNL     1       0.957   9.314  21.068  0.00  0.00    +0.000 C 
ATOM      5  C   UNL     1       1.394   7.871  21.040  0.00  0.00    +0.000 C 
ATOM      6  N   UNL     1       1.975   7.505  19.787  0.00  0.00    +0.000 N 
ATOM      7  N   UNL     1       2.521   6.294  19.662  0.00  0.00    +0.000 NA
ATOM      8  C   UNL     1       2.949   6.269  18.396  0.00  0.00    +0.000 A 
ATOM      9  C   UNL     1       2.621   7.476  17.718  0.00  0.00    +0.000 A 
ATOM     10  C   UNL     1       1.961   8.249  18.656  0.00  0.00    +0.000 A 
ATOM     11  C   UNL     1       1.376   9.621  18.611  0.00  0.00    +0.000 C 
ENDROOT
BRANCH   2  12
ATOM     12  C   UNL     1      -0.342  12.002  21.010  0.00  0.00    +0.000 A 
ATOM     13  C   UNL     1       0.295  13.191  21.372  0.00  0.00    +0.000 A 
ATOM     14  C   UNL     1      -0.215  13.986  22.394  0.00  0.00    +0.000 A 
ATOM     15  F   UNL     1       0.312  15.199  22.598  0.00  0.00    +0.000 F 
ATOM     16  C   UNL     1      -1.262  13.550  23.184  0.00  0.00    +0.000 A 
ATOM     17  C   UNL     1      -1.790  12.293  22.935  0.00  0.00    +0.000 A 
ATOM     18  F   UNL     1      -2.753  11.820  23.736  0.00  0.00    +0.000 F 
ATOM     19  C   UNL     1      -1.358  11.526  21.852  0.00  0.00    +0.000 A 
ENDBRANCH   2  12
BRANCH   8  20
ATOM     20  C   UNL     1       3.682   5.069  17.900  0.00  0.00    +0.000 C 
BRANCH  20  21
ATOM     21  O   UNL     1       4.737   5.474  17.027  0.00  0.00    +0.000 OA
BRANCH  21  22
ATOM     22  C   UNL     1       5.891   5.880  17.633  0.00  0.00    +0.000 A 
ATOM     23  C   UNL     1       6.456   7.031  17.089  0.00  0.00    +0.000 A 
ATOM     24  C   UNL     1       7.639   7.552  17.612  0.00  0.00    +0.000 A 
ATOM     25  C   UNL     1       8.248   6.930  18.699  0.00  0.00    +0.000 A 
ATOM     26  C   UNL     1       7.672   5.796  19.262  0.00  0.00    +0.000 A 
ATOM     27  C   UNL     1       6.487   5.269  18.735  0.00  0.00    +0.000 A 
ENDBRANCH  21  22
ENDBRANCH  20  21
ENDBRANCH   8  20
TORSDOF 4
ENDMDL
MODEL 9
REMARK VINA RESULT:      -7.9      2.851      4.017
REMARK  Name = 
REMARK  4 active torsions:
REMARK  status: ('A' for Active; 'I' for Inactive)
REMARK    1  A    between atoms: C_2  and  C_3
REMARK    2  A    between atoms: C_16  and  C_17
REMARK    3  A    between atoms: C_17  and  O_18
REMARK    4  A    between atoms: O_18  and  C_19
REMARK                            x       y       z     vdW  Elec       q    Type
REMARK                         _______ _______ _______ _____ _____    ______ ____
ROOT
ATOM      1  O   UNL     1       2.622   8.351  17.085  0.00  0.00    +0.000 OA
ATOM      2  C   UNL     1       2.531   7.795  18.183  0.00  0.00    +0.000 C 
ATOM      3  N   UNL     1       1.958   8.453  19.300  0.00  0.00    +0.000 N 
ATOM      4  C   UNL     1       1.711   7.765  20.567  0.00  0.00    +0.000 C 
ATOM      5  C   UNL     1       1.326   8.595  21.766  0.00  0.00    +0.000 C 
ATOM      6  N   UNL     1       0.652   9.799  21.397  0.00  0.00    +0.000 N 
ATOM      7  N   UNL     1       0.142  10.570  22.361  0.00  0.00    +0.000 NA
ATOM      8  C   UNL     1      -0.393  11.597  21.694  0.00  0.00    +0.000 A 
ATOM      9  C   UNL     1      -0.170  11.475  20.295  0.00  0.00    +0.000 A 
ATOM     10  C   UNL     1       0.541  10.297  20.143  0.00  0.00    +0.000 A 
ATOM     11  C   UNL     1       1.069   9.575  18.949  0.00  0.00    +0.000 C 
ENDROOT
BRANCH   2  12
ATOM     12  C   UNL     1       2.900   6.334  18.232  0.00  0.00    +0.000 A 
ATOM     13  C   UNL     1       4.171   5.842  18.535  0.00  0.00    +0.000 A 
ATOM     14  C   UNL     1       4.359   4.493  18.822  0.00  0.00    +0.000 A 
ATOM     15  F   UNL     1       5.550   4.087  19.280  0.00  0.00    +0.000 F 
ATOM     16  C   UNL     1       3.337   3.578  18.660  0.00  0.00    +0.000 A 
ATOM     17  C   UNL     1       2.114   4.039  18.196  0.00  0.00    +0.000 A 
ATOM     18  F   UNL     1       1.133   3.159  17.960  0.00  0.00    +0.000 F 
ATOM     19  C   UNL     1       1.879   5.400  17.999  0.00  0.00    +0.000 A 
ENDBRANCH   2  12
BRANCH   8  20
ATOM     20  C   UNL     1      -1.121  12.654  22.451  0.00  0.00    +0.000 C 
BRANCH  20  21
ATOM     21  O   UNL     1      -1.976  12.051  23.423  0.00  0.00    +0.000 OA
BRANCH  21  22
ATOM     22  C   UNL     1      -3.296  12.394  23.355  0.00  0.00    +0.000 A 
ATOM     23  C   UNL     1      -3.752  12.688  22.072  0.00  0.00    +0.000 A 
ATOM     24  C   UNL     1      -5.080  13.056  21.862  0.00  0.00    +0.000 A 
ATOM     25  C   UNL     1      -5.962  13.109  22.939  0.00  0.00    +0.000 A 
ATOM     26  C   UNL     1      -5.517  12.789  24.217  0.00  0.00    +0.000 A 
ATOM     27  C   UNL     1      -4.182  12.425  24.430  0.00  0.00    +0.000 A 
ENDBRANCH  21  22
ENDBRANCH  20  21
ENDBRANCH   8  20
TORSDOF 4
ENDMDL
