MODEL 1
REMARK VINA RESULT:      -7.5      0.000      0.000
REMARK  Name = 
REMARK  5 active torsions:
REMARK  status: ('A' for Active; 'I' for Inactive)
REMARK    1  A    between atoms: C_1  and  O_2
REMARK    2  A    between atoms: O_2  and  C_3
REMARK    3  A    between atoms: C_6  and  N_7
REMARK    4  A    between atoms: N_7  and  N_8
REMARK    5  A    between atoms: C_23  and  C_24
REMARK                            x       y       z     vdW  Elec       q    Type
REMARK                         _______ _______ _______ _____ _____    ______ ____
ROOT
ATOM      1  N   UNL     1       1.863   8.249  19.407  0.00  0.00    +0.000 NA
ATOM      2  C   UNL     1       1.078   9.138  19.956  0.00  0.00    +0.000 C 
ATOM      3  C   UNL     1       0.662   9.095  21.416  0.00  0.00    +0.000 C 
ATOM      4  O   UNL     1       1.442   8.737  22.292  0.00  0.00    +0.000 OA
ATOM      5  N   UNL     1      -0.565   9.683  21.652  0.00  0.00    +0.000 N 
ATOM      6  C   UNL     1      -0.670  11.022  21.166  0.00  0.00    +0.000 A 
ATOM      7  C   UNL     1      -1.280  11.990  21.973  0.00  0.00    +0.000 A 
ATOM      8 CL   UNL     1      -2.100  11.567  23.432  0.00  0.00    +0.000 Cl
ATOM      9  C   UNL     1      -1.178  13.335  21.633  0.00  0.00    +0.000 A 
ATOM     10  C   UNL     1      -0.496  13.712  20.471  0.00  0.00    +0.000 A 
ATOM     11  C   UNL     1       0.058  12.744  19.621  0.00  0.00    +0.000 A 
ATOM     12 CL   UNL     1       0.925  13.310  18.242  0.00  0.00    +0.000 Cl
ATOM     13  C   UNL     1      -0.028  11.397  19.968  0.00  0.00    +0.000 A 
ATOM     14  C   UNL     1       0.551  10.305  19.149  0.00  0.00    +0.000 C 
ATOM     15  O   UNL     1       0.532  10.296  17.933  0.00  0.00    +0.000 OA
ATOM     16  H   UNL     1      -1.314   9.113  21.255  0.00  0.00    +0.000 HD
ENDROOT
BRANCH   1  17
ATOM     17  N   UNL     1       2.344   7.304  20.271  0.00  0.00    +0.000 N 
ATOM     18  H   UNL     1       3.241   7.525  20.723  0.00  0.00    +0.000 HD
BRANCH  17  22
ATOM     19  C   UNL     1       2.205   3.177  19.315  0.00  0.00    +0.000 A 
ATOM     20  C   UNL     1       1.390   3.691  20.317  0.00  0.00    +0.000 A 
ATOM     21  C   UNL     1       1.441   5.054  20.629  0.00  0.00    +0.000 A 
ATOM     22  C   UNL     1       2.279   5.934  19.929  0.00  0.00    +0.000 A 
ATOM     23  C   UNL     1       3.150   5.401  18.954  0.00  0.00    +0.000 A 
ATOM     24  C   UNL     1       4.146   6.223  18.177  0.00  0.00    +0.000 C 
ATOM     25  C   UNL     1       3.086   4.030  18.651  0.00  0.00    +0.000 A 
BRANCH  19  27
ATOM     26  C   UNL     1       3.485   1.420  18.357  0.00  0.00    +0.000 C 
ATOM     27  O   UNL     1       2.251   1.874  18.898  0.00  0.00    +0.000 OA
ENDBRANCH  19  27
ENDBRANCH  17  22
ENDBRANCH   1  17
TORSDOF 3
ENDMDL
MODEL 2
REMARK VINA RESULT:      -7.4      1.177      2.719
REMARK  Name = 
REMARK  5 active torsions:
REMARK  status: ('A' for Active; 'I' for Inactive)
REMARK    1  A    between atoms: C_1  and  O_2
REMARK    2  A    between atoms: O_2  and  C_3
REMARK    3  A    between atoms: C_6  and  N_7
REMARK    4  A    between atoms: N_7  and  N_8
REMARK    5  A    between atoms: C_23  and  C_24
REMARK                            x       y       z     vdW  Elec       q    Type
REMARK                         _______ _______ _______ _____ _____    ______ ____
ROOT
ATOM      1  N   UNL     1       1.448   8.366  20.796  0.00  0.00    +0.000 NA
ATOM      2  C   UNL     1       1.002   9.582  20.626  0.00  0.00    +0.000 C 
ATOM      3  C   UNL     1       1.003  10.292  19.283  0.00  0.00    +0.000 C 
ATOM      4  O   UNL     1       0.761   9.689  18.243  0.00  0.00    +0.000 OA
ATOM      5  N   UNL     1       1.089  11.665  19.392  0.00  0.00    +0.000 N 
ATOM      6  C   UNL     1       0.093  12.245  20.236  0.00  0.00    +0.000 A 
ATOM      7  C   UNL     1      -0.552  13.416  19.818  0.00  0.00    +0.000 A 
ATOM      8 CL   UNL     1      -0.024  14.294  18.428  0.00  0.00    +0.000 Cl
ATOM      9  C   UNL     1      -1.682  13.859  20.497  0.00  0.00    +0.000 A 
ATOM     10  C   UNL     1      -2.150  13.154  21.611  0.00  0.00    +0.000 A 
ATOM     11  C   UNL     1      -1.470  12.020  22.076  0.00  0.00    +0.000 A 
ATOM     12 CL   UNL     1      -2.155  11.188  23.423  0.00  0.00    +0.000 Cl
ATOM     13  C   UNL     1      -0.347  11.564  21.389  0.00  0.00    +0.000 A 
ATOM     14  C   UNL     1       0.420  10.359  21.788  0.00  0.00    +0.000 C 
ATOM     15  O   UNL     1       0.643  10.059  22.945  0.00  0.00    +0.000 OA
ATOM     16  H   UNL     1       2.018  11.939  19.717  0.00  0.00    +0.000 HD
ENDROOT
BRANCH   1  17
ATOM     17  N   UNL     1       1.856   7.744  19.647  0.00  0.00    +0.000 N 
ATOM     18  H   UNL     1       1.283   7.924  18.812  0.00  0.00    +0.000 HD
BRANCH  17  22
ATOM     19  C   UNL     1       3.190   3.725  19.822  0.00  0.00    +0.000 A 
ATOM     20  C   UNL     1       2.278   4.201  20.757  0.00  0.00    +0.000 A 
ATOM     21  C   UNL     1       1.842   5.529  20.695  0.00  0.00    +0.000 A 
ATOM     22  C   UNL     1       2.280   6.397  19.685  0.00  0.00    +0.000 A 
ATOM     23  C   UNL     1       3.252   5.931  18.773  0.00  0.00    +0.000 A 
ATOM     24  C   UNL     1       3.855   6.777  17.681  0.00  0.00    +0.000 C 
ATOM     25  C   UNL     1       3.679   4.593  18.847  0.00  0.00    +0.000 A 
BRANCH  19  27
ATOM     26  C   UNL     1       3.392   1.710  18.580  0.00  0.00    +0.000 C 
ATOM     27  O   UNL     1       3.691   2.453  19.754  0.00  0.00    +0.000 OA
ENDBRANCH  19  27
ENDBRANCH  17  22
ENDBRANCH   1  17
TORSDOF 3
ENDMDL
MODEL 3
REMARK VINA RESULT:      -7.3      1.304      2.815
REMARK  Name = 
REMARK  5 active torsions:
REMARK  status: ('A' for Active; 'I' for Inactive)
REMARK    1  A    between atoms: C_1  and  O_2
REMARK    2  A    between atoms: O_2  and  C_3
REMARK    3  A    between atoms: C_6  and  N_7
REMARK    4  A    between atoms: N_7  and  N_8
REMARK    5  A    between atoms: C_23  and  C_24
REMARK                            x       y       z     vdW  Elec       q    Type
REMARK                         _______ _______ _______ _____ _____    ______ ____
ROOT
ATOM      1  N   UNL     1       2.022   7.890  19.750  0.00  0.00    +0.000 NA
ATOM      2  C   UNL     1       1.480   9.077  19.820  0.00  0.00    +0.000 C 
ATOM      3  C   UNL     1       1.152   9.918  18.598  0.00  0.00    +0.000 C 
ATOM      4  O   UNL     1       0.729   9.407  17.567  0.00  0.00    +0.000 OA
ATOM      5  N   UNL     1       1.181  11.275  18.846  0.00  0.00    +0.000 N 
ATOM      6  C   UNL     1       0.357  11.683  19.940  0.00  0.00    +0.000 A 
ATOM      7  C   UNL     1      -0.429  12.834  19.804  0.00  0.00    +0.000 A 
ATOM      8 CL   UNL     1      -0.263  13.890  18.448  0.00  0.00    +0.000 Cl
ATOM      9  C   UNL     1      -1.412  13.113  20.748  0.00  0.00    +0.000 A 
ATOM     10  C   UNL     1      -1.589  12.261  21.845  0.00  0.00    +0.000 A 
ATOM     11  C   UNL     1      -0.761  11.145  22.024  0.00  0.00    +0.000 A 
ATOM     12 CL   UNL     1      -1.093  10.127  23.376  0.00  0.00    +0.000 Cl
ATOM     13  C   UNL     1       0.213  10.854  21.071  0.00  0.00    +0.000 A 
ATOM     14  C   UNL     1       1.117   9.681  21.159  0.00  0.00    +0.000 C 
ATOM     15  O   UNL     1       1.599   9.283  22.202  0.00  0.00    +0.000 OA
ATOM     16  H   UNL     1       2.140  11.589  19.003  0.00  0.00    +0.000 HD
ENDROOT
BRANCH   1  17
ATOM     17  N   UNL     1       2.209   7.424  18.478  0.00  0.00    +0.000 N 
ATOM     18  H   UNL     1       1.529   7.747  17.776  0.00  0.00    +0.000 HD
BRANCH  17  22
ATOM     19  C   UNL     1       3.261   3.356  17.915  0.00  0.00    +0.000 A 
ATOM     20  C   UNL     1       2.131   3.692  18.653  0.00  0.00    +0.000 A 
ATOM     21  C   UNL     1       1.790   5.036  18.836  0.00  0.00    +0.000 A 
ATOM     22  C   UNL     1       2.546   6.068  18.263  0.00  0.00    +0.000 A 
ATOM     23  C   UNL     1       3.727   5.730  17.566  0.00  0.00    +0.000 A 
ATOM     24  C   UNL     1       4.664   6.741  16.959  0.00  0.00    +0.000 C 
ATOM     25  C   UNL     1       4.056   4.374  17.389  0.00  0.00    +0.000 A 
BRANCH  19  27
ATOM     26  C   UNL     1       3.760   1.186  18.742  0.00  0.00    +0.000 C 
ATOM     27  O   UNL     1       3.706   2.091  17.647  0.00  0.00    +0.000 OA
ENDBRANCH  19  27
ENDBRANCH  17  22
ENDBRANCH   1  17
TORSDOF 3
ENDMDL
MODEL 4
REMARK VINA RESULT:      -7.3      1.864      3.624
REMARK  Name = 
REMARK  5 active torsions:
REMARK  status: ('A' for Active; 'I' for Inactive)
REMARK    1  A    between atoms: C_1  and  O_2
REMARK    2  A    between atoms: O_2  and  C_3
REMARK    3  A    between atoms: C_6  and  N_7
REMARK    4  A    between atoms: N_7  and  N_8
REMARK    5  A    between atoms: C_23  and  C_24
REMARK                            x       y       z     vdW  Elec       q    Type
REMARK                         _______ _______ _______ _____ _____    ______ ____
ROOT
ATOM      1  N   UNL     1       1.879   7.708  19.582  0.00  0.00    +0.000 NA
ATOM      2  C   UNL     1       1.436   8.930  19.724  0.00  0.00    +0.000 C 
ATOM      3  C   UNL     1       1.117   9.842  18.552  0.00  0.00    +0.000 C 
ATOM      4  O   UNL     1       0.606   9.407  17.525  0.00  0.00    +0.000 OA
ATOM      5  N   UNL     1       1.263  11.182  18.848  0.00  0.00    +0.000 N 
ATOM      6  C   UNL     1       0.528  11.607  19.997  0.00  0.00    +0.000 A 
ATOM      7  C   UNL     1      -0.171  12.820  19.944  0.00  0.00    +0.000 A 
ATOM      8 CL   UNL     1       0.012  13.913  18.620  0.00  0.00    +0.000 Cl
ATOM      9  C   UNL     1      -1.083  13.134  20.946  0.00  0.00    +0.000 A 
ATOM     10  C   UNL     1      -1.274  12.254  22.018  0.00  0.00    +0.000 A 
ATOM     11  C   UNL     1      -0.528  11.071  22.114  0.00  0.00    +0.000 A 
ATOM     12 CL   UNL     1      -0.874  10.027  23.442  0.00  0.00    +0.000 Cl
ATOM     13  C   UNL     1       0.374  10.746  21.102  0.00  0.00    +0.000 A 
ATOM     14  C   UNL     1       1.186   9.504  21.101  0.00  0.00    +0.000 C 
ATOM     15  O   UNL     1       1.684   9.029  22.103  0.00  0.00    +0.000 OA
ATOM     16  H   UNL     1       2.251  11.415  18.967  0.00  0.00    +0.000 HD
ENDROOT
BRANCH   1  17
ATOM     17  N   UNL     1       1.968   7.282  18.286  0.00  0.00    +0.000 N 
ATOM     18  H   UNL     1       1.099   6.918  17.872  0.00  0.00    +0.000 HD
BRANCH  17  22
ATOM     19  C   UNL     1       5.281   5.002  16.944  0.00  0.00    +0.000 A 
ATOM     20  C   UNL     1       5.347   6.391  16.962  0.00  0.00    +0.000 A 
ATOM     21  C   UNL     1       4.250   7.138  17.404  0.00  0.00    +0.000 A 
ATOM     22  C   UNL     1       3.081   6.518  17.868  0.00  0.00    +0.000 A 
ATOM     23  C   UNL     1       2.991   5.111  17.792  0.00  0.00    +0.000 A 
ATOM     24  C   UNL     1       1.771   4.323  18.194  0.00  0.00    +0.000 C 
ATOM     25  C   UNL     1       4.103   4.374  17.346  0.00  0.00    +0.000 A 
BRANCH  19  27
ATOM     26  C   UNL     1       7.058   4.552  15.434  0.00  0.00    +0.000 C 
ATOM     27  O   UNL     1       6.275   4.149  16.550  0.00  0.00    +0.000 OA
ENDBRANCH  19  27
ENDBRANCH  17  22
ENDBRANCH   1  17
TORSDOF 3
ENDMDL
MODEL 5
REMARK VINA RESULT:      -7.3      1.671      3.463
REMARK  Name = 
REMARK  5 active torsions:
REMARK  status: ('A' for Active; 'I' for Inactive)
REMARK    1  A    between atoms: C_1  and  O_2
REMARK    2  A    between atoms: O_2  and  C_3
REMARK    3  A    between atoms: C_6  and  N_7
REMARK    4  A    between atoms: N_7  and  N_8
REMARK    5  A    between atoms: C_23  and  C_24
REMARK                            x       y       z     vdW  Elec       q    Type
REMARK                         _______ _______ _______ _____ _____    ______ ____
ROOT
ATOM      1  N   UNL     1       1.701   8.060  20.209  0.00  0.00    +0.000 NA
ATOM      2  C   UNL     1       1.223   9.274  20.124  0.00  0.00    +0.000 C 
ATOM      3  C   UNL     1       1.021  10.001  18.806  0.00  0.00    +0.000 C 
ATOM      4  O   UNL     1       0.635   9.408  17.804  0.00  0.00    +0.000 OA
ATOM      5  N   UNL     1       1.109  11.373  18.920  0.00  0.00    +0.000 N 
ATOM      6  C   UNL     1       0.243  11.931  19.910  0.00  0.00    +0.000 A 
ATOM      7  C   UNL     1      -0.467  13.100  19.608  0.00  0.00    +0.000 A 
ATOM      8 CL   UNL     1      -0.158  14.001  18.168  0.00  0.00    +0.000 Cl
ATOM      9  C   UNL     1      -1.490  13.522  20.451  0.00  0.00    +0.000 A 
ATOM     10  C   UNL     1      -1.783  12.797  21.611  0.00  0.00    +0.000 A 
ATOM     11  C   UNL     1      -1.031  11.665  21.956  0.00  0.00    +0.000 A 
ATOM     12 CL   UNL     1      -1.504  10.809  23.376  0.00  0.00    +0.000 Cl
ATOM     13  C   UNL     1      -0.018  11.230  21.104  0.00  0.00    +0.000 A 
ATOM     14  C   UNL     1       0.811  10.029  21.370  0.00  0.00    +0.000 C 
ATOM     15  O   UNL     1       1.204   9.717  22.477  0.00  0.00    +0.000 OA
ATOM     16  H   UNL     1       2.073  11.654  19.110  0.00  0.00    +0.000 HD
ENDROOT
BRANCH   1  17
ATOM     17  N   UNL     1       1.941   7.458  19.005  0.00  0.00    +0.000 N 
ATOM     18  H   UNL     1       1.128   7.022  18.550  0.00  0.00    +0.000 HD
BRANCH  17  22
ATOM     19  C   UNL     1       5.372   5.041  18.406  0.00  0.00    +0.000 A 
ATOM     20  C   UNL     1       5.173   6.179  17.631  0.00  0.00    +0.000 A 
ATOM     21  C   UNL     1       4.038   6.972  17.833  0.00  0.00    +0.000 A 
ATOM     22  C   UNL     1       3.099   6.667  18.828  0.00  0.00    +0.000 A 
ATOM     23  C   UNL     1       3.270   5.479  19.573  0.00  0.00    +0.000 A 
ATOM     24  C   UNL     1       2.303   5.000  20.625  0.00  0.00    +0.000 C 
ATOM     25  C   UNL     1       4.416   4.694  19.360  0.00  0.00    +0.000 A 
BRANCH  19  27
ATOM     26  C   UNL     1       7.573   4.642  17.607  0.00  0.00    +0.000 C 
ATOM     27  O   UNL     1       6.436   4.185  18.328  0.00  0.00    +0.000 OA
ENDBRANCH  19  27
ENDBRANCH  17  22
ENDBRANCH   1  17
TORSDOF 3
ENDMDL
MODEL 6
REMARK VINA RESULT:      -7.2      5.501      7.875
REMARK  Name = 
REMARK  5 active torsions:
REMARK  status: ('A' for Active; 'I' for Inactive)
REMARK    1  A    between atoms: C_1  and  O_2
REMARK    2  A    between atoms: O_2  and  C_3
REMARK    3  A    between atoms: C_6  and  N_7
REMARK    4  A    between atoms: N_7  and  N_8
REMARK    5  A    between atoms: C_23  and  C_24
REMARK                            x       y       z     vdW  Elec       q    Type
REMARK                         _______ _______ _______ _____ _____    ______ ____
ROOT
ATOM      1  N   UNL     1       7.220   5.166  16.598  0.00  0.00    +0.000 NA
ATOM      2  C   UNL     1       6.157   5.620  17.206  0.00  0.00    +0.000 C 
ATOM      3  C   UNL     1       5.219   6.647  16.594  0.00  0.00    +0.000 C 
ATOM      4  O   UNL     1       4.951   6.632  15.397  0.00  0.00    +0.000 OA
ATOM      5  N   UNL     1       4.571   7.423  17.533  0.00  0.00    +0.000 N 
ATOM      6  C   UNL     1       3.871   6.671  18.525  0.00  0.00    +0.000 A 
ATOM      7  C   UNL     1       2.586   7.080  18.905  0.00  0.00    +0.000 A 
ATOM      8 CL   UNL     1       1.921   8.583  18.375  0.00  0.00    +0.000 Cl
ATOM      9  C   UNL     1       1.795   6.237  19.678  0.00  0.00    +0.000 A 
ATOM     10  C   UNL     1       2.296   5.000  20.100  0.00  0.00    +0.000 A 
ATOM     11  C   UNL     1       3.605   4.613  19.782  0.00  0.00    +0.000 A 
ATOM     12 CL   UNL     1       4.112   3.049  20.301  0.00  0.00    +0.000 Cl
ATOM     13  C   UNL     1       4.394   5.448  18.993  0.00  0.00    +0.000 A 
ATOM     14  C   UNL     1       5.779   5.112  18.581  0.00  0.00    +0.000 C 
ATOM     15  O   UNL     1       6.579   4.555  19.308  0.00  0.00    +0.000 OA
ATOM     16  H   UNL     1       5.230   8.059  17.986  0.00  0.00    +0.000 HD
ENDROOT
BRANCH   1  17
ATOM     17  N   UNL     1       7.391   5.635  15.324  0.00  0.00    +0.000 N 
ATOM     18  H   UNL     1       7.123   6.616  15.167  0.00  0.00    +0.000 HD
BRANCH  17  22
ATOM     19  C   UNL     1       6.354   3.164  12.040  0.00  0.00    +0.000 A 
ATOM     20  C   UNL     1       5.760   2.964  13.282  0.00  0.00    +0.000 A 
ATOM     21  C   UNL     1       6.107   3.782  14.362  0.00  0.00    +0.000 A 
ATOM     22  C   UNL     1       7.025   4.833  14.220  0.00  0.00    +0.000 A 
ATOM     23  C   UNL     1       7.673   4.996  12.976  0.00  0.00    +0.000 A 
ATOM     24  C   UNL     1       8.725   6.040  12.706  0.00  0.00    +0.000 C 
ATOM     25  C   UNL     1       7.312   4.167  11.899  0.00  0.00    +0.000 A 
BRANCH  19  27
ATOM     26  C   UNL     1       6.249   1.041  10.981  0.00  0.00    +0.000 C 
ATOM     27  O   UNL     1       6.103   2.452  10.899  0.00  0.00    +0.000 OA
ENDBRANCH  19  27
ENDBRANCH  17  22
ENDBRANCH   1  17
TORSDOF 3
ENDMDL
MODEL 7
REMARK VINA RESULT:      -7.1      1.857      2.592
REMARK  Name = 
REMARK  5 active torsions:
REMARK  status: ('A' for Active; 'I' for Inactive)
REMARK    1  A    between atoms: C_1  and  O_2
REMARK    2  A    between atoms: O_2  and  C_3
REMARK    3  A    between atoms: C_6  and  N_7
REMARK    4  A    between atoms: N_7  and  N_8
REMARK    5  A    between atoms: C_23  and  C_24
REMARK                            x       y       z     vdW  Elec       q    Type
REMARK                         _______ _______ _______ _____ _____    ______ ____
ROOT
ATOM      1  N   UNL     1       2.143   8.124  18.262  0.00  0.00    +0.000 NA
ATOM      2  C   UNL     1       1.484   8.887  19.094  0.00  0.00    +0.000 C 
ATOM      3  C   UNL     1       1.141   8.471  20.514  0.00  0.00    +0.000 C 
ATOM      4  O   UNL     1       1.923   7.816  21.194  0.00  0.00    +0.000 OA
ATOM      5  N   UNL     1      -0.005   9.071  20.997  0.00  0.00    +0.000 N 
ATOM      6  C   UNL     1       0.005  10.497  20.907  0.00  0.00    +0.000 A 
ATOM      7  C   UNL     1      -0.459  11.248  21.995  0.00  0.00    +0.000 A 
ATOM      8 CL   UNL     1      -1.243  10.503  23.341  0.00  0.00    +0.000 Cl
ATOM      9  C   UNL     1      -0.236  12.620  22.030  0.00  0.00    +0.000 A 
ATOM     10  C   UNL     1       0.421  13.249  20.967  0.00  0.00    +0.000 A 
ATOM     11  C   UNL     1       0.828  12.515  19.843  0.00  0.00    +0.000 A 
ATOM     12 CL   UNL     1       1.678  13.370  18.610  0.00  0.00    +0.000 Cl
ATOM     13  C   UNL     1       0.620  11.137  19.813  0.00  0.00    +0.000 A 
ATOM     14  C   UNL     1       1.040  10.274  18.682  0.00  0.00    +0.000 C 
ATOM     15  O   UNL     1       0.958  10.609  17.516  0.00  0.00    +0.000 OA
ATOM     16  H   UNL     1      -0.829   8.702  20.519  0.00  0.00    +0.000 HD
ENDROOT
BRANCH   1  17
ATOM     17  N   UNL     1       2.567   6.937  18.793  0.00  0.00    +0.000 N 
ATOM     18  H   UNL     1       2.851   6.963  19.782  0.00  0.00    +0.000 HD
BRANCH  17  22
ATOM     19  C   UNL     1       5.101   4.447  16.480  0.00  0.00    +0.000 A 
ATOM     20  C   UNL     1       5.475   5.755  16.765  0.00  0.00    +0.000 A 
ATOM     21  C   UNL     1       4.635   6.573  17.528  0.00  0.00    +0.000 A 
ATOM     22  C   UNL     1       3.423   6.095  18.048  0.00  0.00    +0.000 A 
ATOM     23  C   UNL     1       3.015   4.787  17.707  0.00  0.00    +0.000 A 
ATOM     24  C   UNL     1       1.709   4.173  18.143  0.00  0.00    +0.000 C 
ATOM     25  C   UNL     1       3.872   3.977  16.941  0.00  0.00    +0.000 A 
BRANCH  19  27
ATOM     26  C   UNL     1       6.271   3.946  14.475  0.00  0.00    +0.000 C 
ATOM     27  O   UNL     1       5.825   3.536  15.761  0.00  0.00    +0.000 OA
ENDBRANCH  19  27
ENDBRANCH  17  22
ENDBRANCH   1  17
TORSDOF 3
ENDMDL
MODEL 8
REMARK VINA RESULT:      -7.0      0.834      1.592
REMARK  Name = 
REMARK  5 active torsions:
REMARK  status: ('A' for Active; 'I' for Inactive)
REMARK    1  A    between atoms: C_1  and  O_2
REMARK    2  A    between atoms: O_2  and  C_3
REMARK    3  A    between atoms: C_6  and  N_7
REMARK    4  A    between atoms: N_7  and  N_8
REMARK    5  A    between atoms: C_23  and  C_24
REMARK                            x       y       z     vdW  Elec       q    Type
REMARK                         _______ _______ _______ _____ _____    ______ ____
ROOT
ATOM      1  N   UNL     1       2.054   8.193  19.245  0.00  0.00    +0.000 NA
ATOM      2  C   UNL     1       1.337   9.109  19.841  0.00  0.00    +0.000 C 
ATOM      3  C   UNL     1       0.736   8.928  21.225  0.00  0.00    +0.000 C 
ATOM      4  O   UNL     1       1.342   8.334  22.111  0.00  0.00    +0.000 OA
ATOM      5  N   UNL     1      -0.417   9.661  21.420  0.00  0.00    +0.000 N 
ATOM      6  C   UNL     1      -0.273  11.055  21.141  0.00  0.00    +0.000 A 
ATOM      7  C   UNL     1      -0.841  11.984  22.022  0.00  0.00    +0.000 A 
ATOM      8 CL   UNL     1      -1.890  11.494  23.303  0.00  0.00    +0.000 Cl
ATOM      9  C   UNL     1      -0.511  13.330  21.910  0.00  0.00    +0.000 A 
ATOM     10  C   UNL     1       0.359  13.755  20.899  0.00  0.00    +0.000 A 
ATOM     11  C   UNL     1       0.877  12.841  19.971  0.00  0.00    +0.000 A 
ATOM     12 CL   UNL     1       1.982  13.452  18.796  0.00  0.00    +0.000 Cl
ATOM     13  C   UNL     1       0.562  11.489  20.092  0.00  0.00    +0.000 A 
ATOM     14  C   UNL     1       1.083  10.445  19.176  0.00  0.00    +0.000 C 
ATOM     15  O   UNL     1       1.217  10.608  17.979  0.00  0.00    +0.000 OA
ATOM     16  H   UNL     1      -1.182   9.276  20.863  0.00  0.00    +0.000 HD
ENDROOT
BRANCH   1  17
ATOM     17  N   UNL     1       2.286   7.074  19.996  0.00  0.00    +0.000 N 
ATOM     18  H   UNL     1       2.775   7.225  20.888  0.00  0.00    +0.000 HD
BRANCH  17  22
ATOM     19  C   UNL     1       3.574   3.530  18.060  0.00  0.00    +0.000 A 
ATOM     20  C   UNL     1       4.178   4.747  17.766  0.00  0.00    +0.000 A 
ATOM     21  C   UNL     1       3.748   5.914  18.407  0.00  0.00    +0.000 A 
ATOM     22  C   UNL     1       2.733   5.886  19.374  0.00  0.00    +0.000 A 
ATOM     23  C   UNL     1       2.079   4.660  19.628  0.00  0.00    +0.000 A 
ATOM     24  C   UNL     1       0.932   4.504  20.592  0.00  0.00    +0.000 C 
ATOM     25  C   UNL     1       2.524   3.496  18.977  0.00  0.00    +0.000 A 
BRANCH  19  27
ATOM     26  C   UNL     1       3.807   1.188  18.385  0.00  0.00    +0.000 C 
ATOM     27  O   UNL     1       3.898   2.314  17.522  0.00  0.00    +0.000 OA
ENDBRANCH  19  27
ENDBRANCH  17  22
ENDBRANCH   1  17
TORSDOF 3
ENDMDL
MODEL 9
REMARK VINA RESULT:      -7.0      1.463      2.156
REMARK  Name = 
REMARK  5 active torsions:
REMARK  status: ('A' for Active; 'I' for Inactive)
REMARK    1  A    between atoms: C_1  and  O_2
REMARK    2  A    between atoms: O_2  and  C_3
REMARK    3  A    between atoms: C_6  and  N_7
REMARK    4  A    between atoms: N_7  and  N_8
REMARK    5  A    between atoms: C_23  and  C_24
REMARK                            x       y       z     vdW  Elec       q    Type
REMARK                         _______ _______ _______ _____ _____    ______ ____
ROOT
ATOM      1  N   UNL     1       1.946   8.822  18.982  0.00  0.00    +0.000 NA
ATOM      2  C   UNL     1       1.238   9.644  19.712  0.00  0.00    +0.000 C 
ATOM      3  C   UNL     1       0.522   9.224  20.984  0.00  0.00    +0.000 C 
ATOM      4  O   UNL     1       1.021   8.417  21.761  0.00  0.00    +0.000 OA
ATOM      5  N   UNL     1      -0.599   9.983  21.255  0.00  0.00    +0.000 N 
ATOM      6  C   UNL     1      -0.354  11.390  21.288  0.00  0.00    +0.000 A 
ATOM      7  C   UNL     1      -0.934  12.155  22.307  0.00  0.00    +0.000 A 
ATOM      8 CL   UNL     1      -2.107  11.488  23.385  0.00  0.00    +0.000 Cl
ATOM      9  C   UNL     1      -0.520  13.468  22.504  0.00  0.00    +0.000 A 
ATOM     10  C   UNL     1       0.450  14.028  21.665  0.00  0.00    +0.000 A 
ATOM     11  C   UNL     1       0.985  13.291  20.599  0.00  0.00    +0.000 A 
ATOM     12 CL   UNL     1       2.213  14.050  19.655  0.00  0.00    +0.000 Cl
ATOM     13  C   UNL     1       0.584  11.970  20.410  0.00  0.00    +0.000 A 
ATOM     14  C   UNL     1       1.115  11.103  19.330  0.00  0.00    +0.000 C 
ATOM     15  O   UNL     1       1.352  11.501  18.206  0.00  0.00    +0.000 OA
ATOM     16  H   UNL     1      -1.339   9.778  20.581  0.00  0.00    +0.000 HD
ENDROOT
BRANCH   1  17
ATOM     17  N   UNL     1       2.054   7.558  19.492  0.00  0.00    +0.000 N 
ATOM     18  H   UNL     1       2.229   7.495  20.505  0.00  0.00    +0.000 HD
BRANCH  17  22
ATOM     19  C   UNL     1       4.201   4.610  17.331  0.00  0.00    +0.000 A 
ATOM     20  C   UNL     1       4.379   5.959  17.042  0.00  0.00    +0.000 A 
ATOM     21  C   UNL     1       3.666   6.927  17.758  0.00  0.00    +0.000 A 
ATOM     22  C   UNL     1       2.790   6.574  18.794  0.00  0.00    +0.000 A 
ATOM     23  C   UNL     1       2.564   5.203  19.046  0.00  0.00    +0.000 A 
ATOM     24  C   UNL     1       1.602   4.686  20.084  0.00  0.00    +0.000 C 
ATOM     25  C   UNL     1       3.289   4.242  18.319  0.00  0.00    +0.000 A 
BRANCH  19  27
ATOM     26  C   UNL     1       5.854   3.887  15.787  0.00  0.00    +0.000 C 
ATOM     27  O   UNL     1       4.836   3.561  16.724  0.00  0.00    +0.000 OA
ENDBRANCH  19  27
ENDBRANCH  17  22
ENDBRANCH   1  17
TORSDOF 3
ENDMDL
