MODEL 1
REMARK VINA RESULT:      -7.5      0.000      0.000
REMARK  Name = 
REMARK  6 active torsions:
REMARK  status: ('A' for Active; 'I' for Inactive)
REMARK    1  A    between atoms: N_1  and  C_2
REMARK    2  A    between atoms: C_2  and  C_3
REMARK    3  A    between atoms: C_3  and  C_4
REMARK    4  A    between atoms: C_4  and  C_5
REMARK    5  A    between atoms: C_5  and  N_6
REMARK    6  A    between atoms: N_6  and  C_7
REMARK                            x       y       z     vdW  Elec       q    Type
REMARK                         _______ _______ _______ _____ _____    ______ ____
ROOT
ATOM      1  C   UNL     1       5.893   5.991  16.377  0.00  0.00    +0.000 A 
ATOM      2  C   UNL     1       6.616   5.190  15.474  0.00  0.00    +0.000 A 
ATOM      3  C   UNL     1       6.286   3.852  15.253  0.00  0.00    +0.000 A 
ATOM      4  C   UNL     1       5.247   3.269  15.968  0.00  0.00    +0.000 A 
ATOM      5  C   UNL     1       4.520   4.034  16.887  0.00  0.00    +0.000 A 
ATOM      6  C   UNL     1       4.818   5.388  17.076  0.00  0.00    +0.000 A 
ATOM      7  C   UNL     1       3.950   6.184  17.990  0.00  0.00    +0.000 C 
ATOM      8  O   UNL     1       4.010   7.410  18.015  0.00  0.00    +0.000 OA
ATOM      9  C   UNL     1       2.982   5.490  18.865  0.00  0.00    +0.000 A 
ATOM     10  C   UNL     1       2.283   6.209  19.843  0.00  0.00    +0.000 A 
ATOM     11  C   UNL     1       1.389   5.551  20.692  0.00  0.00    +0.000 A 
ATOM     12  C   UNL     1       1.187   4.177  20.563  0.00  0.00    +0.000 A 
ATOM     13  C   UNL     1       1.867   3.463  19.575  0.00  0.00    +0.000 A 
ATOM     14  C   UNL     1       2.762   4.124  18.726  0.00  0.00    +0.000 A 
ATOM     15  C   UNL     1       3.466   3.369  17.675  0.00  0.00    +0.000 C 
ATOM     16  O   UNL     1       3.191   2.192  17.476  0.00  0.00    +0.000 OA
ENDROOT
BRANCH   1  17
ATOM     17  N   UNL     1       6.339   7.285  16.707  0.00  0.00    +0.000 N 
ATOM     18  H   UNL     1       6.420   7.857  15.854  0.00  0.00    +0.000 HD
BRANCH  17  19
ATOM     19  C   UNL     1       7.498   7.452  17.580  0.00  0.00    +0.000 C 
BRANCH  19  20
ATOM     20  C   UNL     1       7.907   8.926  17.624  0.00  0.00    +0.000 C 
BRANCH  20  21
ATOM     21  C   UNL     1       8.817   9.291  18.806  0.00  0.00    +0.000 C 
BRANCH  21  22
ATOM     22  C   UNL     1       9.284  10.748  18.829  0.00  0.00    +0.000 C 
BRANCH  22  23
ATOM     23  N   UNL     1       9.836  11.109  20.132  0.00  0.00    +0.000 NA
ATOM     24  H   UNL     1       9.368  10.565  20.855  0.00  0.00    +0.000 HD
ATOM     25  H   UNL     1       9.618  12.086  20.329  0.00  0.00    +0.000 HD
ENDBRANCH  22  23
ENDBRANCH  21  22
ENDBRANCH  20  21
ENDBRANCH  19  20
ENDBRANCH  17  19
ENDBRANCH   1  17
TORSDOF 6
ENDMDL
MODEL 2
REMARK VINA RESULT:      -7.3      4.993      7.959
REMARK  Name = 
REMARK  6 active torsions:
REMARK  status: ('A' for Active; 'I' for Inactive)
REMARK    1  A    between atoms: N_1  and  C_2
REMARK    2  A    between atoms: C_2  and  C_3
REMARK    3  A    between atoms: C_3  and  C_4
REMARK    4  A    between atoms: C_4  and  C_5
REMARK    5  A    between atoms: C_5  and  N_6
REMARK    6  A    between atoms: N_6  and  C_7
REMARK                            x       y       z     vdW  Elec       q    Type
REMARK                         _______ _______ _______ _____ _____    ______ ____
ROOT
ATOM      1  C   UNL     1       1.957   7.691  19.918  0.00  0.00    +0.000 A 
ATOM      2  C   UNL     1       2.467   7.508  18.620  0.00  0.00    +0.000 A 
ATOM      3  C   UNL     1       2.268   8.455  17.613  0.00  0.00    +0.000 A 
ATOM      4  C   UNL     1       1.513   9.591  17.872  0.00  0.00    +0.000 A 
ATOM      5  C   UNL     1       0.976   9.793  19.148  0.00  0.00    +0.000 A 
ATOM      6  C   UNL     1       1.213   8.870  20.172  0.00  0.00    +0.000 A 
ATOM      7  C   UNL     1       0.705   9.180  21.539  0.00  0.00    +0.000 C 
ATOM      8  O   UNL     1       1.079   8.538  22.516  0.00  0.00    +0.000 OA
ATOM      9  C   UNL     1      -0.245  10.297  21.728  0.00  0.00    +0.000 A 
ATOM     10  C   UNL     1      -0.855  10.493  22.974  0.00  0.00    +0.000 A 
ATOM     11  C   UNL     1      -1.776  11.528  23.148  0.00  0.00    +0.000 A 
ATOM     12  C   UNL     1      -2.086  12.374  22.082  0.00  0.00    +0.000 A 
ATOM     13  C   UNL     1      -1.463  12.193  20.847  0.00  0.00    +0.000 A 
ATOM     14  C   UNL     1      -0.540  11.154  20.674  0.00  0.00    +0.000 A 
ATOM     15  C   UNL     1       0.126  10.977  19.373  0.00  0.00    +0.000 C 
ATOM     16  O   UNL     1      -0.046  11.797  18.478  0.00  0.00    +0.000 OA
ENDROOT
BRANCH   1  17
ATOM     17  N   UNL     1       2.026   6.656  20.870  0.00  0.00    +0.000 N 
ATOM     18  H   UNL     1       2.627   6.943  21.656  0.00  0.00    +0.000 HD
BRANCH  17  19
ATOM     19  C   UNL     1       2.317   5.292  20.439  0.00  0.00    +0.000 C 
BRANCH  19  20
ATOM     20  C   UNL     1       1.037   4.453  20.472  0.00  0.00    +0.000 C 
BRANCH  20  21
ATOM     21  C   UNL     1       1.261   2.954  20.221  0.00  0.00    +0.000 C 
BRANCH  21  22
ATOM     22  C   UNL     1       0.948   2.488  18.798  0.00  0.00    +0.000 C 
BRANCH  22  23
ATOM     23  N   UNL     1       2.035   1.681  18.252  0.00  0.00    +0.000 NA
ATOM     24  H   UNL     1       1.970   0.736  18.626  0.00  0.00    +0.000 HD
ATOM     25  H   UNL     1       2.926   2.053  18.581  0.00  0.00    +0.000 HD
ENDBRANCH  22  23
ENDBRANCH  21  22
ENDBRANCH  20  21
ENDBRANCH  19  20
ENDBRANCH  17  19
ENDBRANCH   1  17
TORSDOF 6
ENDMDL
MODEL 3
REMARK VINA RESULT:      -7.3      1.518      1.638
REMARK  Name = 
REMARK  6 active torsions:
REMARK  status: ('A' for Active; 'I' for Inactive)
REMARK    1  A    between atoms: N_1  and  C_2
REMARK    2  A    between atoms: C_2  and  C_3
REMARK    3  A    between atoms: C_3  and  C_4
REMARK    4  A    between atoms: C_4  and  C_5
REMARK    5  A    between atoms: C_5  and  N_6
REMARK    6  A    between atoms: N_6  and  C_7
REMARK                            x       y       z     vdW  Elec       q    Type
REMARK                         _______ _______ _______ _____ _____    ______ ____
ROOT
ATOM      1  C   UNL     1       6.656   4.756  17.512  0.00  0.00    +0.000 A 
ATOM      2  C   UNL     1       7.115   4.517  16.204  0.00  0.00    +0.000 A 
ATOM      3  C   UNL     1       6.268   4.034  15.205  0.00  0.00    +0.000 A 
ATOM      4  C   UNL     1       4.946   3.735  15.505  0.00  0.00    +0.000 A 
ATOM      5  C   UNL     1       4.462   3.944  16.802  0.00  0.00    +0.000 A 
ATOM      6  C   UNL     1       5.296   4.472  17.793  0.00  0.00    +0.000 A 
ATOM      7  C   UNL     1       4.708   4.770  19.130  0.00  0.00    +0.000 C 
ATOM      8  O   UNL     1       5.316   5.446  19.956  0.00  0.00    +0.000 OA
ATOM      9  C   UNL     1       3.358   4.268  19.461  0.00  0.00    +0.000 A 
ATOM     10  C   UNL     1       2.864   4.398  20.766  0.00  0.00    +0.000 A 
ATOM     11  C   UNL     1       1.601   3.898  21.090  0.00  0.00    +0.000 A 
ATOM     12  C   UNL     1       0.826   3.272  20.113  0.00  0.00    +0.000 A 
ATOM     13  C   UNL     1       1.307   3.160  18.809  0.00  0.00    +0.000 A 
ATOM     14  C   UNL     1       2.574   3.663  18.485  0.00  0.00    +0.000 A 
ATOM     15  C   UNL     1       3.072   3.556  17.104  0.00  0.00    +0.000 C 
ATOM     16  O   UNL     1       2.341   3.127  16.219  0.00  0.00    +0.000 OA
ENDROOT
BRANCH   1  17
ATOM     17  N   UNL     1       7.557   5.085  18.542  0.00  0.00    +0.000 N 
ATOM     18  H   UNL     1       7.266   4.631  19.421  0.00  0.00    +0.000 HD
BRANCH  17  19
ATOM     19  C   UNL     1       7.936   6.479  18.756  0.00  0.00    +0.000 C 
BRANCH  19  20
ATOM     20  C   UNL     1       7.614   7.302  17.506  0.00  0.00    +0.000 C 
BRANCH  20  21
ATOM     21  C   UNL     1       7.737   8.820  17.705  0.00  0.00    +0.000 C 
BRANCH  21  22
ATOM     22  C   UNL     1       8.807   9.251  18.710  0.00  0.00    +0.000 C 
BRANCH  22  23
ATOM     23  N   UNL     1       9.299  10.594  18.420  0.00  0.00    +0.000 NA
ATOM     24  H   UNL     1       9.555  11.053  19.293  0.00  0.00    +0.000 HD
ATOM     25  H   UNL     1       8.541  11.150  18.023  0.00  0.00    +0.000 HD
ENDBRANCH  22  23
ENDBRANCH  21  22
ENDBRANCH  20  21
ENDBRANCH  19  20
ENDBRANCH  17  19
ENDBRANCH   1  17
TORSDOF 6
ENDMDL
MODEL 4
REMARK VINA RESULT:      -7.3      1.959      2.187
REMARK  Name = 
REMARK  6 active torsions:
REMARK  status: ('A' for Active; 'I' for Inactive)
REMARK    1  A    between atoms: N_1  and  C_2
REMARK    2  A    between atoms: C_2  and  C_3
REMARK    3  A    between atoms: C_3  and  C_4
REMARK    4  A    between atoms: C_4  and  C_5
REMARK    5  A    between atoms: C_5  and  N_6
REMARK    6  A    between atoms: N_6  and  C_7
REMARK                            x       y       z     vdW  Elec       q    Type
REMARK                         _______ _______ _______ _____ _____    ______ ____
ROOT
ATOM      1  C   UNL     1       5.243   5.908  16.066  0.00  0.00    +0.000 A 
ATOM      2  C   UNL     1       6.092   5.240  15.165  0.00  0.00    +0.000 A 
ATOM      3  C   UNL     1       6.119   3.847  15.076  0.00  0.00    +0.000 A 
ATOM      4  C   UNL     1       5.326   3.085  15.925  0.00  0.00    +0.000 A 
ATOM      5  C   UNL     1       4.485   3.718  16.846  0.00  0.00    +0.000 A 
ATOM      6  C   UNL     1       4.420   5.115  16.904  0.00  0.00    +0.000 A 
ATOM      7  C   UNL     1       3.435   5.741  17.832  0.00  0.00    +0.000 C 
ATOM      8  O   UNL     1       3.164   6.936  17.758  0.00  0.00    +0.000 OA
ATOM      9  C   UNL     1       2.751   4.906  18.841  0.00  0.00    +0.000 A 
ATOM     10  C   UNL     1       1.952   5.508  19.822  0.00  0.00    +0.000 A 
ATOM     11  C   UNL     1       1.328   4.725  20.796  0.00  0.00    +0.000 A 
ATOM     12  C   UNL     1       1.494   3.340  20.790  0.00  0.00    +0.000 A 
ATOM     13  C   UNL     1       2.272   2.737  19.802  0.00  0.00    +0.000 A 
ATOM     14  C   UNL     1       2.897   3.523  18.826  0.00  0.00    +0.000 A 
ATOM     15  C   UNL     1       3.705   2.881  17.775  0.00  0.00    +0.000 C 
ATOM     16  O   UNL     1       3.743   1.659  17.692  0.00  0.00    +0.000 OA
ENDROOT
BRANCH   1  17
ATOM     17  N   UNL     1       5.346   7.299  16.256  0.00  0.00    +0.000 N 
ATOM     18  H   UNL     1       5.623   7.754  15.375  0.00  0.00    +0.000 HD
BRANCH  17  19
ATOM     19  C   UNL     1       6.101   7.822  17.392  0.00  0.00    +0.000 C 
BRANCH  19  20
ATOM     20  C   UNL     1       7.554   7.348  17.312  0.00  0.00    +0.000 C 
BRANCH  20  21
ATOM     21  C   UNL     1       8.099   6.765  18.625  0.00  0.00    +0.000 C 
BRANCH  21  22
ATOM     22  C   UNL     1       7.426   5.467  19.077  0.00  0.00    +0.000 C 
BRANCH  22  23
ATOM     23  N   UNL     1       7.825   4.341  18.239  0.00  0.00    +0.000 NA
ATOM     24  H   UNL     1       7.026   4.037  17.685  0.00  0.00    +0.000 HD
ATOM     25  H   UNL     1       8.071   3.551  18.835  0.00  0.00    +0.000 HD
ENDBRANCH  22  23
ENDBRANCH  21  22
ENDBRANCH  20  21
ENDBRANCH  19  20
ENDBRANCH  17  19
ENDBRANCH   1  17
TORSDOF 6
ENDMDL
MODEL 5
REMARK VINA RESULT:      -7.2      3.100      5.945
REMARK  Name = 
REMARK  6 active torsions:
REMARK  status: ('A' for Active; 'I' for Inactive)
REMARK    1  A    between atoms: N_1  and  C_2
REMARK    2  A    between atoms: C_2  and  C_3
REMARK    3  A    between atoms: C_3  and  C_4
REMARK    4  A    between atoms: C_4  and  C_5
REMARK    5  A    between atoms: C_5  and  N_6
REMARK    6  A    between atoms: N_6  and  C_7
REMARK                            x       y       z     vdW  Elec       q    Type
REMARK                         _______ _______ _______ _____ _____    ______ ____
ROOT
ATOM      1  C   UNL     1       2.163   5.975  19.773  0.00  0.00    +0.000 A 
ATOM      2  C   UNL     1       1.397   5.184  20.648  0.00  0.00    +0.000 A 
ATOM      3  C   UNL     1       1.474   3.791  20.636  0.00  0.00    +0.000 A 
ATOM      4  C   UNL     1       2.292   3.152  19.713  0.00  0.00    +0.000 A 
ATOM      5  C   UNL     1       3.053   3.909  18.817  0.00  0.00    +0.000 A 
ATOM      6  C   UNL     1       3.014   5.307  18.858  0.00  0.00    +0.000 A 
ATOM      7  C   UNL     1       3.919   6.069  17.950  0.00  0.00    +0.000 C 
ATOM      8  O   UNL     1       4.104   7.273  18.102  0.00  0.00    +0.000 OA
ATOM      9  C   UNL     1       4.629   5.360  16.865  0.00  0.00    +0.000 A 
ATOM     10  C   UNL     1       5.348   6.089  15.908  0.00  0.00    +0.000 A 
ATOM     11  C   UNL     1       5.994   5.424  14.862  0.00  0.00    +0.000 A 
ATOM     12  C   UNL     1       5.930   4.034  14.773  0.00  0.00    +0.000 A 
ATOM     13  C   UNL     1       5.232   3.306  15.737  0.00  0.00    +0.000 A 
ATOM     14  C   UNL     1       4.584   3.973  16.784  0.00  0.00    +0.000 A 
ATOM     15  C   UNL     1       3.861   3.200  17.808  0.00  0.00    +0.000 C 
ATOM     16  O   UNL     1       3.915   1.976  17.804  0.00  0.00    +0.000 OA
ENDROOT
BRANCH   1  17
ATOM     17  N   UNL     1       1.953   7.364  19.687  0.00  0.00    +0.000 N 
ATOM     18  H   UNL     1       2.781   7.820  19.277  0.00  0.00    +0.000 HD
BRANCH  17  19
ATOM     19  C   UNL     1       1.456   8.096  20.849  0.00  0.00    +0.000 C 
BRANCH  19  20
ATOM     20  C   UNL     1       0.901   9.453  20.409  0.00  0.00    +0.000 C 
BRANCH  20  21
ATOM     21  C   UNL     1       0.375  10.321  21.563  0.00  0.00    +0.000 C 
BRANCH  21  22
ATOM     22  C   UNL     1      -0.466   9.572  22.597  0.00  0.00    +0.000 C 
BRANCH  22  23
ATOM     23  N   UNL     1       0.141   9.634  23.923  0.00  0.00    +0.000 NA
ATOM     24  H   UNL     1       0.148   8.701  24.332  0.00  0.00    +0.000 HD
ATOM     25  H   UNL     1      -0.444  10.205  24.533  0.00  0.00    +0.000 HD
ENDBRANCH  22  23
ENDBRANCH  21  22
ENDBRANCH  20  21
ENDBRANCH  19  20
ENDBRANCH  17  19
ENDBRANCH   1  17
TORSDOF 6
ENDMDL
MODEL 6
REMARK VINA RESULT:      -7.2      3.505      5.718
REMARK  Name = 
REMARK  6 active torsions:
REMARK  status: ('A' for Active; 'I' for Inactive)
REMARK    1  A    between atoms: N_1  and  C_2
REMARK    2  A    between atoms: C_2  and  C_3
REMARK    3  A    between atoms: C_3  and  C_4
REMARK    4  A    between atoms: C_4  and  C_5
REMARK    5  A    between atoms: C_5  and  N_6
REMARK    6  A    between atoms: N_6  and  C_7
REMARK                            x       y       z     vdW  Elec       q    Type
REMARK                         _______ _______ _______ _____ _____    ______ ____
ROOT
ATOM      1  C   UNL     1       4.621   4.287  17.968  0.00  0.00    +0.000 A 
ATOM      2  C   UNL     1       5.332   4.249  16.755  0.00  0.00    +0.000 A 
ATOM      3  C   UNL     1       5.393   5.355  15.905  0.00  0.00    +0.000 A 
ATOM      4  C   UNL     1       4.702   6.515  16.229  0.00  0.00    +0.000 A 
ATOM      5  C   UNL     1       3.970   6.579  17.420  0.00  0.00    +0.000 A 
ATOM      6  C   UNL     1       3.946   5.489  18.296  0.00  0.00    +0.000 A 
ATOM      7  C   UNL     1       3.235   5.642  19.598  0.00  0.00    +0.000 C 
ATOM      8  O   UNL     1       3.376   4.820  20.499  0.00  0.00    +0.000 OA
ATOM      9  C   UNL     1       2.364   6.815  19.820  0.00  0.00    +0.000 A 
ATOM     10  C   UNL     1       1.564   6.886  20.969  0.00  0.00    +0.000 A 
ATOM     11  C   UNL     1       0.718   7.979  21.167  0.00  0.00    +0.000 A 
ATOM     12  C   UNL     1       0.671   9.006  20.225  0.00  0.00    +0.000 A 
ATOM     13  C   UNL     1       1.483   8.948  19.091  0.00  0.00    +0.000 A 
ATOM     14  C   UNL     1       2.331   7.851  18.894  0.00  0.00    +0.000 A 
ATOM     15  C   UNL     1       3.196   7.802  17.703  0.00  0.00    +0.000 C 
ATOM     16  O   UNL     1       3.254   8.763  16.945  0.00  0.00    +0.000 OA
ENDROOT
BRANCH   1  17
ATOM     17  N   UNL     1       4.434   3.118  18.730  0.00  0.00    +0.000 N 
ATOM     18  H   UNL     1       5.346   2.755  19.043  0.00  0.00    +0.000 HD
BRANCH  17  19
ATOM     19  C   UNL     1       3.574   2.052  18.224  0.00  0.00    +0.000 C 
BRANCH  19  20
ATOM     20  C   UNL     1       2.335   2.657  17.558  0.00  0.00    +0.000 C 
BRANCH  20  21
ATOM     21  C   UNL     1       1.129   2.811  18.496  0.00  0.00    +0.000 C 
BRANCH  21  22
ATOM     22  C   UNL     1       1.297   2.158  19.869  0.00  0.00    +0.000 C 
BRANCH  22  23
ATOM     23  N   UNL     1       0.941   3.080  20.943  0.00  0.00    +0.000 NA
ATOM     24  H   UNL     1      -0.073   3.143  21.008  0.00  0.00    +0.000 HD
ATOM     25  H   UNL     1       1.267   4.016  20.702  0.00  0.00    +0.000 HD
ENDBRANCH  22  23
ENDBRANCH  21  22
ENDBRANCH  20  21
ENDBRANCH  19  20
ENDBRANCH  17  19
ENDBRANCH   1  17
TORSDOF 6
ENDMDL
MODEL 7
REMARK VINA RESULT:      -7.2      3.634      6.100
REMARK  Name = 
REMARK  6 active torsions:
REMARK  status: ('A' for Active; 'I' for Inactive)
REMARK    1  A    between atoms: N_1  and  C_2
REMARK    2  A    between atoms: C_2  and  C_3
REMARK    3  A    between atoms: C_3  and  C_4
REMARK    4  A    between atoms: C_4  and  C_5
REMARK    5  A    between atoms: C_5  and  N_6
REMARK    6  A    between atoms: N_6  and  C_7
REMARK                            x       y       z     vdW  Elec       q    Type
REMARK                         _______ _______ _______ _____ _____    ______ ____
ROOT
ATOM      1  C   UNL     1       3.793   5.083  18.616  0.00  0.00    +0.000 A 
ATOM      2  C   UNL     1       4.568   4.971  17.448  0.00  0.00    +0.000 A 
ATOM      3  C   UNL     1       4.700   6.030  16.549  0.00  0.00    +0.000 A 
ATOM      4  C   UNL     1       4.018   7.219  16.776  0.00  0.00    +0.000 A 
ATOM      5  C   UNL     1       3.223   7.356  17.919  0.00  0.00    +0.000 A 
ATOM      6  C   UNL     1       3.127   6.313  18.846  0.00  0.00    +0.000 A 
ATOM      7  C   UNL     1       2.349   6.545  20.097  0.00  0.00    +0.000 C 
ATOM      8  O   UNL     1       2.423   5.767  21.045  0.00  0.00    +0.000 OA
ATOM      9  C   UNL     1       1.494   7.744  20.212  0.00  0.00    +0.000 A 
ATOM     10  C   UNL     1       0.634   7.888  21.310  0.00  0.00    +0.000 A 
ATOM     11  C   UNL     1      -0.199   9.005  21.406  0.00  0.00    +0.000 A 
ATOM     12  C   UNL     1      -0.171   9.984  20.413  0.00  0.00    +0.000 A 
ATOM     13  C   UNL     1       0.700   9.854  19.331  0.00  0.00    +0.000 A 
ATOM     14  C   UNL     1       1.533   8.732  19.235  0.00  0.00    +0.000 A 
ATOM     15  C   UNL     1       2.461   8.606  18.099  0.00  0.00    +0.000 C 
ATOM     16  O   UNL     1       2.581   9.526  17.299  0.00  0.00    +0.000 OA
ENDROOT
BRANCH   1  17
ATOM     17  N   UNL     1       3.540   3.958  19.423  0.00  0.00    +0.000 N 
ATOM     18  H   UNL     1       4.188   3.948  20.224  0.00  0.00    +0.000 HD
BRANCH  17  19
ATOM     19  C   UNL     1       3.419   2.638  18.811  0.00  0.00    +0.000 C 
BRANCH  19  20
ATOM     20  C   UNL     1       2.041   2.047  19.118  0.00  0.00    +0.000 C 
BRANCH  20  21
ATOM     21  C   UNL     1       1.179   2.913  20.049  0.00  0.00    +0.000 C 
BRANCH  21  22
ATOM     22  C   UNL     1       1.232   2.515  21.525  0.00  0.00    +0.000 C 
BRANCH  22  23
ATOM     23  N   UNL     1       2.411   3.071  22.183  0.00  0.00    +0.000 NA
ATOM     24  H   UNL     1       2.603   2.539  23.031  0.00  0.00    +0.000 HD
ATOM     25  H   UNL     1       2.206   4.023  22.489  0.00  0.00    +0.000 HD
ENDBRANCH  22  23
ENDBRANCH  21  22
ENDBRANCH  20  21
ENDBRANCH  19  20
ENDBRANCH  17  19
ENDBRANCH   1  17
TORSDOF 6
ENDMDL
MODEL 8
REMARK VINA RESULT:      -7.1      3.103      5.704
REMARK  Name = 
REMARK  6 active torsions:
REMARK  status: ('A' for Active; 'I' for Inactive)
REMARK    1  A    between atoms: N_1  and  C_2
REMARK    2  A    between atoms: C_2  and  C_3
REMARK    3  A    between atoms: C_3  and  C_4
REMARK    4  A    between atoms: C_4  and  C_5
REMARK    5  A    between atoms: C_5  and  N_6
REMARK    6  A    between atoms: N_6  and  C_7
REMARK                            x       y       z     vdW  Elec       q    Type
REMARK                         _______ _______ _______ _____ _____    ______ ____
ROOT
ATOM      1  C   UNL     1       2.212   6.277  19.854  0.00  0.00    +0.000 A 
ATOM      2  C   UNL     1       1.513   5.521  20.813  0.00  0.00    +0.000 A 
ATOM      3  C   UNL     1       1.640   4.133  20.888  0.00  0.00    +0.000 A 
ATOM      4  C   UNL     1       2.438   3.461  19.972  0.00  0.00    +0.000 A 
ATOM      5  C   UNL     1       3.133   4.181  18.994  0.00  0.00    +0.000 A 
ATOM      6  C   UNL     1       3.045   5.577  18.946  0.00  0.00    +0.000 A 
ATOM      7  C   UNL     1       3.883   6.306  17.950  0.00  0.00    +0.000 C 
ATOM      8  O   UNL     1       4.030   7.523  18.015  0.00  0.00    +0.000 OA
ATOM      9  C   UNL     1       4.568   5.550  16.882  0.00  0.00    +0.000 A 
ATOM     10  C   UNL     1       5.219   6.236  15.847  0.00  0.00    +0.000 A 
ATOM     11  C   UNL     1       5.842   5.525  14.819  0.00  0.00    +0.000 A 
ATOM     12  C   UNL     1       5.824   4.130  14.823  0.00  0.00    +0.000 A 
ATOM     13  C   UNL     1       5.195   3.446  15.864  0.00  0.00    +0.000 A 
ATOM     14  C   UNL     1       4.570   4.160  16.894  0.00  0.00    +0.000 A 
ATOM     15  C   UNL     1       3.920   3.433  17.997  0.00  0.00    +0.000 C 
ATOM     16  O   UNL     1       4.018   2.214  18.071  0.00  0.00    +0.000 OA
ENDROOT
BRANCH   1  17
ATOM     17  N   UNL     1       1.949   7.649  19.688  0.00  0.00    +0.000 N 
ATOM     18  H   UNL     1       2.795   8.130  19.351  0.00  0.00    +0.000 HD
BRANCH  17  19
ATOM     19  C   UNL     1       1.293   8.397  20.757  0.00  0.00    +0.000 C 
BRANCH  19  20
ATOM     20  C   UNL     1       1.065   9.844  20.314  0.00  0.00    +0.000 C 
BRANCH  20  21
ATOM     21  C   UNL     1      -0.134  10.032  19.372  0.00  0.00    +0.000 C 
BRANCH  21  22
ATOM     22  C   UNL     1       0.204   9.960  17.882  0.00  0.00    +0.000 C 
BRANCH  22  23
ATOM     23  N   UNL     1       1.646   9.894  17.666  0.00  0.00    +0.000 NA
ATOM     24  H   UNL     1       2.041   9.169  18.263  0.00  0.00    +0.000 HD
ATOM     25  H   UNL     1       2.070  10.771  17.970  0.00  0.00    +0.000 HD
ENDBRANCH  22  23
ENDBRANCH  21  22
ENDBRANCH  20  21
ENDBRANCH  19  20
ENDBRANCH  17  19
ENDBRANCH   1  17
TORSDOF 6
ENDMDL
MODEL 9
REMARK VINA RESULT:      -7.1      4.202      6.772
REMARK  Name = 
REMARK  6 active torsions:
REMARK  status: ('A' for Active; 'I' for Inactive)
REMARK    1  A    between atoms: N_1  and  C_2
REMARK    2  A    between atoms: C_2  and  C_3
REMARK    3  A    between atoms: C_3  and  C_4
REMARK    4  A    between atoms: C_4  and  C_5
REMARK    5  A    between atoms: C_5  and  N_6
REMARK    6  A    between atoms: N_6  and  C_7
REMARK                            x       y       z     vdW  Elec       q    Type
REMARK                         _______ _______ _______ _____ _____    ______ ____
ROOT
ATOM      1  C   UNL     1       2.594   6.216  19.783  0.00  0.00    +0.000 A 
ATOM      2  C   UNL     1       3.429   5.693  18.780  0.00  0.00    +0.000 A 
ATOM      3  C   UNL     1       3.789   6.444  17.659  0.00  0.00    +0.000 A 
ATOM      4  C   UNL     1       3.283   7.726  17.494  0.00  0.00    +0.000 A 
ATOM      5  C   UNL     1       2.434   8.269  18.466  0.00  0.00    +0.000 A 
ATOM      6  C   UNL     1       2.110   7.537  19.613  0.00  0.00    +0.000 A 
ATOM      7  C   UNL     1       1.285   8.197  20.665  0.00  0.00    +0.000 C 
ATOM      8  O   UNL     1       1.167   7.702  21.783  0.00  0.00    +0.000 OA
ATOM      9  C   UNL     1       0.618   9.482  20.370  0.00  0.00    +0.000 A 
ATOM     10  C   UNL     1      -0.290  10.026  21.288  0.00  0.00    +0.000 A 
ATOM     11  C   UNL     1      -0.946  11.225  20.999  0.00  0.00    +0.000 A 
ATOM     12  C   UNL     1      -0.694  11.886  19.797  0.00  0.00    +0.000 A 
ATOM     13  C   UNL     1       0.226  11.357  18.891  0.00  0.00    +0.000 A 
ATOM     14  C   UNL     1       0.882  10.155  19.182  0.00  0.00    +0.000 A 
ATOM     15  C   UNL     1       1.863   9.607  18.230  0.00  0.00    +0.000 C 
ATOM     16  O   UNL     1       2.182  10.253  17.239  0.00  0.00    +0.000 OA
ENDROOT
BRANCH   1  17
ATOM     17  N   UNL     1       2.111   5.394  20.819  0.00  0.00    +0.000 N 
ATOM     18  H   UNL     1       2.901   5.003  21.353  0.00  0.00    +0.000 HD
BRANCH  17  19
ATOM     19  C   UNL     1       1.102   4.380  20.529  0.00  0.00    +0.000 C 
BRANCH  19  20
ATOM     20  C   UNL     1       1.478   3.062  21.212  0.00  0.00    +0.000 C 
BRANCH  20  21
ATOM     21  C   UNL     1       2.981   2.747  21.185  0.00  0.00    +0.000 C 
BRANCH  21  22
ATOM     22  C   UNL     1       3.503   2.226  19.845  0.00  0.00    +0.000 C 
BRANCH  22  23
ATOM     23  N   UNL     1       4.936   2.464  19.703  0.00  0.00    +0.000 NA
ATOM     24  H   UNL     1       5.359   1.678  19.212  0.00  0.00    +0.000 HD
ATOM     25  H   UNL     1       5.366   2.481  20.628  0.00  0.00    +0.000 HD
ENDBRANCH  22  23
ENDBRANCH  21  22
ENDBRANCH  20  21
ENDBRANCH  19  20
ENDBRANCH  17  19
ENDBRANCH   1  17
TORSDOF 6
ENDMDL
