MODEL 1
REMARK VINA RESULT:      -7.6      0.000      0.000
REMARK  Name = 
REMARK  5 active torsions:
REMARK  status: ('A' for Active; 'I' for Inactive)
REMARK    1  A    between atoms: C_1  and  C_2
REMARK    2  A    between atoms: C_5  and  C_6
REMARK    3  A    between atoms: N_8  and  C_9
REMARK    4  A    between atoms: C_16  and  S_17
REMARK    5  A    between atoms: S_17  and  N_20
REMARK                            x       y       z     vdW  Elec       q    Type
REMARK                         _______ _______ _______ _____ _____    ______ ____
ROOT
ATOM      1  C   UNL     1       3.176   2.592  20.707  0.00  0.00    +0.000 C 
ATOM      2  C   UNL     1       2.701   3.945  20.263  0.00  0.00    +0.000 A 
ATOM      3  C   UNL     1       1.499   4.409  20.809  0.00  0.00    +0.000 A 
ATOM      4  C   UNL     1       1.136   5.742  20.681  0.00  0.00    +0.000 A 
ATOM      5  C   UNL     1       1.976   6.662  20.036  0.00  0.00    +0.000 A 
ATOM      6  C   UNL     1       3.115   6.187  19.366  0.00  0.00    +0.000 A 
ATOM      7  C   UNL     1       3.464   4.822  19.464  0.00  0.00    +0.000 A 
ENDROOT
BRANCH   5   8
ATOM      8  C   UNL     1       1.605   8.099  20.237  0.00  0.00    +0.000 C 
ATOM      9  O   UNL     1       1.617   8.528  21.389  0.00  0.00    +0.000 OA
ATOM     10  N   UNL     1       1.287   8.865  19.130  0.00  0.00    +0.000 N 
ATOM     11  H   UNL     1       1.046   8.397  18.267  0.00  0.00    +0.000 HD
BRANCH  10  12
ATOM     12  C   UNL     1       1.059  10.264  19.179  0.00  0.00    +0.000 A 
ATOM     13  C   UNL     1      -0.029  10.838  19.839  0.00  0.00    +0.000 A 
ATOM     14  C   UNL     1      -0.202  12.210  19.776  0.00  0.00    +0.000 A 
ATOM     15  N   UNL     1       0.637  13.038  19.122  0.00  0.00    +0.000 NA
ATOM     16  C   UNL     1       1.700  12.465  18.522  0.00  0.00    +0.000 A 
ATOM     17  C   UNL     1       1.963  11.102  18.536  0.00  0.00    +0.000 A 
ENDBRANCH  10  12
ENDBRANCH   5   8
BRANCH   7  18
ATOM     18  S   UNL     1       4.823   4.188  18.464  0.00  0.00    +0.000 S 
ATOM     19  O   UNL     1       5.958   4.040  19.350  0.00  0.00    +0.000 OA
ATOM     20  O   UNL     1       4.316   3.054  17.711  0.00  0.00    +0.000 OA
BRANCH  18  21
ATOM     21  N   UNL     1       5.123   5.432  17.368  0.00  0.00    +0.000 NA
ATOM     22  C   UNL     1       5.263   5.084  15.932  0.00  0.00    +0.000 C 
ATOM     23  C   UNL     1       6.743   4.900  15.582  0.00  0.00    +0.000 C 
ATOM     24  O   UNL     1       7.453   6.125  15.816  0.00  0.00    +0.000 OA
ATOM     25  C   UNL     1       7.417   6.478  17.205  0.00  0.00    +0.000 C 
ATOM     26  C   UNL     1       5.991   6.577  17.765  0.00  0.00    +0.000 C 
ENDBRANCH  18  21
ENDBRANCH   7  18
TORSDOF 4
ENDMDL
MODEL 2
REMARK VINA RESULT:      -7.5      0.499      1.017
REMARK  Name = 
REMARK  5 active torsions:
REMARK  status: ('A' for Active; 'I' for Inactive)
REMARK    1  A    between atoms: C_1  and  C_2
REMARK    2  A    between atoms: C_5  and  C_6
REMARK    3  A    between atoms: N_8  and  C_9
REMARK    4  A    between atoms: C_16  and  S_17
REMARK    5  A    between atoms: S_17  and  N_20
REMARK                            x       y       z     vdW  Elec       q    Type
REMARK                         _______ _______ _______ _____ _____    ______ ____
ROOT
ATOM      1  C   UNL     1       3.507   2.849  20.798  0.00  0.00    +0.000 C 
ATOM      2  C   UNL     1       2.894   4.105  20.249  0.00  0.00    +0.000 A 
ATOM      3  C   UNL     1       1.773   4.611  20.916  0.00  0.00    +0.000 A 
ATOM      4  C   UNL     1       1.323   5.898  20.659  0.00  0.00    +0.000 A 
ATOM      5  C   UNL     1       1.995   6.733  19.755  0.00  0.00    +0.000 A 
ATOM      6  C   UNL     1       3.035   6.195  18.979  0.00  0.00    +0.000 A 
ATOM      7  C   UNL     1       3.468   4.871  19.213  0.00  0.00    +0.000 A 
ENDROOT
BRANCH   5   8
ATOM      8  C   UNL     1       1.586   8.172  19.804  0.00  0.00    +0.000 C 
ATOM      9  O   UNL     1       1.340   8.651  20.910  0.00  0.00    +0.000 OA
ATOM     10  N   UNL     1       1.519   8.886  18.621  0.00  0.00    +0.000 N 
ATOM     11  H   UNL     1       1.478   8.379  17.749  0.00  0.00    +0.000 HD
BRANCH  10  12
ATOM     12  C   UNL     1       1.282  10.284  18.557  0.00  0.00    +0.000 A 
ATOM     13  C   UNL     1       2.299  11.226  18.394  0.00  0.00    +0.000 A 
ATOM     14  C   UNL     1       1.973  12.570  18.408  0.00  0.00    +0.000 A 
ATOM     15  N   UNL     1       0.716  13.032  18.554  0.00  0.00    +0.000 NA
ATOM     16  C   UNL     1      -0.255  12.104  18.675  0.00  0.00    +0.000 A 
ATOM     17  C   UNL     1      -0.030  10.734  18.664  0.00  0.00    +0.000 A 
ENDBRANCH  10  12
ENDBRANCH   5   8
BRANCH   7  18
ATOM     18  S   UNL     1       4.679   4.132  18.101  0.00  0.00    +0.000 S 
ATOM     19  O   UNL     1       5.823   3.773  18.911  0.00  0.00    +0.000 OA
ATOM     20  O   UNL     1       3.987   3.131  17.309  0.00  0.00    +0.000 OA
BRANCH  18  21
ATOM     21  N   UNL     1       5.094   5.398  17.069  0.00  0.00    +0.000 NA
ATOM     22  C   UNL     1       5.334   5.087  15.638  0.00  0.00    +0.000 C 
ATOM     23  C   UNL     1       6.830   4.871  15.395  0.00  0.00    +0.000 C 
ATOM     24  O   UNL     1       7.553   6.068  15.718  0.00  0.00    +0.000 OA
ATOM     25  C   UNL     1       7.421   6.382  17.111  0.00  0.00    +0.000 C 
ATOM     26  C   UNL     1       5.959   6.506  17.565  0.00  0.00    +0.000 C 
ENDBRANCH  18  21
ENDBRANCH   7  18
TORSDOF 4
ENDMDL
MODEL 3
REMARK VINA RESULT:      -7.4      1.197      1.208
REMARK  Name = 
REMARK  5 active torsions:
REMARK  status: ('A' for Active; 'I' for Inactive)
REMARK    1  A    between atoms: C_1  and  C_2
REMARK    2  A    between atoms: C_5  and  C_6
REMARK    3  A    between atoms: N_8  and  C_9
REMARK    4  A    between atoms: C_16  and  S_17
REMARK    5  A    between atoms: S_17  and  N_20
REMARK                            x       y       z     vdW  Elec       q    Type
REMARK                         _______ _______ _______ _____ _____    ______ ____
ROOT
ATOM      1  C   UNL     1       3.231   2.966  20.944  0.00  0.00    +0.000 C 
ATOM      2  C   UNL     1       2.734   4.214  20.272  0.00  0.00    +0.000 A 
ATOM      3  C   UNL     1       1.571   4.795  20.789  0.00  0.00    +0.000 A 
ATOM      4  C   UNL     1       1.206   6.083  20.424  0.00  0.00    +0.000 A 
ATOM      5  C   UNL     1       2.006   6.845  19.561  0.00  0.00    +0.000 A 
ATOM      6  C   UNL     1       3.099   6.230  18.928  0.00  0.00    +0.000 A 
ATOM      7  C   UNL     1       3.448   4.904  19.271  0.00  0.00    +0.000 A 
ENDROOT
BRANCH   5   8
ATOM      8  C   UNL     1       1.656   8.299  19.498  0.00  0.00    +0.000 C 
ATOM      9  O   UNL     1       2.132   8.955  18.573  0.00  0.00    +0.000 OA
ATOM     10  N   UNL     1       0.812   8.823  20.462  0.00  0.00    +0.000 N 
ATOM     11  H   UNL     1       0.673   8.306  21.318  0.00  0.00    +0.000 HD
BRANCH  10  12
ATOM     12  C   UNL     1       0.299  10.145  20.426  0.00  0.00    +0.000 A 
ATOM     13  C   UNL     1      -0.822  10.510  19.678  0.00  0.00    +0.000 A 
ATOM     14  C   UNL     1      -1.206  11.839  19.656  0.00  0.00    +0.000 A 
ATOM     15  N   UNL     1      -0.567  12.812  20.334  0.00  0.00    +0.000 NA
ATOM     16  C   UNL     1       0.492  12.431  21.077  0.00  0.00    +0.000 A 
ATOM     17  C   UNL     1       0.949  11.124  21.171  0.00  0.00    +0.000 A 
ENDBRANCH  10  12
ENDBRANCH   5   8
BRANCH   7  18
ATOM     18  S   UNL     1       4.738   4.064  18.333  0.00  0.00    +0.000 S 
ATOM     19  O   UNL     1       5.886   3.960  19.207  0.00  0.00    +0.000 OA
ATOM     20  O   UNL     1       4.143   2.878  17.743  0.00  0.00    +0.000 OA
BRANCH  18  21
ATOM     21  N   UNL     1       5.080   5.137  17.080  0.00  0.00    +0.000 NA
ATOM     22  C   UNL     1       5.353   4.579  15.733  0.00  0.00    +0.000 C 
ATOM     23  C   UNL     1       6.863   4.420  15.530  0.00  0.00    +0.000 C 
ATOM     24  O   UNL     1       7.503   5.701  15.621  0.00  0.00    +0.000 OA
ATOM     25  C   UNL     1       7.337   6.263  16.930  0.00  0.00    +0.000 C 
ATOM     26  C   UNL     1       5.866   6.374  17.356  0.00  0.00    +0.000 C 
ENDBRANCH  18  21
ENDBRANCH   7  18
TORSDOF 4
ENDMDL
MODEL 4
REMARK VINA RESULT:      -7.1      1.445      1.787
REMARK  Name = 
REMARK  5 active torsions:
REMARK  status: ('A' for Active; 'I' for Inactive)
REMARK    1  A    between atoms: C_1  and  C_2
REMARK    2  A    between atoms: C_5  and  C_6
REMARK    3  A    between atoms: N_8  and  C_9
REMARK    4  A    between atoms: C_16  and  S_17
REMARK    5  A    between atoms: S_17  and  N_20
REMARK                            x       y       z     vdW  Elec       q    Type
REMARK                         _______ _______ _______ _____ _____    ______ ____
ROOT
ATOM      1  C   UNL     1       2.870   4.152  21.066  0.00  0.00    +0.000 C 
ATOM      2  C   UNL     1       2.433   5.282  20.178  0.00  0.00    +0.000 A 
ATOM      3  C   UNL     1       1.489   6.174  20.699  0.00  0.00    +0.000 A 
ATOM      4  C   UNL     1       1.247   7.388  20.073  0.00  0.00    +0.000 A 
ATOM      5  C   UNL     1       1.962   7.766  18.927  0.00  0.00    +0.000 A 
ATOM      6  C   UNL     1       2.810   6.829  18.316  0.00  0.00    +0.000 A 
ATOM      7  C   UNL     1       3.028   5.577  18.933  0.00  0.00    +0.000 A 
ENDROOT
BRANCH   5   8
ATOM      8  C   UNL     1       1.816   9.206  18.543  0.00  0.00    +0.000 C 
ATOM      9  O   UNL     1       2.253   9.544  17.444  0.00  0.00    +0.000 OA
ATOM     10  N   UNL     1       1.192  10.070  19.425  0.00  0.00    +0.000 N 
ATOM     11  H   UNL     1       1.097   9.793  20.392  0.00  0.00    +0.000 HD
BRANCH  10  12
ATOM     12  C   UNL     1       0.873  11.417  19.114  0.00  0.00    +0.000 A 
ATOM     13  C   UNL     1       1.782  12.468  19.243  0.00  0.00    +0.000 A 
ATOM     14  C   UNL     1       1.356  13.758  18.977  0.00  0.00    +0.000 A 
ATOM     15  N   UNL     1       0.105  14.063  18.581  0.00  0.00    +0.000 NA
ATOM     16  C   UNL     1      -0.747  13.029  18.429  0.00  0.00    +0.000 A 
ATOM     17  C   UNL     1      -0.412  11.702  18.663  0.00  0.00    +0.000 A 
ENDBRANCH  10  12
ENDBRANCH   5   8
BRANCH   7  18
ATOM     18  S   UNL     1       3.976   4.318  18.059  0.00  0.00    +0.000 S 
ATOM     19  O   UNL     1       4.602   3.493  19.069  0.00  0.00    +0.000 OA
ATOM     20  O   UNL     1       3.100   3.732  17.060  0.00  0.00    +0.000 OA
BRANCH  18  21
ATOM     21  N   UNL     1       5.155   5.204  17.244  0.00  0.00    +0.000 NA
ATOM     22  C   UNL     1       5.351   4.946  15.797  0.00  0.00    +0.000 C 
ATOM     23  C   UNL     1       6.481   3.933  15.595  0.00  0.00    +0.000 C 
ATOM     24  O   UNL     1       7.707   4.459  16.124  0.00  0.00    +0.000 OA
ATOM     25  C   UNL     1       7.605   4.661  17.540  0.00  0.00    +0.000 C 
ATOM     26  C   UNL     1       6.425   5.561  17.938  0.00  0.00    +0.000 C 
ENDBRANCH  18  21
ENDBRANCH   7  18
TORSDOF 4
ENDMDL
MODEL 5
REMARK VINA RESULT:      -7.1      2.313      4.409
REMARK  Name = 
REMARK  5 active torsions:
REMARK  status: ('A' for Active; 'I' for Inactive)
REMARK    1  A    between atoms: C_1  and  C_2
REMARK    2  A    between atoms: C_5  and  C_6
REMARK    3  A    between atoms: N_8  and  C_9
REMARK    4  A    between atoms: C_16  and  S_17
REMARK    5  A    between atoms: S_17  and  N_20
REMARK                            x       y       z     vdW  Elec       q    Type
REMARK                         _______ _______ _______ _____ _____    ______ ____
ROOT
ATOM      1  C   UNL     1       5.141   4.360  16.119  0.00  0.00    +0.000 C 
ATOM      2  C   UNL     1       4.445   5.395  16.956  0.00  0.00    +0.000 A 
ATOM      3  C   UNL     1       4.944   6.701  16.898  0.00  0.00    +0.000 A 
ATOM      4  C   UNL     1       4.203   7.760  17.403  0.00  0.00    +0.000 A 
ATOM      5  C   UNL     1       2.928   7.555  17.950  0.00  0.00    +0.000 A 
ATOM      6  C   UNL     1       2.474   6.240  18.140  0.00  0.00    +0.000 A 
ATOM      7  C   UNL     1       3.246   5.159  17.660  0.00  0.00    +0.000 A 
ENDROOT
BRANCH   5   8
ATOM      8  C   UNL     1       2.132   8.804  18.172  0.00  0.00    +0.000 C 
ATOM      9  O   UNL     1       2.168   9.661  17.290  0.00  0.00    +0.000 OA
ATOM     10  N   UNL     1       1.394   8.924  19.336  0.00  0.00    +0.000 N 
ATOM     11  H   UNL     1       1.611   8.318  20.114  0.00  0.00    +0.000 HD
BRANCH  10  12
ATOM     12  C   UNL     1       0.495   9.992  19.592  0.00  0.00    +0.000 A 
ATOM     13  C   UNL     1      -0.645  10.233  18.823  0.00  0.00    +0.000 A 
ATOM     14  C   UNL     1      -1.424  11.339  19.112  0.00  0.00    +0.000 A 
ATOM     15  N   UNL     1      -1.157  12.199  20.114  0.00  0.00    +0.000 NA
ATOM     16  C   UNL     1      -0.070  11.927  20.866  0.00  0.00    +0.000 A 
ATOM     17  C   UNL     1       0.767  10.840  20.661  0.00  0.00    +0.000 A 
ENDBRANCH  10  12
ENDBRANCH   5   8
BRANCH   7  18
ATOM     18  S   UNL     1       2.744   3.474  18.060  0.00  0.00    +0.000 S 
ATOM     19  O   UNL     1       2.065   2.955  16.893  0.00  0.00    +0.000 OA
ATOM     20  O   UNL     1       3.905   2.795  18.607  0.00  0.00    +0.000 OA
BRANCH  18  21
ATOM     21  N   UNL     1       1.637   3.677  19.313  0.00  0.00    +0.000 NA
ATOM     22  C   UNL     1       1.854   4.792  20.267  0.00  0.00    +0.000 C 
ATOM     23  C   UNL     1       2.613   4.287  21.497  0.00  0.00    +0.000 C 
ATOM     24  O   UNL     1       1.842   3.275  22.162  0.00  0.00    +0.000 OA
ATOM     25  C   UNL     1       1.660   2.134  21.313  0.00  0.00    +0.000 C 
ATOM     26  C   UNL     1       1.022   2.483  19.961  0.00  0.00    +0.000 C 
ENDBRANCH  18  21
ENDBRANCH   7  18
TORSDOF 4
ENDMDL
MODEL 6
REMARK VINA RESULT:      -7.0      1.339      1.423
REMARK  Name = 
REMARK  5 active torsions:
REMARK  status: ('A' for Active; 'I' for Inactive)
REMARK    1  A    between atoms: C_1  and  C_2
REMARK    2  A    between atoms: C_5  and  C_6
REMARK    3  A    between atoms: N_8  and  C_9
REMARK    4  A    between atoms: C_16  and  S_17
REMARK    5  A    between atoms: S_17  and  N_20
REMARK                            x       y       z     vdW  Elec       q    Type
REMARK                         _______ _______ _______ _____ _____    ______ ____
ROOT
ATOM      1  C   UNL     1       2.878   3.900  21.274  0.00  0.00    +0.000 C 
ATOM      2  C   UNL     1       2.465   5.019  20.361  0.00  0.00    +0.000 A 
ATOM      3  C   UNL     1       1.438   5.858  20.806  0.00  0.00    +0.000 A 
ATOM      4  C   UNL     1       1.192   7.066  20.170  0.00  0.00    +0.000 A 
ATOM      5  C   UNL     1       1.983   7.492  19.094  0.00  0.00    +0.000 A 
ATOM      6  C   UNL     1       2.925   6.604  18.551  0.00  0.00    +0.000 A 
ATOM      7  C   UNL     1       3.149   5.356  19.174  0.00  0.00    +0.000 A 
ENDROOT
BRANCH   5   8
ATOM      8  C   UNL     1       1.802   8.928  18.710  0.00  0.00    +0.000 C 
ATOM      9  O   UNL     1       2.296   9.294  17.645  0.00  0.00    +0.000 OA
ATOM     10  N   UNL     1       1.084   9.757  19.554  0.00  0.00    +0.000 N 
ATOM     11  H   UNL     1       0.937   9.467  20.510  0.00  0.00    +0.000 HD
BRANCH  10  12
ATOM     12  C   UNL     1       0.728  11.092  19.231  0.00  0.00    +0.000 A 
ATOM     13  C   UNL     1      -0.488  11.437  18.638  0.00  0.00    +0.000 A 
ATOM     14  C   UNL     1      -0.716  12.759  18.302  0.00  0.00    +0.000 A 
ATOM     15  N   UNL     1       0.167  13.751  18.531  0.00  0.00    +0.000 NA
ATOM     16  C   UNL     1       1.320  13.400  19.137  0.00  0.00    +0.000 A 
ATOM     17  C   UNL     1       1.637  12.104  19.520  0.00  0.00    +0.000 A 
ENDBRANCH  10  12
ENDBRANCH   5   8
BRANCH   7  18
ATOM     18  S   UNL     1       4.229   4.154  18.375  0.00  0.00    +0.000 S 
ATOM     19  O   UNL     1       5.074   3.601  19.411  0.00  0.00    +0.000 OA
ATOM     20  O   UNL     1       3.390   3.292  17.561  0.00  0.00    +0.000 OA
BRANCH  18  21
ATOM     21  N   UNL     1       5.160   5.091  17.329  0.00  0.00    +0.000 NA
ATOM     22  C   UNL     1       5.092   4.800  15.876  0.00  0.00    +0.000 C 
ATOM     23  C   UNL     1       6.234   3.860  15.479  0.00  0.00    +0.000 C 
ATOM     24  O   UNL     1       7.496   4.487  15.749  0.00  0.00    +0.000 OA
ATOM     25  C   UNL     1       7.654   4.730  17.153  0.00  0.00    +0.000 C 
ATOM     26  C   UNL     1       6.510   5.558  17.755  0.00  0.00    +0.000 C 
ENDBRANCH  18  21
ENDBRANCH   7  18
TORSDOF 4
ENDMDL
MODEL 7
REMARK VINA RESULT:      -7.0      1.814      2.103
REMARK  Name = 
REMARK  5 active torsions:
REMARK  status: ('A' for Active; 'I' for Inactive)
REMARK    1  A    between atoms: C_1  and  C_2
REMARK    2  A    between atoms: C_5  and  C_6
REMARK    3  A    between atoms: N_8  and  C_9
REMARK    4  A    between atoms: C_16  and  S_17
REMARK    5  A    between atoms: S_17  and  N_20
REMARK                            x       y       z     vdW  Elec       q    Type
REMARK                         _______ _______ _______ _____ _____    ______ ____
ROOT
ATOM      1  C   UNL     1       2.764   2.615  18.742  0.00  0.00    +0.000 C 
ATOM      2  C   UNL     1       2.797   4.072  18.378  0.00  0.00    +0.000 A 
ATOM      3  C   UNL     1       1.636   4.616  17.819  0.00  0.00    +0.000 A 
ATOM      4  C   UNL     1       1.480   5.991  17.720  0.00  0.00    +0.000 A 
ATOM      5  C   UNL     1       2.461   6.867  18.207  0.00  0.00    +0.000 A 
ATOM      6  C   UNL     1       3.687   6.339  18.642  0.00  0.00    +0.000 A 
ATOM      7  C   UNL     1       3.861   4.939  18.706  0.00  0.00    +0.000 A 
ENDROOT
BRANCH   5   8
ATOM      8  C   UNL     1       2.031   8.298  18.309  0.00  0.00    +0.000 C 
ATOM      9  O   UNL     1       2.378   9.058  17.407  0.00  0.00    +0.000 OA
ATOM     10  N   UNL     1       1.262   8.685  19.393  0.00  0.00    +0.000 N 
ATOM     11  H   UNL     1       1.237   8.090  20.208  0.00  0.00    +0.000 HD
BRANCH  10  12
ATOM     12  C   UNL     1       0.680   9.973  19.525  0.00  0.00    +0.000 A 
ATOM     13  C   UNL     1       1.133  10.925  20.440  0.00  0.00    +0.000 A 
ATOM     14  C   UNL     1       0.458  12.129  20.540  0.00  0.00    +0.000 A 
ATOM     15  N   UNL     1      -0.612  12.449  19.787  0.00  0.00    +0.000 NA
ATOM     16  C   UNL     1      -1.010  11.529  18.885  0.00  0.00    +0.000 A 
ATOM     17  C   UNL     1      -0.394  10.298  18.704  0.00  0.00    +0.000 A 
ENDBRANCH  10  12
ENDBRANCH   5   8
BRANCH   7  18
ATOM     18  S   UNL     1       5.489   4.271  19.098  0.00  0.00    +0.000 S 
ATOM     19  O   UNL     1       6.191   5.296  19.839  0.00  0.00    +0.000 OA
ATOM     20  O   UNL     1       5.290   2.949  19.665  0.00  0.00    +0.000 OA
BRANCH  18  21
ATOM     21  N   UNL     1       6.209   4.073  17.588  0.00  0.00    +0.000 NA
ATOM     22  C   UNL     1       7.505   4.749  17.335  0.00  0.00    +0.000 C 
ATOM     23  C   UNL     1       7.266   6.096  16.648  0.00  0.00    +0.000 C 
ATOM     24  O   UNL     1       6.617   5.889  15.384  0.00  0.00    +0.000 OA
ATOM     25  C   UNL     1       5.321   5.302  15.567  0.00  0.00    +0.000 C 
ATOM     26  C   UNL     1       5.360   3.991  16.366  0.00  0.00    +0.000 C 
ENDBRANCH  18  21
ENDBRANCH   7  18
TORSDOF 4
ENDMDL
MODEL 8
REMARK VINA RESULT:      -6.8      3.678      8.336
REMARK  Name = 
REMARK  5 active torsions:
REMARK  status: ('A' for Active; 'I' for Inactive)
REMARK    1  A    between atoms: C_1  and  C_2
REMARK    2  A    between atoms: C_5  and  C_6
REMARK    3  A    between atoms: N_8  and  C_9
REMARK    4  A    between atoms: C_16  and  S_17
REMARK    5  A    between atoms: S_17  and  N_20
REMARK                            x       y       z     vdW  Elec       q    Type
REMARK                         _______ _______ _______ _____ _____    ______ ____
ROOT
ATOM      1  C   UNL     1      -1.804  11.924  23.035  0.00  0.00    +0.000 C 
ATOM      2  C   UNL     1      -0.689  11.083  22.482  0.00  0.00    +0.000 A 
ATOM      3  C   UNL     1      -0.615   9.756  22.920  0.00  0.00    +0.000 A 
ATOM      4  C   UNL     1       0.191   8.841  22.258  0.00  0.00    +0.000 A 
ATOM      5  C   UNL     1       0.921   9.211  21.119  0.00  0.00    +0.000 A 
ATOM      6  C   UNL     1       0.964  10.565  20.750  0.00  0.00    +0.000 A 
ATOM      7  C   UNL     1       0.173  11.505  21.449  0.00  0.00    +0.000 A 
ENDROOT
BRANCH   5   8
ATOM      8  C   UNL     1       1.496   8.067  20.342  0.00  0.00    +0.000 C 
ATOM      9  O   UNL     1       1.897   8.303  19.204  0.00  0.00    +0.000 OA
ATOM     10  N   UNL     1       1.559   6.822  20.941  0.00  0.00    +0.000 N 
ATOM     11  H   UNL     1       0.987   6.644  21.754  0.00  0.00    +0.000 HD
BRANCH  10  12
ATOM     12  C   UNL     1       2.207   5.701  20.361  0.00  0.00    +0.000 A 
ATOM     13  C   UNL     1       3.386   5.798  19.620  0.00  0.00    +0.000 A 
ATOM     14  C   UNL     1       3.906   4.655  19.039  0.00  0.00    +0.000 A 
ATOM     15  N   UNL     1       3.348   3.435  19.160  0.00  0.00    +0.000 NA
ATOM     16  C   UNL     1       2.229   3.359  19.910  0.00  0.00    +0.000 A 
ATOM     17  C   UNL     1       1.636   4.445  20.539  0.00  0.00    +0.000 A 
ENDBRANCH  10  12
ENDBRANCH   5   8
BRANCH   7  18
ATOM     18  S   UNL     1       0.365  13.260  21.086  0.00  0.00    +0.000 S 
ATOM     19  O   UNL     1      -0.711  13.619  20.188  0.00  0.00    +0.000 OA
ATOM     20  O   UNL     1       0.537  13.948  22.353  0.00  0.00    +0.000 OA
BRANCH  18  21
ATOM     21  N   UNL     1       1.834  13.336  20.264  0.00  0.00    +0.000 NA
ATOM     22  C   UNL     1       3.012  13.883  20.980  0.00  0.00    +0.000 C 
ATOM     23  C   UNL     1       3.167  15.374  20.667  0.00  0.00    +0.000 C 
ATOM     24  O   UNL     1       3.378  15.556  19.259  0.00  0.00    +0.000 OA
ATOM     25  C   UNL     1       2.237  15.111  18.512  0.00  0.00    +0.000 C 
ATOM     26  C   UNL     1       1.853  13.654  18.807  0.00  0.00    +0.000 C 
ENDBRANCH  18  21
ENDBRANCH   7  18
TORSDOF 4
ENDMDL
MODEL 9
REMARK VINA RESULT:      -6.8      3.580      8.234
REMARK  Name = 
REMARK  5 active torsions:
REMARK  status: ('A' for Active; 'I' for Inactive)
REMARK    1  A    between atoms: C_1  and  C_2
REMARK    2  A    between atoms: C_5  and  C_6
REMARK    3  A    between atoms: N_8  and  C_9
REMARK    4  A    between atoms: C_16  and  S_17
REMARK    5  A    between atoms: S_17  and  N_20
REMARK                            x       y       z     vdW  Elec       q    Type
REMARK                         _______ _______ _______ _____ _____    ______ ____
ROOT
ATOM      1  C   UNL     1      -1.386  11.057  23.163  0.00  0.00    +0.000 C 
ATOM      2  C   UNL     1      -0.273  10.479  22.337  0.00  0.00    +0.000 A 
ATOM      3  C   UNL     1       0.139   9.178  22.644  0.00  0.00    +0.000 A 
ATOM      4  C   UNL     1       0.947   8.470  21.766  0.00  0.00    +0.000 A 
ATOM      5  C   UNL     1       1.340   9.023  20.539  0.00  0.00    +0.000 A 
ATOM      6  C   UNL     1       1.051  10.372  20.278  0.00  0.00    +0.000 A 
ATOM      7  C   UNL     1       0.261  11.106  21.191  0.00  0.00    +0.000 A 
ENDROOT
BRANCH   5   8
ATOM      8  C   UNL     1       1.945   8.049  19.575  0.00  0.00    +0.000 C 
ATOM      9  O   UNL     1       2.229   8.467  18.454  0.00  0.00    +0.000 OA
ATOM     10  N   UNL     1       2.166   6.749  19.994  0.00  0.00    +0.000 N 
ATOM     11  H   UNL     1       1.681   6.414  20.815  0.00  0.00    +0.000 HD
BRANCH  10  12
ATOM     12  C   UNL     1       2.857   5.780  19.223  0.00  0.00    +0.000 A 
ATOM     13  C   UNL     1       2.252   5.035  18.209  0.00  0.00    +0.000 A 
ATOM     14  C   UNL     1       2.994   4.067  17.557  0.00  0.00    +0.000 A 
ATOM     15  N   UNL     1       4.287   3.806  17.832  0.00  0.00    +0.000 NA
ATOM     16  C   UNL     1       4.862   4.561  18.791  0.00  0.00    +0.000 A 
ATOM     17  C   UNL     1       4.204   5.561  19.494  0.00  0.00    +0.000 A 
ENDBRANCH  10  12
ENDBRANCH   5   8
BRANCH   7  18
ATOM     18  S   UNL     1       0.041  12.877  20.939  0.00  0.00    +0.000 S 
ATOM     19  O   UNL     1      -1.180  13.040  20.179  0.00  0.00    +0.000 OA
ATOM     20  O   UNL     1       0.204  13.522  22.229  0.00  0.00    +0.000 OA
BRANCH  18  21
ATOM     21  N   UNL     1       1.360  13.308  19.984  0.00  0.00    +0.000 NA
ATOM     22  C   UNL     1       2.641  13.630  20.661  0.00  0.00    +0.000 C 
ATOM     23  C   UNL     1       2.753  15.143  20.873  0.00  0.00    +0.000 C 
ATOM     24  O   UNL     1       2.738  15.814  19.604  0.00  0.00    +0.000 OA
ATOM     25  C   UNL     1       1.491  15.601  18.930  0.00  0.00    +0.000 C 
ATOM     26  C   UNL     1       1.149  14.115  18.748  0.00  0.00    +0.000 C 
ENDBRANCH  18  21
ENDBRANCH   7  18
TORSDOF 4
ENDMDL
