MODEL 1
REMARK VINA RESULT:      -5.9      0.000      0.000
REMARK  Name = 
REMARK  4 active torsions:
REMARK  status: ('A' for Active; 'I' for Inactive)
REMARK    1  A    between atoms: C_1  and  N_2
REMARK    2  A    between atoms: C_3  and  N_4
REMARK    3  A    between atoms: C_5  and  N_6
REMARK    4  A    between atoms: N_9  and  C_10
REMARK                            x       y       z     vdW  Elec       q    Type
REMARK                         _______ _______ _______ _____ _____    ______ ____
ROOT
ATOM      1  C   UNL     1       1.122  15.214  20.537  0.00  0.00    +0.000 C 
ATOM      2  N   UNL     1       0.285  14.102  20.113  0.00  0.00    +0.000 N 
ATOM      3  C   UNL     1       0.793  12.822  19.986  0.00  0.00    +0.000 A 
ATOM      4  C   UNL     1      -0.013  11.786  19.635  0.00  0.00    +0.000 A 
ATOM      5  C   UNL     1      -1.459  12.066  19.362  0.00  0.00    +0.000 A 
ATOM      6  O   UNL     1      -2.245  11.192  19.004  0.00  0.00    +0.000 OA
ATOM      7  N   UNL     1      -1.854  13.358  19.538  0.00  0.00    +0.000 N 
ATOM      8  C   UNL     1      -1.056  14.397  19.903  0.00  0.00    +0.000 A 
ATOM      9  O   UNL     1      -1.537  15.522  20.023  0.00  0.00    +0.000 OA
ATOM     10  H   UNL     1      -2.827  13.567  19.381  0.00  0.00    +0.000 HD
ENDROOT
BRANCH   4  11
ATOM     11  N   UNL     1       0.485  10.479  19.525  0.00  0.00    +0.000 N 
ATOM     12  C   UNL     1       0.747   9.819  18.234  0.00  0.00    +0.000 C 
ATOM     13  C   UNL     1       2.019   8.943  18.382  0.00  0.00    +0.000 C 
ATOM     14  N   UNL     1       1.934   8.033  19.545  0.00  0.00    +0.000 N 
ATOM     15  C   UNL     1       1.476   8.632  20.817  0.00  0.00    +0.000 C 
ATOM     16  C   UNL     1       0.214   9.491  20.590  0.00  0.00    +0.000 C 
BRANCH  14  17
ATOM     17  C   UNL     1       2.048   6.662  19.437  0.00  0.00    +0.000 A 
ATOM     18  C   UNL     1       2.410   6.061  18.219  0.00  0.00    +0.000 A 
ATOM     19  C   UNL     1       2.545   4.678  18.089  0.00  0.00    +0.000 A 
ATOM     20  C   UNL     1       2.319   3.854  19.185  0.00  0.00    +0.000 A 
ATOM     21  C   UNL     1       1.955   4.419  20.402  0.00  0.00    +0.000 A 
ATOM     22  C   UNL     1       1.819   5.808  20.520  0.00  0.00    +0.000 A 
ENDBRANCH  14  17
ENDBRANCH   4  11
BRANCH   3  23
ATOM     23  N   UNL     1       2.152  12.551  20.179  0.00  0.00    +0.000 N 
ATOM     24  H   UNL     1       2.379  12.521  21.167  0.00  0.00    +0.000 HD
ATOM     25  H   UNL     1       2.686  13.298  19.726  0.00  0.00    +0.000 HD
ENDBRANCH   3  23
TORSDOF 3
ENDMDL
MODEL 2
REMARK VINA RESULT:      -5.8      0.537      1.151
REMARK  Name = 
REMARK  4 active torsions:
REMARK  status: ('A' for Active; 'I' for Inactive)
REMARK    1  A    between atoms: C_1  and  N_2
REMARK    2  A    between atoms: C_3  and  N_4
REMARK    3  A    between atoms: C_5  and  N_6
REMARK    4  A    between atoms: N_9  and  C_10
REMARK                            x       y       z     vdW  Elec       q    Type
REMARK                         _______ _______ _______ _____ _____    ______ ____
ROOT
ATOM      1  C   UNL     1       1.626  15.182  19.475  0.00  0.00    +0.000 C 
ATOM      2  N   UNL     1       0.696  14.071  19.345  0.00  0.00    +0.000 N 
ATOM      3  C   UNL     1       1.137  12.760  19.305  0.00  0.00    +0.000 A 
ATOM      4  C   UNL     1       0.252  11.731  19.232  0.00  0.00    +0.000 A 
ATOM      5  C   UNL     1      -1.211  12.050  19.169  0.00  0.00    +0.000 A 
ATOM      6  O   UNL     1      -2.072  11.180  19.064  0.00  0.00    +0.000 OA
ATOM      7  N   UNL     1      -1.531  13.372  19.236  0.00  0.00    +0.000 N 
ATOM      8  C   UNL     1      -0.652  14.406  19.324  0.00  0.00    +0.000 A 
ATOM      9  O   UNL     1      -1.071  15.560  19.375  0.00  0.00    +0.000 OA
ATOM     10  H   UNL     1      -2.510  13.610  19.217  0.00  0.00    +0.000 HD
ENDROOT
BRANCH   4  11
ATOM     11  N   UNL     1       0.685  10.398  19.213  0.00  0.00    +0.000 N 
ATOM     12  C   UNL     1       0.869   9.624  17.972  0.00  0.00    +0.000 C 
ATOM     13  C   UNL     1       2.103   8.702  18.149  0.00  0.00    +0.000 C 
ATOM     14  N   UNL     1       2.019   7.892  19.386  0.00  0.00    +0.000 N 
ATOM     15  C   UNL     1       1.635   8.613  20.618  0.00  0.00    +0.000 C 
ATOM     16  C   UNL     1       0.407   9.512  20.363  0.00  0.00    +0.000 C 
BRANCH  14  17
ATOM     17  C   UNL     1       2.066   6.513  19.386  0.00  0.00    +0.000 A 
ATOM     18  C   UNL     1       1.741   5.780  20.540  0.00  0.00    +0.000 A 
ATOM     19  C   UNL     1       1.769   4.384  20.560  0.00  0.00    +0.000 A 
ATOM     20  C   UNL     1       2.126   3.682  19.415  0.00  0.00    +0.000 A 
ATOM     21  C   UNL     1       2.457   4.380  18.260  0.00  0.00    +0.000 A 
ATOM     22  C   UNL     1       2.429   5.781  18.252  0.00  0.00    +0.000 A 
ENDBRANCH  14  17
ENDBRANCH   4  11
BRANCH   3  23
ATOM     23  N   UNL     1       2.499  12.446  19.303  0.00  0.00    +0.000 N 
ATOM     24  H   UNL     1       2.960  12.821  20.125  0.00  0.00    +0.000 HD
ATOM     25  H   UNL     1       2.913  12.856  18.462  0.00  0.00    +0.000 HD
ENDBRANCH   3  23
TORSDOF 3
ENDMDL
MODEL 3
REMARK VINA RESULT:      -5.7      4.609      7.058
REMARK  Name = 
REMARK  4 active torsions:
REMARK  status: ('A' for Active; 'I' for Inactive)
REMARK    1  A    between atoms: C_1  and  N_2
REMARK    2  A    between atoms: C_3  and  N_4
REMARK    3  A    between atoms: C_5  and  N_6
REMARK    4  A    between atoms: N_9  and  C_10
REMARK                            x       y       z     vdW  Elec       q    Type
REMARK                         _______ _______ _______ _____ _____    ______ ____
ROOT
ATOM      1  C   UNL     1       0.997   9.383  19.758  0.00  0.00    +0.000 C 
ATOM      2  N   UNL     1       1.671   8.093  19.750  0.00  0.00    +0.000 N 
ATOM      3  C   UNL     1       2.434   7.682  18.672  0.00  0.00    +0.000 A 
ATOM      4  C   UNL     1       3.095   6.495  18.701  0.00  0.00    +0.000 A 
ATOM      5  C   UNL     1       2.957   5.629  19.916  0.00  0.00    +0.000 A 
ATOM      6  O   UNL     1       3.492   4.527  20.005  0.00  0.00    +0.000 OA
ATOM      7  N   UNL     1       2.199   6.142  20.924  0.00  0.00    +0.000 N 
ATOM      8  C   UNL     1       1.546   7.336  20.909  0.00  0.00    +0.000 A 
ATOM      9  O   UNL     1       0.888   7.684  21.886  0.00  0.00    +0.000 OA
ATOM     10  H   UNL     1       2.109   5.588  21.761  0.00  0.00    +0.000 HD
ENDROOT
BRANCH   4  11
ATOM     11  N   UNL     1       3.889   6.078  17.623  0.00  0.00    +0.000 N 
ATOM     12  C   UNL     1       4.765   6.987  16.863  0.00  0.00    +0.000 C 
ATOM     13  C   UNL     1       6.055   6.215  16.478  0.00  0.00    +0.000 C 
ATOM     14  N   UNL     1       5.754   4.930  15.808  0.00  0.00    +0.000 N 
ATOM     15  C   UNL     1       4.724   4.083  16.445  0.00  0.00    +0.000 C 
ATOM     16  C   UNL     1       3.477   4.918  16.804  0.00  0.00    +0.000 C 
BRANCH  14  17
ATOM     17  C   UNL     1       6.219   4.612  14.549  0.00  0.00    +0.000 A 
ATOM     18  C   UNL     1       5.520   3.711  13.727  0.00  0.00    +0.000 A 
ATOM     19  C   UNL     1       5.964   3.383  12.445  0.00  0.00    +0.000 A 
ATOM     20  C   UNL     1       7.129   3.955  11.949  0.00  0.00    +0.000 A 
ATOM     21  C   UNL     1       7.845   4.846  12.740  0.00  0.00    +0.000 A 
ATOM     22  C   UNL     1       7.392   5.164  14.027  0.00  0.00    +0.000 A 
ENDBRANCH  14  17
ENDBRANCH   4  11
BRANCH   3  23
ATOM     23  N   UNL     1       2.526   8.449  17.506  0.00  0.00    +0.000 N 
ATOM     24  H   UNL     1       3.434   8.896  17.437  0.00  0.00    +0.000 HD
ATOM     25  H   UNL     1       1.794   9.163  17.544  0.00  0.00    +0.000 HD
ENDBRANCH   3  23
TORSDOF 3
ENDMDL
MODEL 4
REMARK VINA RESULT:      -5.7      2.320      3.484
REMARK  Name = 
REMARK  4 active torsions:
REMARK  status: ('A' for Active; 'I' for Inactive)
REMARK    1  A    between atoms: C_1  and  N_2
REMARK    2  A    between atoms: C_3  and  N_4
REMARK    3  A    between atoms: C_5  and  N_6
REMARK    4  A    between atoms: N_9  and  C_10
REMARK                            x       y       z     vdW  Elec       q    Type
REMARK                         _______ _______ _______ _____ _____    ______ ____
ROOT
ATOM      1  C   UNL     1      -2.749  11.714  18.067  0.00  0.00    +0.000 C 
ATOM      2  N   UNL     1      -1.715  11.357  19.027  0.00  0.00    +0.000 N 
ATOM      3  C   UNL     1      -0.753  10.407  18.735  0.00  0.00    +0.000 A 
ATOM      4  C   UNL     1       0.233  10.120  19.624  0.00  0.00    +0.000 A 
ATOM      5  C   UNL     1       0.240  10.837  20.940  0.00  0.00    +0.000 A 
ATOM      6  O   UNL     1       1.075  10.608  21.812  0.00  0.00    +0.000 OA
ATOM      7  N   UNL     1      -0.741  11.765  21.112  0.00  0.00    +0.000 N 
ATOM      8  C   UNL     1      -1.723  12.068  20.221  0.00  0.00    +0.000 A 
ATOM      9  O   UNL     1      -2.556  12.928  20.500  0.00  0.00    +0.000 OA
ATOM     10  H   UNL     1      -0.745  12.276  21.981  0.00  0.00    +0.000 HD
ENDROOT
BRANCH   4  11
ATOM     11  N   UNL     1       1.227   9.175  19.330  0.00  0.00    +0.000 N 
ATOM     12  C   UNL     1       1.689   8.160  20.293  0.00  0.00    +0.000 C 
ATOM     13  C   UNL     1       1.987   6.850  19.517  0.00  0.00    +0.000 C 
ATOM     14  N   UNL     1       2.890   7.079  18.367  0.00  0.00    +0.000 N 
ATOM     15  C   UNL     1       2.562   8.225  17.492  0.00  0.00    +0.000 C 
ATOM     16  C   UNL     1       2.273   9.486  18.333  0.00  0.00    +0.000 C 
BRANCH  14  17
ATOM     17  C   UNL     1       4.096   6.426  18.217  0.00  0.00    +0.000 A 
ATOM     18  C   UNL     1       4.547   5.511  19.184  0.00  0.00    +0.000 A 
ATOM     19  C   UNL     1       5.758   4.830  19.047  0.00  0.00    +0.000 A 
ATOM     20  C   UNL     1       6.554   5.049  17.930  0.00  0.00    +0.000 A 
ATOM     21  C   UNL     1       6.137   5.953  16.959  0.00  0.00    +0.000 A 
ATOM     22  C   UNL     1       4.922   6.634  17.108  0.00  0.00    +0.000 A 
ENDBRANCH  14  17
ENDBRANCH   4  11
BRANCH   3  23
ATOM     23  N   UNL     1      -0.778   9.686  17.537  0.00  0.00    +0.000 N 
ATOM     24  H   UNL     1      -1.672   9.788  17.070  0.00  0.00    +0.000 HD
ATOM     25  H   UNL     1      -0.619   8.700  17.763  0.00  0.00    +0.000 HD
ENDBRANCH   3  23
TORSDOF 3
ENDMDL
MODEL 5
REMARK VINA RESULT:      -5.7      2.283      3.294
REMARK  Name = 
REMARK  4 active torsions:
REMARK  status: ('A' for Active; 'I' for Inactive)
REMARK    1  A    between atoms: C_1  and  N_2
REMARK    2  A    between atoms: C_3  and  N_4
REMARK    3  A    between atoms: C_5  and  N_6
REMARK    4  A    between atoms: N_9  and  C_10
REMARK                            x       y       z     vdW  Elec       q    Type
REMARK                         _______ _______ _______ _____ _____    ______ ____
ROOT
ATOM      1  C   UNL     1      -2.953  11.670  17.965  0.00  0.00    +0.000 C 
ATOM      2  N   UNL     1      -1.876  11.414  18.910  0.00  0.00    +0.000 N 
ATOM      3  C   UNL     1      -0.910  10.455  18.664  0.00  0.00    +0.000 A 
ATOM      4  C   UNL     1       0.115  10.262  19.535  0.00  0.00    +0.000 A 
ATOM      5  C   UNL     1       0.161  11.093  20.780  0.00  0.00    +0.000 A 
ATOM      6  O   UNL     1       1.034  10.955  21.635  0.00  0.00    +0.000 OA
ATOM      7  N   UNL     1      -0.828  12.020  20.909  0.00  0.00    +0.000 N 
ATOM      8  C   UNL     1      -1.849  12.229  20.035  0.00  0.00    +0.000 A 
ATOM      9  O   UNL     1      -2.685  13.099  20.270  0.00  0.00    +0.000 OA
ATOM     10  H   UNL     1      -0.807  12.606  21.729  0.00  0.00    +0.000 HD
ENDROOT
BRANCH   4  11
ATOM     11  N   UNL     1       1.113   9.308  19.286  0.00  0.00    +0.000 N 
ATOM     12  C   UNL     1       1.581   8.343  20.296  0.00  0.00    +0.000 C 
ATOM     13  C   UNL     1       1.883   6.998  19.586  0.00  0.00    +0.000 C 
ATOM     14  N   UNL     1       2.783   7.174  18.424  0.00  0.00    +0.000 N 
ATOM     15  C   UNL     1       2.449   8.274  17.494  0.00  0.00    +0.000 C 
ATOM     16  C   UNL     1       2.155   9.574  18.272  0.00  0.00    +0.000 C 
BRANCH  14  17
ATOM     17  C   UNL     1       3.992   6.520  18.304  0.00  0.00    +0.000 A 
ATOM     18  C   UNL     1       4.849   6.781  17.221  0.00  0.00    +0.000 A 
ATOM     19  C   UNL     1       6.083   6.141  17.086  0.00  0.00    +0.000 A 
ATOM     20  C   UNL     1       6.492   5.217  18.039  0.00  0.00    +0.000 A 
ATOM     21  C   UNL     1       5.663   4.935  19.119  0.00  0.00    +0.000 A 
ATOM     22  C   UNL     1       4.426   5.580  19.242  0.00  0.00    +0.000 A 
ENDBRANCH  14  17
ENDBRANCH   4  11
BRANCH   3  23
ATOM     23  N   UNL     1      -0.969   9.630  17.537  0.00  0.00    +0.000 N 
ATOM     24  H   UNL     1      -0.345   8.836  17.635  0.00  0.00    +0.000 HD
ATOM     25  H   UNL     1      -0.688  10.188  16.726  0.00  0.00    +0.000 HD
ENDBRANCH   3  23
TORSDOF 3
ENDMDL
MODEL 6
REMARK VINA RESULT:      -5.7      1.235      1.239
REMARK  Name = 
REMARK  4 active torsions:
REMARK  status: ('A' for Active; 'I' for Inactive)
REMARK    1  A    between atoms: C_1  and  N_2
REMARK    2  A    between atoms: C_3  and  N_4
REMARK    3  A    between atoms: C_5  and  N_6
REMARK    4  A    between atoms: N_9  and  C_10
REMARK                            x       y       z     vdW  Elec       q    Type
REMARK                         _______ _______ _______ _____ _____    ______ ____
ROOT
ATOM      1  C   UNL     1       2.226  14.836  18.044  0.00  0.00    +0.000 C 
ATOM      2  N   UNL     1       1.275  13.826  18.484  0.00  0.00    +0.000 N 
ATOM      3  C   UNL     1       1.594  12.481  18.478  0.00  0.00    +0.000 A 
ATOM      4  C   UNL     1       0.712  11.555  18.937  0.00  0.00    +0.000 A 
ATOM      5  C   UNL     1      -0.626  12.022  19.423  0.00  0.00    +0.000 A 
ATOM      6  O   UNL     1      -1.493  11.246  19.818  0.00  0.00    +0.000 OA
ATOM      7  N   UNL     1      -0.825  13.369  19.403  0.00  0.00    +0.000 N 
ATOM      8  C   UNL     1       0.059  14.303  18.959  0.00  0.00    +0.000 A 
ATOM      9  O   UNL     1      -0.244  15.493  18.990  0.00  0.00    +0.000 OA
ATOM     10  H   UNL     1      -1.709  13.709  19.746  0.00  0.00    +0.000 HD
ENDROOT
BRANCH   4  11
ATOM     11  N   UNL     1       1.032  10.189  18.957  0.00  0.00    +0.000 N 
ATOM     12  C   UNL     1       1.108   9.357  17.743  0.00  0.00    +0.000 C 
ATOM     13  C   UNL     1       2.267   8.342  17.917  0.00  0.00    +0.000 C 
ATOM     14  N   UNL     1       2.160   7.589  19.186  0.00  0.00    +0.000 N 
ATOM     15  C   UNL     1       1.881   8.385  20.401  0.00  0.00    +0.000 C 
ATOM     16  C   UNL     1       0.724   9.373  20.150  0.00  0.00    +0.000 C 
BRANCH  14  17
ATOM     17  C   UNL     1       2.093   6.212  19.240  0.00  0.00    +0.000 A 
ATOM     18  C   UNL     1       2.253   5.435  18.080  0.00  0.00    +0.000 A 
ATOM     19  C   UNL     1       2.203   4.040  18.112  0.00  0.00    +0.000 A 
ATOM     20  C   UNL     1       1.989   3.383  19.317  0.00  0.00    +0.000 A 
ATOM     21  C   UNL     1       1.821   4.125  20.481  0.00  0.00    +0.000 A 
ATOM     22  C   UNL     1       1.870   5.524  20.436  0.00  0.00    +0.000 A 
ENDBRANCH  14  17
ENDBRANCH   4  11
BRANCH   3  23
ATOM     23  N   UNL     1       2.814  12.020  17.973  0.00  0.00    +0.000 N 
ATOM     24  H   UNL     1       2.852  12.123  16.964  0.00  0.00    +0.000 HD
ATOM     25  H   UNL     1       2.901  11.031  18.220  0.00  0.00    +0.000 HD
ENDBRANCH   3  23
TORSDOF 3
ENDMDL
MODEL 7
REMARK VINA RESULT:      -5.6      3.862      8.390
REMARK  Name = 
REMARK  4 active torsions:
REMARK  status: ('A' for Active; 'I' for Inactive)
REMARK    1  A    between atoms: C_1  and  N_2
REMARK    2  A    between atoms: C_3  and  N_4
REMARK    3  A    between atoms: C_5  and  N_6
REMARK    4  A    between atoms: N_9  and  C_10
REMARK                            x       y       z     vdW  Elec       q    Type
REMARK                         _______ _______ _______ _____ _____    ______ ____
ROOT
ATOM      1  C   UNL     1       2.327   1.881  20.835  0.00  0.00    +0.000 C 
ATOM      2  N   UNL     1       3.011   3.032  20.267  0.00  0.00    +0.000 N 
ATOM      3  C   UNL     1       2.364   4.241  20.085  0.00  0.00    +0.000 A 
ATOM      4  C   UNL     1       3.030   5.320  19.597  0.00  0.00    +0.000 A 
ATOM      5  C   UNL     1       4.476   5.164  19.235  0.00  0.00    +0.000 A 
ATOM      6  O   UNL     1       5.139   6.080  18.753  0.00  0.00    +0.000 OA
ATOM      7  N   UNL     1       5.016   3.937  19.475  0.00  0.00    +0.000 N 
ATOM      8  C   UNL     1       4.359   2.856  19.976  0.00  0.00    +0.000 A 
ATOM      9  O   UNL     1       4.962   1.798  20.142  0.00  0.00    +0.000 OA
ATOM     10  H   UNL     1       5.992   3.813  19.259  0.00  0.00    +0.000 HD
ENDROOT
BRANCH   4  11
ATOM     11  N   UNL     1       2.391   6.557  19.430  0.00  0.00    +0.000 N 
ATOM     12  C   UNL     1       1.550   7.181  20.466  0.00  0.00    +0.000 C 
ATOM     13  C   UNL     1       1.774   8.715  20.421  0.00  0.00    +0.000 C 
ATOM     14  N   UNL     1       1.597   9.262  19.058  0.00  0.00    +0.000 N 
ATOM     15  C   UNL     1       2.271   8.532  17.963  0.00  0.00    +0.000 C 
ATOM     16  C   UNL     1       2.008   7.016  18.077  0.00  0.00    +0.000 C 
BRANCH  14  17
ATOM     17  C   UNL     1       0.685  10.254  18.759  0.00  0.00    +0.000 A 
ATOM     18  C   UNL     1      -0.568   9.940  18.205  0.00  0.00    +0.000 A 
ATOM     19  C   UNL     1      -1.511  10.925  17.906  0.00  0.00    +0.000 A 
ATOM     20  C   UNL     1      -1.221  12.260  18.157  0.00  0.00    +0.000 A 
ATOM     21  C   UNL     1       0.013  12.602  18.699  0.00  0.00    +0.000 A 
ATOM     22  C   UNL     1       0.953  11.605  18.992  0.00  0.00    +0.000 A 
ENDBRANCH  14  17
ENDBRANCH   4  11
BRANCH   3  23
ATOM     23  N   UNL     1       1.001   4.390  20.362  0.00  0.00    +0.000 N 
ATOM     24  H   UNL     1       0.588   3.507  20.640  0.00  0.00    +0.000 HD
ATOM     25  H   UNL     1       0.545   4.729  19.510  0.00  0.00    +0.000 HD
ENDBRANCH   3  23
TORSDOF 3
ENDMDL
MODEL 8
REMARK VINA RESULT:      -5.5      3.832      8.335
REMARK  Name = 
REMARK  4 active torsions:
REMARK  status: ('A' for Active; 'I' for Inactive)
REMARK    1  A    between atoms: C_1  and  N_2
REMARK    2  A    between atoms: C_3  and  N_4
REMARK    3  A    between atoms: C_5  and  N_6
REMARK    4  A    between atoms: N_9  and  C_10
REMARK                            x       y       z     vdW  Elec       q    Type
REMARK                         _______ _______ _______ _____ _____    ______ ____
ROOT
ATOM      1  C   UNL     1       2.584   2.128  21.208  0.00  0.00    +0.000 C 
ATOM      2  N   UNL     1       3.175   3.229  20.464  0.00  0.00    +0.000 N 
ATOM      3  C   UNL     1       2.494   4.417  20.268  0.00  0.00    +0.000 A 
ATOM      4  C   UNL     1       3.079   5.454  19.612  0.00  0.00    +0.000 A 
ATOM      5  C   UNL     1       4.468   5.271  19.081  0.00  0.00    +0.000 A 
ATOM      6  O   UNL     1       5.052   6.145  18.445  0.00  0.00    +0.000 OA
ATOM      7  N   UNL     1       5.050   4.069  19.349  0.00  0.00    +0.000 N 
ATOM      8  C   UNL     1       4.476   3.033  20.018  0.00  0.00    +0.000 A 
ATOM      9  O   UNL     1       5.109   1.994  20.192  0.00  0.00    +0.000 OA
ATOM     10  H   UNL     1       5.992   3.930  19.021  0.00  0.00    +0.000 HD
ENDROOT
BRANCH   4  11
ATOM     11  N   UNL     1       2.407   6.671  19.426  0.00  0.00    +0.000 N 
ATOM     12  C   UNL     1       1.578   7.304  20.467  0.00  0.00    +0.000 C 
ATOM     13  C   UNL     1       1.766   8.841  20.374  0.00  0.00    +0.000 C 
ATOM     14  N   UNL     1       1.542   9.346  19.000  0.00  0.00    +0.000 N 
ATOM     15  C   UNL     1       2.205   8.600  17.910  0.00  0.00    +0.000 C 
ATOM     16  C   UNL     1       1.979   7.082  18.072  0.00  0.00    +0.000 C 
BRANCH  14  17
ATOM     17  C   UNL     1       0.600  10.308  18.698  0.00  0.00    +0.000 A 
ATOM     18  C   UNL     1       0.882  11.674  18.874  0.00  0.00    +0.000 A 
ATOM     19  C   UNL     1      -0.050  12.666  18.562  0.00  0.00    +0.000 A 
ATOM     20  C   UNL     1      -1.297  12.312  18.062  0.00  0.00    +0.000 A 
ATOM     21  C   UNL     1      -1.606  10.969  17.882  0.00  0.00    +0.000 A 
ATOM     22  C   UNL     1      -0.665   9.982  18.202  0.00  0.00    +0.000 A 
ENDBRANCH  14  17
ENDBRANCH   4  11
BRANCH   3  23
ATOM     23  N   UNL     1       1.176   4.586  20.704  0.00  0.00    +0.000 N 
ATOM     24  H   UNL     1       0.766   3.698  20.973  0.00  0.00    +0.000 HD
ATOM     25  H   UNL     1       0.641   4.990  19.931  0.00  0.00    +0.000 HD
ENDBRANCH   3  23
TORSDOF 3
ENDMDL
MODEL 9
REMARK VINA RESULT:      -5.5      4.059      8.601
REMARK  Name = 
REMARK  4 active torsions:
REMARK  status: ('A' for Active; 'I' for Inactive)
REMARK    1  A    between atoms: C_1  and  N_2
REMARK    2  A    between atoms: C_3  and  N_4
REMARK    3  A    between atoms: C_5  and  N_6
REMARK    4  A    between atoms: N_9  and  C_10
REMARK                            x       y       z     vdW  Elec       q    Type
REMARK                         _______ _______ _______ _____ _____    ______ ____
ROOT
ATOM      1  C   UNL     1       1.894   1.733  18.247  0.00  0.00    +0.000 C 
ATOM      2  N   UNL     1       2.820   2.804  18.583  0.00  0.00    +0.000 N 
ATOM      3  C   UNL     1       2.442   4.133  18.523  0.00  0.00    +0.000 A 
ATOM      4  C   UNL     1       3.305   5.118  18.886  0.00  0.00    +0.000 A 
ATOM      5  C   UNL     1       4.685   4.734  19.326  0.00  0.00    +0.000 A 
ATOM      6  O   UNL     1       5.536   5.565  19.634  0.00  0.00    +0.000 OA
ATOM      7  N   UNL     1       4.941   3.397  19.366  0.00  0.00    +0.000 N 
ATOM      8  C   UNL     1       4.078   2.404  19.019  0.00  0.00    +0.000 A 
ATOM      9  O   UNL     1       4.434   1.231  19.096  0.00  0.00    +0.000 OA
ATOM     10  H   UNL     1       5.855   3.112  19.679  0.00  0.00    +0.000 HD
ENDROOT
BRANCH   4  11
ATOM     11  N   UNL     1       2.926   6.468  18.851  0.00  0.00    +0.000 N 
ATOM     12  C   UNL     1       3.412   7.419  17.836  0.00  0.00    +0.000 C 
ATOM     13  C   UNL     1       2.256   8.390  17.482  0.00  0.00    +0.000 C 
ATOM     14  N   UNL     1       1.663   9.010  18.688  0.00  0.00    +0.000 N 
ATOM     15  C   UNL     1       1.349   8.098  19.809  0.00  0.00    +0.000 C 
ATOM     16  C   UNL     1       2.541   7.161  20.098  0.00  0.00    +0.000 C 
BRANCH  14  17
ATOM     17  C   UNL     1       1.601  10.375  18.879  0.00  0.00    +0.000 A 
ATOM     18  C   UNL     1       0.820  10.926  19.910  0.00  0.00    +0.000 A 
ATOM     19  C   UNL     1       0.753  12.303  20.130  0.00  0.00    +0.000 A 
ATOM     20  C   UNL     1       1.470  13.170  19.316  0.00  0.00    +0.000 A 
ATOM     21  C   UNL     1       2.247  12.655  18.284  0.00  0.00    +0.000 A 
ATOM     22  C   UNL     1       2.304  11.272  18.071  0.00  0.00    +0.000 A 
ENDBRANCH  14  17
ENDBRANCH   4  11
BRANCH   3  23
ATOM     23  N   UNL     1       1.179   4.514  18.059  0.00  0.00    +0.000 N 
ATOM     24  H   UNL     1       0.461   3.887  18.404  0.00  0.00    +0.000 HD
ATOM     25  H   UNL     1       1.200   4.481  17.036  0.00  0.00    +0.000 HD
ENDBRANCH   3  23
TORSDOF 3
ENDMDL
