MODEL 1
REMARK VINA RESULT:      -8.0      0.000      0.000
REMARK  Name = 
REMARK  7 active torsions:
REMARK  status: ('A' for Active; 'I' for Inactive)
REMARK    1  A    between atoms: N_1  and  S_2
REMARK    2  A    between atoms: S_2  and  C_5
REMARK    3  A    between atoms: C_8  and  C_9
REMARK    4  A    between atoms: C_9  and  N_10
REMARK    5  A    between atoms: C_11  and  C_13
REMARK    6  A    between atoms: C_16  and  S_17
REMARK    7  A    between atoms: S_17  and  C_20
REMARK                            x       y       z     vdW  Elec       q    Type
REMARK                         _______ _______ _______ _____ _____    ______ ____
ROOT
ATOM      1  N   UNL     1       2.149   7.342  20.292  0.00  0.00    +0.000 N 
ATOM      2  C   UNL     1       2.422   6.009  20.072  0.00  0.00    +0.000 C 
ATOM      3  O   UNL     1       1.786   5.082  20.553  0.00  0.00    +0.000 OA
ATOM      4  H   UNL     1       2.566   8.037  19.690  0.00  0.00    +0.000 HD
ENDROOT
BRANCH   2   5
ATOM      5  C   UNL     1       3.585   5.741  19.176  0.00  0.00    +0.000 A 
ATOM      6  C   UNL     1       3.838   6.579  18.083  0.00  0.00    +0.000 A 
ATOM      7  C   UNL     1       4.926   6.332  17.246  0.00  0.00    +0.000 A 
ATOM      8  C   UNL     1       5.774   5.254  17.509  0.00  0.00    +0.000 A 
ATOM      9  C   UNL     1       5.537   4.412  18.602  0.00  0.00    +0.000 A 
ATOM     10  C   UNL     1       4.445   4.667  19.446  0.00  0.00    +0.000 A 
BRANCH   8  11
ATOM     11  S   UNL     1       7.120   4.924  16.381  0.00  0.00    +0.000 S 
ATOM     12  O   UNL     1       7.549   6.217  15.879  0.00  0.00    +0.000 OA
ATOM     13  O   UNL     1       8.066   4.077  17.093  0.00  0.00    +0.000 OA
BRANCH  11  14
ATOM     14  C   UNL     1       6.391   3.965  15.050  0.00  0.00    +0.000 C 
ATOM     15  F   UNL     1       5.031   4.052  15.012  0.00  0.00    +0.000 F 
ATOM     16  F   UNL     1       6.832   4.346  13.818  0.00  0.00    +0.000 F 
ENDBRANCH  11  14
ENDBRANCH   8  11
ENDBRANCH   2   5
BRANCH   1  17
ATOM     17  C   UNL     1       1.094   7.782  21.174  0.00  0.00    +0.000 C 
BRANCH  17  21
ATOM     18  C   UNL     1      -0.424  11.635  20.020  0.00  0.00    +0.000 A 
ATOM     19  C   UNL     1       0.412  10.934  19.151  0.00  0.00    +0.000 A 
ATOM     20  C   UNL     1       0.907   9.690  19.541  0.00  0.00    +0.000 A 
ATOM     21  C   UNL     1       0.567   9.138  20.787  0.00  0.00    +0.000 A 
ATOM     22  C   UNL     1      -0.254   9.870  21.659  0.00  0.00    +0.000 A 
ATOM     23  C   UNL     1      -0.751  11.116  21.277  0.00  0.00    +0.000 A 
BRANCH  18  24
ATOM     24  S   UNL     1      -1.143  13.163  19.504  0.00  0.00    +0.000 S 
ATOM     25  O   UNL     1      -0.252  14.244  19.838  0.00  0.00    +0.000 OA
ATOM     26  O   UNL     1      -2.545  13.172  19.867  0.00  0.00    +0.000 OA
BRANCH  24  27
ATOM     27  N   UNL     1      -1.130  13.003  17.830  0.00  0.00    +0.000 NA
ATOM     28  H   UNL     1      -1.411  13.891  17.410  0.00  0.00    +0.000 HD
ATOM     29  H   UNL     1      -1.714  12.222  17.538  0.00  0.00    +0.000 HD
ENDBRANCH  24  27
ENDBRANCH  18  24
ENDBRANCH  17  21
ENDBRANCH   1  17
TORSDOF 7
ENDMDL
MODEL 2
REMARK VINA RESULT:      -7.9      3.607      4.543
REMARK  Name = 
REMARK  7 active torsions:
REMARK  status: ('A' for Active; 'I' for Inactive)
REMARK    1  A    between atoms: N_1  and  S_2
REMARK    2  A    between atoms: S_2  and  C_5
REMARK    3  A    between atoms: C_8  and  C_9
REMARK    4  A    between atoms: C_9  and  N_10
REMARK    5  A    between atoms: C_11  and  C_13
REMARK    6  A    between atoms: C_16  and  S_17
REMARK    7  A    between atoms: S_17  and  C_20
REMARK                            x       y       z     vdW  Elec       q    Type
REMARK                         _______ _______ _______ _____ _____    ______ ____
ROOT
ATOM      1  N   UNL     1       1.329   9.476  19.428  0.00  0.00    +0.000 N 
ATOM      2  C   UNL     1       1.970   8.709  18.480  0.00  0.00    +0.000 C 
ATOM      3  O   UNL     1       2.330   9.117  17.384  0.00  0.00    +0.000 OA
ATOM      4  H   UNL     1       1.271   9.139  20.378  0.00  0.00    +0.000 HD
ENDROOT
BRANCH   2   5
ATOM      5  C   UNL     1       2.217   7.291  18.873  0.00  0.00    +0.000 A 
ATOM      6  C   UNL     1       1.837   6.838  20.142  0.00  0.00    +0.000 A 
ATOM      7  C   UNL     1       2.064   5.511  20.512  0.00  0.00    +0.000 A 
ATOM      8  C   UNL     1       2.656   4.630  19.605  0.00  0.00    +0.000 A 
ATOM      9  C   UNL     1       3.034   5.068  18.329  0.00  0.00    +0.000 A 
ATOM     10  C   UNL     1       2.799   6.400  17.959  0.00  0.00    +0.000 A 
BRANCH   8  11
ATOM     11  S   UNL     1       2.994   2.955  20.130  0.00  0.00    +0.000 S 
ATOM     12  O   UNL     1       4.373   2.690  19.762  0.00  0.00    +0.000 OA
ATOM     13  O   UNL     1       2.590   2.864  21.525  0.00  0.00    +0.000 OA
BRANCH  11  14
ATOM     14  C   UNL     1       1.894   1.928  19.152  0.00  0.00    +0.000 C 
ATOM     15  F   UNL     1       0.612   2.390  19.127  0.00  0.00    +0.000 F 
ATOM     16  F   UNL     1       2.286   1.820  17.850  0.00  0.00    +0.000 F 
ENDBRANCH  11  14
ENDBRANCH   8  11
ENDBRANCH   2   5
BRANCH   1  17
ATOM     17  C   UNL     1       0.964  10.853  19.194  0.00  0.00    +0.000 C 
BRANCH  17  21
ATOM     18  C   UNL     1      -3.227  11.336  18.368  0.00  0.00    +0.000 A 
ATOM     19  C   UNL     1      -2.627  12.104  19.367  0.00  0.00    +0.000 A 
ATOM     20  C   UNL     1      -1.269  11.931  19.633  0.00  0.00    +0.000 A 
ATOM     21  C   UNL     1      -0.505  11.004  18.905  0.00  0.00    +0.000 A 
ATOM     22  C   UNL     1      -1.131  10.222  17.922  0.00  0.00    +0.000 A 
ATOM     23  C   UNL     1      -2.490  10.388  17.652  0.00  0.00    +0.000 A 
BRANCH  18  24
ATOM     24  S   UNL     1      -4.919  11.613  17.946  0.00  0.00    +0.000 S 
ATOM     25  O   UNL     1      -5.725  10.555  18.498  0.00  0.00    +0.000 OA
ATOM     26  O   UNL     1      -5.000  12.007  16.555  0.00  0.00    +0.000 OA
BRANCH  24  27
ATOM     27  N   UNL     1      -5.268  13.012  18.813  0.00  0.00    +0.000 NA
ATOM     28  H   UNL     1      -6.280  13.091  18.920  0.00  0.00    +0.000 HD
ATOM     29  H   UNL     1      -4.848  13.826  18.367  0.00  0.00    +0.000 HD
ENDBRANCH  24  27
ENDBRANCH  18  24
ENDBRANCH  17  21
ENDBRANCH   1  17
TORSDOF 7
ENDMDL
MODEL 3
REMARK VINA RESULT:      -7.8      0.672      1.496
REMARK  Name = 
REMARK  7 active torsions:
REMARK  status: ('A' for Active; 'I' for Inactive)
REMARK    1  A    between atoms: N_1  and  S_2
REMARK    2  A    between atoms: S_2  and  C_5
REMARK    3  A    between atoms: C_8  and  C_9
REMARK    4  A    between atoms: C_9  and  N_10
REMARK    5  A    between atoms: C_11  and  C_13
REMARK    6  A    between atoms: C_16  and  S_17
REMARK    7  A    between atoms: S_17  and  C_20
REMARK                            x       y       z     vdW  Elec       q    Type
REMARK                         _______ _______ _______ _____ _____    ______ ____
ROOT
ATOM      1  N   UNL     1       2.117   7.347  20.444  0.00  0.00    +0.000 N 
ATOM      2  C   UNL     1       2.276   6.053  20.000  0.00  0.00    +0.000 C 
ATOM      3  O   UNL     1       1.527   5.126  20.278  0.00  0.00    +0.000 OA
ATOM      4  H   UNL     1       2.633   8.090  19.995  0.00  0.00    +0.000 HD
ENDROOT
BRANCH   2   5
ATOM      5  C   UNL     1       3.460   5.826  19.120  0.00  0.00    +0.000 A 
ATOM      6  C   UNL     1       4.375   4.810  19.420  0.00  0.00    +0.000 A 
ATOM      7  C   UNL     1       5.481   4.594  18.597  0.00  0.00    +0.000 A 
ATOM      8  C   UNL     1       5.665   5.385  17.462  0.00  0.00    +0.000 A 
ATOM      9  C   UNL     1       4.754   6.400  17.145  0.00  0.00    +0.000 A 
ATOM     10  C   UNL     1       3.640   6.610  17.971  0.00  0.00    +0.000 A 
BRANCH   8  11
ATOM     11  S   UNL     1       7.126   5.129  16.464  0.00  0.00    +0.000 S 
ATOM     12  O   UNL     1       7.613   6.452  16.118  0.00  0.00    +0.000 OA
ATOM     13  O   UNL     1       7.985   4.216  17.205  0.00  0.00    +0.000 OA
BRANCH  11  14
ATOM     14  C   UNL     1       6.544   4.289  14.989  0.00  0.00    +0.000 C 
ATOM     15  F   UNL     1       5.202   4.051  15.004  0.00  0.00    +0.000 F 
ATOM     16  F   UNL     1       6.793   4.990  13.846  0.00  0.00    +0.000 F 
ENDBRANCH  11  14
ENDBRANCH   8  11
ENDBRANCH   2   5
BRANCH   1  17
ATOM     17  C   UNL     1       1.057   7.733  21.346  0.00  0.00    +0.000 C 
BRANCH  17  21
ATOM     18  C   UNL     1      -0.269  11.763  20.653  0.00  0.00    +0.000 A 
ATOM     19  C   UNL     1      -0.396  11.204  21.924  0.00  0.00    +0.000 A 
ATOM     20  C   UNL     1       0.028   9.891  22.135  0.00  0.00    +0.000 A 
ATOM     21  C   UNL     1       0.584   9.138  21.088  0.00  0.00    +0.000 A 
ATOM     22  C   UNL     1       0.680   9.709  19.809  0.00  0.00    +0.000 A 
ATOM     23  C   UNL     1       0.256  11.020  19.591  0.00  0.00    +0.000 A 
BRANCH  18  24
ATOM     24  S   UNL     1      -0.703  13.454  20.391  0.00  0.00    +0.000 S 
ATOM     25  O   UNL     1       0.421  14.151  19.823  0.00  0.00    +0.000 OA
ATOM     26  O   UNL     1      -1.414  13.945  21.554  0.00  0.00    +0.000 OA
BRANCH  24  27
ATOM     27  N   UNL     1      -1.874  13.329  19.190  0.00  0.00    +0.000 NA
ATOM     28  H   UNL     1      -2.277  14.252  19.023  0.00  0.00    +0.000 HD
ATOM     29  H   UNL     1      -2.570  12.628  19.437  0.00  0.00    +0.000 HD
ENDBRANCH  24  27
ENDBRANCH  18  24
ENDBRANCH  17  21
ENDBRANCH   1  17
TORSDOF 7
ENDMDL
MODEL 4
REMARK VINA RESULT:      -7.7      1.475      1.988
REMARK  Name = 
REMARK  7 active torsions:
REMARK  status: ('A' for Active; 'I' for Inactive)
REMARK    1  A    between atoms: N_1  and  S_2
REMARK    2  A    between atoms: S_2  and  C_5
REMARK    3  A    between atoms: C_8  and  C_9
REMARK    4  A    between atoms: C_9  and  N_10
REMARK    5  A    between atoms: C_11  and  C_13
REMARK    6  A    between atoms: C_16  and  S_17
REMARK    7  A    between atoms: S_17  and  C_20
REMARK                            x       y       z     vdW  Elec       q    Type
REMARK                         _______ _______ _______ _____ _____    ______ ____
ROOT
ATOM      1  N   UNL     1       1.825   7.158  20.583  0.00  0.00    +0.000 N 
ATOM      2  C   UNL     1       2.185   5.877  20.225  0.00  0.00    +0.000 C 
ATOM      3  O   UNL     1       1.608   4.864  20.595  0.00  0.00    +0.000 OA
ATOM      4  H   UNL     1       2.199   7.939  20.064  0.00  0.00    +0.000 HD
ENDROOT
BRANCH   2   5
ATOM      5  C   UNL     1       3.368   5.783  19.319  0.00  0.00    +0.000 A 
ATOM      6  C   UNL     1       3.490   6.654  18.230  0.00  0.00    +0.000 A 
ATOM      7  C   UNL     1       4.596   6.570  17.383  0.00  0.00    +0.000 A 
ATOM      8  C   UNL     1       5.592   5.623  17.635  0.00  0.00    +0.000 A 
ATOM      9  C   UNL     1       5.486   4.751  18.725  0.00  0.00    +0.000 A 
ATOM     10  C   UNL     1       4.376   4.842  19.577  0.00  0.00    +0.000 A 
BRANCH   8  11
ATOM     11  S   UNL     1       6.963   5.495  16.495  0.00  0.00    +0.000 S 
ATOM     12  O   UNL     1       7.537   6.825  16.408  0.00  0.00    +0.000 OA
ATOM     13  O   UNL     1       7.785   4.384  16.952  0.00  0.00    +0.000 OA
BRANCH  11  14
ATOM     14  C   UNL     1       6.224   5.045  14.923  0.00  0.00    +0.000 C 
ATOM     15  F   UNL     1       6.965   4.139  14.225  0.00  0.00    +0.000 F 
ATOM     16  F   UNL     1       4.982   4.499  15.057  0.00  0.00    +0.000 F 
ENDBRANCH  11  14
ENDBRANCH   8  11
ENDBRANCH   2   5
BRANCH   1  17
ATOM     17  C   UNL     1       0.739   7.431  21.495  0.00  0.00    +0.000 C 
BRANCH  17  21
ATOM     18  C   UNL     1      -0.154  11.629  21.745  0.00  0.00    +0.000 A 
ATOM     19  C   UNL     1      -0.583  10.771  22.756  0.00  0.00    +0.000 A 
ATOM     20  C   UNL     1      -0.297   9.409  22.660  0.00  0.00    +0.000 A 
ATOM     21  C   UNL     1       0.421   8.901  21.565  0.00  0.00    +0.000 A 
ATOM     22  C   UNL     1       0.822   9.776  20.543  0.00  0.00    +0.000 A 
ATOM     23  C   UNL     1       0.538  11.139  20.633  0.00  0.00    +0.000 A 
BRANCH  18  24
ATOM     24  S   UNL     1      -0.416  13.368  21.900  0.00  0.00    +0.000 S 
ATOM     25  O   UNL     1      -1.191  13.834  20.779  0.00  0.00    +0.000 OA
ATOM     26  O   UNL     1       0.825  13.999  22.301  0.00  0.00    +0.000 OA
BRANCH  24  27
ATOM     27  N   UNL     1      -1.402  13.450  23.259  0.00  0.00    +0.000 NA
ATOM     28  H   UNL     1      -2.126  14.153  23.102  0.00  0.00    +0.000 HD
ATOM     29  H   UNL     1      -0.849  13.628  24.096  0.00  0.00    +0.000 HD
ENDBRANCH  24  27
ENDBRANCH  18  24
ENDBRANCH  17  21
ENDBRANCH   1  17
TORSDOF 7
ENDMDL
MODEL 5
REMARK VINA RESULT:      -7.7      1.027      1.409
REMARK  Name = 
REMARK  7 active torsions:
REMARK  status: ('A' for Active; 'I' for Inactive)
REMARK    1  A    between atoms: N_1  and  S_2
REMARK    2  A    between atoms: S_2  and  C_5
REMARK    3  A    between atoms: C_8  and  C_9
REMARK    4  A    between atoms: C_9  and  N_10
REMARK    5  A    between atoms: C_11  and  C_13
REMARK    6  A    between atoms: C_16  and  S_17
REMARK    7  A    between atoms: S_17  and  C_20
REMARK                            x       y       z     vdW  Elec       q    Type
REMARK                         _______ _______ _______ _____ _____    ______ ____
ROOT
ATOM      1  N   UNL     1       1.945   7.055  20.493  0.00  0.00    +0.000 N 
ATOM      2  C   UNL     1       2.241   5.749  20.171  0.00  0.00    +0.000 C 
ATOM      3  O   UNL     1       1.606   4.778  20.558  0.00  0.00    +0.000 OA
ATOM      4  H   UNL     1       2.367   7.802  19.960  0.00  0.00    +0.000 HD
ENDROOT
BRANCH   2   5
ATOM      5  C   UNL     1       3.428   5.569  19.285  0.00  0.00    +0.000 A 
ATOM      6  C   UNL     1       3.700   6.500  18.276  0.00  0.00    +0.000 A 
ATOM      7  C   UNL     1       4.811   6.336  17.448  0.00  0.00    +0.000 A 
ATOM      8  C   UNL     1       5.663   5.246  17.639  0.00  0.00    +0.000 A 
ATOM      9  C   UNL     1       5.408   4.310  18.649  0.00  0.00    +0.000 A 
ATOM     10  C   UNL     1       4.293   4.482  19.483  0.00  0.00    +0.000 A 
BRANCH   8  11
ATOM     11  S   UNL     1       7.040   5.025  16.521  0.00  0.00    +0.000 S 
ATOM     12  O   UNL     1       7.406   6.355  16.068  0.00  0.00    +0.000 OA
ATOM     13  O   UNL     1       8.020   4.206  17.219  0.00  0.00    +0.000 OA
BRANCH  11  14
ATOM     14  C   UNL     1       6.380   4.075  15.148  0.00  0.00    +0.000 C 
ATOM     15  F   UNL     1       5.041   4.255  14.968  0.00  0.00    +0.000 F 
ATOM     16  F   UNL     1       6.970   4.383  13.957  0.00  0.00    +0.000 F 
ENDBRANCH  11  14
ENDBRANCH   8  11
ENDBRANCH   2   5
BRANCH   1  17
ATOM     17  C   UNL     1       0.864   7.410  21.382  0.00  0.00    +0.000 C 
BRANCH  17  21
ATOM     18  C   UNL     1       0.014  11.623  21.303  0.00  0.00    +0.000 A 
ATOM     19  C   UNL     1      -0.348  10.867  22.418  0.00  0.00    +0.000 A 
ATOM     20  C   UNL     1      -0.077   9.499  22.428  0.00  0.00    +0.000 A 
ATOM     21  C   UNL     1       0.560   8.883  21.337  0.00  0.00    +0.000 A 
ATOM     22  C   UNL     1       0.893   9.656  20.214  0.00  0.00    +0.000 A 
ATOM     23  C   UNL     1       0.624  11.024  20.196  0.00  0.00    +0.000 A 
BRANCH  18  24
ATOM     24  S   UNL     1      -0.226  13.372  21.314  0.00  0.00    +0.000 S 
ATOM     25  O   UNL     1       0.595  13.958  22.342  0.00  0.00    +0.000 OA
ATOM     26  O   UNL     1      -1.642  13.656  21.196  0.00  0.00    +0.000 OA
BRANCH  24  27
ATOM     27  N   UNL     1       0.430  13.821  19.833  0.00  0.00    +0.000 NA
ATOM     28  H   UNL     1       0.784  12.988  19.361  0.00  0.00    +0.000 HD
ATOM     29  H   UNL     1       1.140  14.542  19.957  0.00  0.00    +0.000 HD
ENDBRANCH  24  27
ENDBRANCH  18  24
ENDBRANCH  17  21
ENDBRANCH   1  17
TORSDOF 7
ENDMDL
MODEL 6
REMARK VINA RESULT:      -7.7      3.597      4.512
REMARK  Name = 
REMARK  7 active torsions:
REMARK  status: ('A' for Active; 'I' for Inactive)
REMARK    1  A    between atoms: N_1  and  S_2
REMARK    2  A    between atoms: S_2  and  C_5
REMARK    3  A    between atoms: C_8  and  C_9
REMARK    4  A    between atoms: C_9  and  N_10
REMARK    5  A    between atoms: C_11  and  C_13
REMARK    6  A    between atoms: C_16  and  S_17
REMARK    7  A    between atoms: S_17  and  C_20
REMARK                            x       y       z     vdW  Elec       q    Type
REMARK                         _______ _______ _______ _____ _____    ______ ____
ROOT
ATOM      1  N   UNL     1       1.445   9.593  19.413  0.00  0.00    +0.000 N 
ATOM      2  C   UNL     1       2.003   8.721  18.504  0.00  0.00    +0.000 C 
ATOM      3  O   UNL     1       2.335   9.022  17.366  0.00  0.00    +0.000 OA
ATOM      4  H   UNL     1       1.411   9.334  20.388  0.00  0.00    +0.000 HD
ENDROOT
BRANCH   2   5
ATOM      5  C   UNL     1       2.195   7.326  19.000  0.00  0.00    +0.000 A 
ATOM      6  C   UNL     1       2.846   6.379  18.201  0.00  0.00    +0.000 A 
ATOM      7  C   UNL     1       3.029   5.075  18.664  0.00  0.00    +0.000 A 
ATOM      8  C   UNL     1       2.575   4.721  19.936  0.00  0.00    +0.000 A 
ATOM      9  C   UNL     1       1.929   5.660  20.749  0.00  0.00    +0.000 A 
ATOM     10  C   UNL     1       1.752   6.971  20.283  0.00  0.00    +0.000 A 
BRANCH   8  11
ATOM     11  S   UNL     1       2.765   3.027  20.475  0.00  0.00    +0.000 S 
ATOM     12  O   UNL     1       4.103   2.627  20.078  0.00  0.00    +0.000 OA
ATOM     13  O   UNL     1       2.389   2.990  21.880  0.00  0.00    +0.000 OA
BRANCH  11  14
ATOM     14  C   UNL     1       1.548   2.099  19.537  0.00  0.00    +0.000 C 
ATOM     15  F   UNL     1       0.314   2.678  19.542  0.00  0.00    +0.000 F 
ATOM     16  F   UNL     1       1.892   1.947  18.226  0.00  0.00    +0.000 F 
ENDBRANCH  11  14
ENDBRANCH   8  11
ENDBRANCH   2   5
BRANCH   1  17
ATOM     17  C   UNL     1       1.140  10.965  19.084  0.00  0.00    +0.000 C 
BRANCH  17  21
ATOM     18  C   UNL     1      -3.089  11.543  18.576  0.00  0.00    +0.000 A 
ATOM     19  C   UNL     1      -2.425  10.594  17.800  0.00  0.00    +0.000 A 
ATOM     20  C   UNL     1      -1.050  10.422  17.966  0.00  0.00    +0.000 A 
ATOM     21  C   UNL     1      -0.338  11.186  18.906  0.00  0.00    +0.000 A 
ATOM     22  C   UNL     1      -1.020  12.155  19.659  0.00  0.00    +0.000 A 
ATOM     23  C   UNL     1      -2.394  12.333  19.497  0.00  0.00    +0.000 A 
BRANCH  18  24
ATOM     24  S   UNL     1      -4.844  11.702  18.454  0.00  0.00    +0.000 S 
ATOM     25  O   UNL     1      -5.296  12.700  19.389  0.00  0.00    +0.000 OA
ATOM     26  O   UNL     1      -5.434  10.381  18.381  0.00  0.00    +0.000 OA
BRANCH  24  27
ATOM     27  N   UNL     1      -5.027  12.344  16.910  0.00  0.00    +0.000 NA
ATOM     28  H   UNL     1      -5.788  11.855  16.436  0.00  0.00    +0.000 HD
ATOM     29  H   UNL     1      -4.147  12.305  16.397  0.00  0.00    +0.000 HD
ENDBRANCH  24  27
ENDBRANCH  18  24
ENDBRANCH  17  21
ENDBRANCH   1  17
TORSDOF 7
ENDMDL
MODEL 7
REMARK VINA RESULT:      -7.7      1.482      2.131
REMARK  Name = 
REMARK  7 active torsions:
REMARK  status: ('A' for Active; 'I' for Inactive)
REMARK    1  A    between atoms: N_1  and  S_2
REMARK    2  A    between atoms: S_2  and  C_5
REMARK    3  A    between atoms: C_8  and  C_9
REMARK    4  A    between atoms: C_9  and  N_10
REMARK    5  A    between atoms: C_11  and  C_13
REMARK    6  A    between atoms: C_16  and  S_17
REMARK    7  A    between atoms: S_17  and  C_20
REMARK                            x       y       z     vdW  Elec       q    Type
REMARK                         _______ _______ _______ _____ _____    ______ ____
ROOT
ATOM      1  N   UNL     1       1.986   6.986  20.522  0.00  0.00    +0.000 N 
ATOM      2  C   UNL     1       2.173   5.749  19.945  0.00  0.00    +0.000 C 
ATOM      3  O   UNL     1       1.426   4.792  20.096  0.00  0.00    +0.000 OA
ATOM      4  H   UNL     1       2.507   7.777  20.173  0.00  0.00    +0.000 HD
ENDROOT
BRANCH   2   5
ATOM      5  C   UNL     1       3.387   5.629  19.085  0.00  0.00    +0.000 A 
ATOM      6  C   UNL     1       4.638   5.387  19.665  0.00  0.00    +0.000 A 
ATOM      7  C   UNL     1       5.774   5.270  18.862  0.00  0.00    +0.000 A 
ATOM      8  C   UNL     1       5.657   5.381  17.475  0.00  0.00    +0.000 A 
ATOM      9  C   UNL     1       4.411   5.615  16.881  0.00  0.00    +0.000 A 
ATOM     10  C   UNL     1       3.271   5.726  17.690  0.00  0.00    +0.000 A 
BRANCH   8  11
ATOM     11  S   UNL     1       7.139   5.294  16.479  0.00  0.00    +0.000 S 
ATOM     12  O   UNL     1       7.677   6.642  16.442  0.00  0.00    +0.000 OA
ATOM     13  O   UNL     1       7.946   4.211  17.021  0.00  0.00    +0.000 OA
BRANCH  11  14
ATOM     14  C   UNL     1       6.576   4.818  14.843  0.00  0.00    +0.000 C 
ATOM     15  F   UNL     1       7.491   5.077  13.867  0.00  0.00    +0.000 F 
ATOM     16  F   UNL     1       6.282   3.490  14.748  0.00  0.00    +0.000 F 
ENDBRANCH  11  14
ENDBRANCH   8  11
ENDBRANCH   2   5
BRANCH   1  17
ATOM     17  C   UNL     1       0.893   7.263  21.425  0.00  0.00    +0.000 C 
BRANCH  17  21
ATOM     18  C   UNL     1      -0.035  11.457  21.604  0.00  0.00    +0.000 A 
ATOM     19  C   UNL     1      -0.353  10.633  22.683  0.00  0.00    +0.000 A 
ATOM     20  C   UNL     1      -0.057   9.272  22.610  0.00  0.00    +0.000 A 
ATOM     21  C   UNL     1       0.561   8.730  21.470  0.00  0.00    +0.000 A 
ATOM     22  C   UNL     1       0.849   9.570  20.383  0.00  0.00    +0.000 A 
ATOM     23  C   UNL     1       0.554  10.932  20.449  0.00  0.00    +0.000 A 
BRANCH  18  24
ATOM     24  S   UNL     1      -0.308  13.198  21.719  0.00  0.00    +0.000 S 
ATOM     25  O   UNL     1      -1.079  13.634  20.584  0.00  0.00    +0.000 OA
ATOM     26  O   UNL     1       0.927  13.844  22.114  0.00  0.00    +0.000 OA
BRANCH  24  27
ATOM     27  N   UNL     1      -1.304  13.304  23.070  0.00  0.00    +0.000 NA
ATOM     28  H   UNL     1      -0.810  12.918  23.876  0.00  0.00    +0.000 HD
ATOM     29  H   UNL     1      -2.198  12.849  22.894  0.00  0.00    +0.000 HD
ENDBRANCH  24  27
ENDBRANCH  18  24
ENDBRANCH  17  21
ENDBRANCH   1  17
TORSDOF 7
ENDMDL
MODEL 8
REMARK VINA RESULT:      -7.7      1.221      1.931
REMARK  Name = 
REMARK  7 active torsions:
REMARK  status: ('A' for Active; 'I' for Inactive)
REMARK    1  A    between atoms: N_1  and  S_2
REMARK    2  A    between atoms: S_2  and  C_5
REMARK    3  A    between atoms: C_8  and  C_9
REMARK    4  A    between atoms: C_9  and  N_10
REMARK    5  A    between atoms: C_11  and  C_13
REMARK    6  A    between atoms: C_16  and  S_17
REMARK    7  A    between atoms: S_17  and  C_20
REMARK                            x       y       z     vdW  Elec       q    Type
REMARK                         _______ _______ _______ _____ _____    ______ ____
ROOT
ATOM      1  N   UNL     1       1.823   7.276  20.575  0.00  0.00    +0.000 N 
ATOM      2  C   UNL     1       2.126   5.998  20.160  0.00  0.00    +0.000 C 
ATOM      3  O   UNL     1       1.501   4.996  20.482  0.00  0.00    +0.000 OA
ATOM      4  H   UNL     1       2.235   8.062  20.093  0.00  0.00    +0.000 HD
ENDROOT
BRANCH   2   5
ATOM      5  C   UNL     1       3.307   5.889  19.255  0.00  0.00    +0.000 A 
ATOM      6  C   UNL     1       4.325   4.970  19.535  0.00  0.00    +0.000 A 
ATOM      7  C   UNL     1       5.429   4.864  18.688  0.00  0.00    +0.000 A 
ATOM      8  C   UNL     1       5.509   5.667  17.548  0.00  0.00    +0.000 A 
ATOM      9  C   UNL     1       4.494   6.586  17.252  0.00  0.00    +0.000 A 
ATOM     10  C   UNL     1       3.383   6.685  18.102  0.00  0.00    +0.000 A 
BRANCH   8  11
ATOM     11  S   UNL     1       6.966   5.557  16.519  0.00  0.00    +0.000 S 
ATOM     12  O   UNL     1       7.547   6.887  16.502  0.00  0.00    +0.000 OA
ATOM     13  O   UNL     1       7.748   4.435  17.019  0.00  0.00    +0.000 OA
BRANCH  11  14
ATOM     14  C   UNL     1       6.354   5.138  14.885  0.00  0.00    +0.000 C 
ATOM     15  F   UNL     1       7.345   4.790  14.016  0.00  0.00    +0.000 F 
ATOM     16  F   UNL     1       5.475   4.096  14.898  0.00  0.00    +0.000 F 
ENDBRANCH  11  14
ENDBRANCH   8  11
ENDBRANCH   2   5
BRANCH   1  17
ATOM     17  C   UNL     1       0.746   7.558  21.495  0.00  0.00    +0.000 C 
BRANCH  17  21
ATOM     18  C   UNL     1      -0.191  11.750  21.663  0.00  0.00    +0.000 A 
ATOM     19  C   UNL     1      -0.621  10.906  22.686  0.00  0.00    +0.000 A 
ATOM     20  C   UNL     1      -0.320   9.545  22.616  0.00  0.00    +0.000 A 
ATOM     21  C   UNL     1       0.413   9.025  21.536  0.00  0.00    +0.000 A 
ATOM     22  C   UNL     1       0.814   9.886  20.503  0.00  0.00    +0.000 A 
ATOM     23  C   UNL     1       0.515  11.247  20.566  0.00  0.00    +0.000 A 
BRANCH  18  24
ATOM     24  S   UNL     1      -0.472  13.489  21.785  0.00  0.00    +0.000 S 
ATOM     25  O   UNL     1       0.679  14.115  22.383  0.00  0.00    +0.000 OA
ATOM     26  O   UNL     1      -1.819  13.718  22.267  0.00  0.00    +0.000 OA
BRANCH  24  27
ATOM     27  N   UNL     1      -0.507  13.949  20.168  0.00  0.00    +0.000 NA
ATOM     28  H   UNL     1      -0.156  14.904  20.087  0.00  0.00    +0.000 HD
ATOM     29  H   UNL     1      -1.442  13.833  19.781  0.00  0.00    +0.000 HD
ENDBRANCH  24  27
ENDBRANCH  18  24
ENDBRANCH  17  21
ENDBRANCH   1  17
TORSDOF 7
ENDMDL
MODEL 9
REMARK VINA RESULT:      -7.6      1.293      1.809
REMARK  Name = 
REMARK  7 active torsions:
REMARK  status: ('A' for Active; 'I' for Inactive)
REMARK    1  A    between atoms: N_1  and  S_2
REMARK    2  A    between atoms: S_2  and  C_5
REMARK    3  A    between atoms: C_8  and  C_9
REMARK    4  A    between atoms: C_9  and  N_10
REMARK    5  A    between atoms: C_11  and  C_13
REMARK    6  A    between atoms: C_16  and  S_17
REMARK    7  A    between atoms: S_17  and  C_20
REMARK                            x       y       z     vdW  Elec       q    Type
REMARK                         _______ _______ _______ _____ _____    ______ ____
ROOT
ATOM      1  N   UNL     1       1.905   6.992  20.418  0.00  0.00    +0.000 N 
ATOM      2  C   UNL     1       2.423   5.725  20.264  0.00  0.00    +0.000 C 
ATOM      3  O   UNL     1       2.010   4.731  20.843  0.00  0.00    +0.000 OA
ATOM      4  H   UNL     1       2.143   7.708  19.747  0.00  0.00    +0.000 HD
ENDROOT
BRANCH   2   5
ATOM      5  C   UNL     1       3.565   5.621  19.309  0.00  0.00    +0.000 A 
ATOM      6  C   UNL     1       4.525   4.614  19.469  0.00  0.00    +0.000 A 
ATOM      7  C   UNL     1       5.592   4.511  18.576  0.00  0.00    +0.000 A 
ATOM      8  C   UNL     1       5.693   5.408  17.509  0.00  0.00    +0.000 A 
ATOM      9  C   UNL     1       4.736   6.415  17.333  0.00  0.00    +0.000 A 
ATOM     10  C   UNL     1       3.661   6.511  18.230  0.00  0.00    +0.000 A 
BRANCH   8  11
ATOM     11  S   UNL     1       7.106   5.293  16.421  0.00  0.00    +0.000 S 
ATOM     12  O   UNL     1       7.616   6.645  16.283  0.00  0.00    +0.000 OA
ATOM     13  O   UNL     1       7.966   4.250  16.959  0.00  0.00    +0.000 OA
BRANCH  11  14
ATOM     14  C   UNL     1       6.443   4.729  14.852  0.00  0.00    +0.000 C 
ATOM     15  F   UNL     1       7.292   4.941  13.807  0.00  0.00    +0.000 F 
ATOM     16  F   UNL     1       6.156   3.396  14.845  0.00  0.00    +0.000 F 
ENDBRANCH  11  14
ENDBRANCH   8  11
ENDBRANCH   2   5
BRANCH   1  17
ATOM     17  C   UNL     1       0.833   7.285  21.341  0.00  0.00    +0.000 C 
BRANCH  17  21
ATOM     18  C   UNL     1      -0.019  11.496  21.499  0.00  0.00    +0.000 A 
ATOM     19  C   UNL     1       0.624  10.963  20.382  0.00  0.00    +0.000 A 
ATOM     20  C   UNL     1       0.905   9.597  20.346  0.00  0.00    +0.000 A 
ATOM     21  C   UNL     1       0.542   8.760  21.414  0.00  0.00    +0.000 A 
ATOM     22  C   UNL     1      -0.081   9.318  22.541  0.00  0.00    +0.000 A 
ATOM     23  C   UNL     1      -0.364  10.684  22.584  0.00  0.00    +0.000 A 
BRANCH  18  24
ATOM     24  S   UNL     1      -0.475  13.201  21.518  0.00  0.00    +0.000 S 
ATOM     25  O   UNL     1      -0.686  13.652  20.167  0.00  0.00    +0.000 OA
ATOM     26  O   UNL     1       0.380  13.909  22.449  0.00  0.00    +0.000 OA
BRANCH  24  27
ATOM     27  N   UNL     1      -1.980  13.148  22.268  0.00  0.00    +0.000 NA
ATOM     28  H   UNL     1      -1.929  13.658  23.151  0.00  0.00    +0.000 HD
ATOM     29  H   UNL     1      -2.293  12.185  22.381  0.00  0.00    +0.000 HD
ENDBRANCH  24  27
ENDBRANCH  18  24
ENDBRANCH  17  21
ENDBRANCH   1  17
TORSDOF 7
ENDMDL
