MODEL 1
REMARK VINA RESULT:      -8.2      0.000      0.000
REMARK  Name = 
REMARK  8 active torsions:
REMARK  status: ('A' for Active; 'I' for Inactive)
REMARK    1  A    between atoms: C_1  and  C_2
REMARK    2  A    between atoms: C_4  and  C_5
REMARK    3  A    between atoms: C_6  and  C_7
REMARK    4  A    between atoms: C_7  and  N_8
REMARK    5  A    between atoms: C_11  and  C_12
REMARK    6  A    between atoms: C_12  and  N_13
REMARK    7  A    between atoms: C_14  and  C_16
REMARK    8  A    between atoms: C_24  and  C_25
REMARK                            x       y       z     vdW  Elec       q    Type
REMARK                         _______ _______ _______ _____ _____    ______ ____
ROOT
ATOM      1  N   UNL     1       1.867   5.827  19.645  0.00  0.00    +0.000 NA
ATOM      2  C   UNL     1       1.611   5.067  20.860  0.00  0.00    +0.000 C 
ATOM      3  C   UNL     1       2.223   3.701  20.597  0.00  0.00    +0.000 C 
ATOM      4  C   UNL     1       2.079   3.526  19.088  0.00  0.00    +0.000 C 
ATOM      5  C   UNL     1       2.280   4.949  18.558  0.00  0.00    +0.000 C 
ENDROOT
BRANCH   1   6
ATOM      6  C   UNL     1       2.499   7.140  19.770  0.00  0.00    +0.000 C 
BRANCH   6  12
ATOM      7  C   UNL     1      -1.133  11.535  21.172  0.00  0.00    +0.000 C 
ATOM      8  C   UNL     1      -0.159  10.438  20.839  0.00  0.00    +0.000 A 
ATOM      9  C   UNL     1       0.325  10.315  19.529  0.00  0.00    +0.000 A 
ATOM     10  C   UNL     1       1.198   9.275  19.154  0.00  0.00    +0.000 A 
ATOM     11  C   UNL     1       1.662   9.223  17.724  0.00  0.00    +0.000 C 
ATOM     12  C   UNL     1       1.601   8.323  20.115  0.00  0.00    +0.000 A 
ATOM     13  C   UNL     1       1.161   8.496  21.439  0.00  0.00    +0.000 A 
ATOM     14  C   UNL     1       0.266   9.516  21.807  0.00  0.00    +0.000 A 
ATOM     15  C   UNL     1      -0.237   9.573  23.223  0.00  0.00    +0.000 C 
ENDBRANCH   6  12
ENDBRANCH   1   6
BRANCH   4  16
ATOM     16  C   UNL     1       3.069   2.497  18.547  0.00  0.00    +0.000 C 
BRANCH  16  17
ATOM     17  N   UNL     1       3.937   3.021  17.511  0.00  0.00    +0.000 N 
ATOM     18  C   UNL     1       5.120   3.675  17.799  0.00  0.00    +0.000 C 
ATOM     19  O   UNL     1       5.559   3.827  18.929  0.00  0.00    +0.000 OA
ATOM     20  H   UNL     1       3.709   2.786  16.553  0.00  0.00    +0.000 HD
BRANCH  18  21
ATOM     21  C   UNL     1       5.877   4.179  16.640  0.00  0.00    +0.000 A 
ATOM     22  C   UNL     1       6.786   5.213  16.713  0.00  0.00    +0.000 A 
ATOM     23  N   UNL     1       7.450   5.708  15.645  0.00  0.00    +0.000 NA
ATOM     24  C   UNL     1       7.193   5.105  14.472  0.00  0.00    +0.000 A 
ATOM     25  N   UNL     1       6.359   4.069  14.287  0.00  0.00    +0.000 NA
ATOM     26  C   UNL     1       5.721   3.617  15.391  0.00  0.00    +0.000 A 
ENDBRANCH  18  21
ENDBRANCH  16  17
ENDBRANCH   4  16
TORSDOF 5
ENDMDL
MODEL 2
REMARK VINA RESULT:      -8.0      4.640      7.187
REMARK  Name = 
REMARK  8 active torsions:
REMARK  status: ('A' for Active; 'I' for Inactive)
REMARK    1  A    between atoms: C_1  and  C_2
REMARK    2  A    between atoms: C_4  and  C_5
REMARK    3  A    between atoms: C_6  and  C_7
REMARK    4  A    between atoms: C_7  and  N_8
REMARK    5  A    between atoms: C_11  and  C_12
REMARK    6  A    between atoms: C_12  and  N_13
REMARK    7  A    between atoms: C_14  and  C_16
REMARK    8  A    between atoms: C_24  and  C_25
REMARK                            x       y       z     vdW  Elec       q    Type
REMARK                         _______ _______ _______ _____ _____    ______ ____
ROOT
ATOM      1  N   UNL     1       6.493   4.956  16.667  0.00  0.00    +0.000 NA
ATOM      2  C   UNL     1       7.236   4.695  17.891  0.00  0.00    +0.000 C 
ATOM      3  C   UNL     1       7.472   6.066  18.502  0.00  0.00    +0.000 C 
ATOM      4  C   UNL     1       7.555   6.989  17.290  0.00  0.00    +0.000 C 
ATOM      5  C   UNL     1       6.547   6.370  16.317  0.00  0.00    +0.000 C 
ENDROOT
BRANCH   1   6
ATOM      6  C   UNL     1       5.249   4.222  16.442  0.00  0.00    +0.000 C 
BRANCH   6  12
ATOM      7  C   UNL     1       1.084   5.085  20.490  0.00  0.00    +0.000 C 
ATOM      8  C   UNL     1       2.111   4.876  19.412  0.00  0.00    +0.000 A 
ATOM      9  C   UNL     1       2.510   3.574  19.078  0.00  0.00    +0.000 A 
ATOM     10  C   UNL     1       3.505   3.325  18.112  0.00  0.00    +0.000 A 
ATOM     11  C   UNL     1       3.869   1.895  17.824  0.00  0.00    +0.000 C 
ATOM     12  C   UNL     1       4.127   4.411  17.457  0.00  0.00    +0.000 A 
ATOM     13  C   UNL     1       3.671   5.707  17.754  0.00  0.00    +0.000 A 
ATOM     14  C   UNL     1       2.700   5.957  18.739  0.00  0.00    +0.000 A 
ATOM     15  C   UNL     1       2.340   7.379  19.068  0.00  0.00    +0.000 C 
ENDBRANCH   6  12
ENDBRANCH   1   6
BRANCH   4  16
ATOM     16  C   UNL     1       7.267   8.440  17.670  0.00  0.00    +0.000 C 
BRANCH  16  17
ATOM     17  N   UNL     1       8.420   9.136  18.206  0.00  0.00    +0.000 N 
ATOM     18  C   UNL     1       8.614  10.493  18.025  0.00  0.00    +0.000 C 
ATOM     19  O   UNL     1       7.824  11.225  17.450  0.00  0.00    +0.000 OA
ATOM     20  H   UNL     1       9.027   8.617  18.827  0.00  0.00    +0.000 HD
BRANCH  18  21
ATOM     21  C   UNL     1       9.850  11.050  18.601  0.00  0.00    +0.000 A 
ATOM     22  C   UNL     1      10.085  11.143  19.956  0.00  0.00    +0.000 A 
ATOM     23  N   UNL     1      11.199  11.693  20.490  0.00  0.00    +0.000 NA
ATOM     24  C   UNL     1      12.108  12.138  19.606  0.00  0.00    +0.000 A 
ATOM     25  N   UNL     1      12.004  12.066  18.270  0.00  0.00    +0.000 NA
ATOM     26  C   UNL     1      10.868  11.507  17.792  0.00  0.00    +0.000 A 
ENDBRANCH  18  21
ENDBRANCH  16  17
ENDBRANCH   4  16
TORSDOF 5
ENDMDL
MODEL 3
REMARK VINA RESULT:      -8.0      4.974      7.565
REMARK  Name = 
REMARK  8 active torsions:
REMARK  status: ('A' for Active; 'I' for Inactive)
REMARK    1  A    between atoms: C_1  and  C_2
REMARK    2  A    between atoms: C_4  and  C_5
REMARK    3  A    between atoms: C_6  and  C_7
REMARK    4  A    between atoms: C_7  and  N_8
REMARK    5  A    between atoms: C_11  and  C_12
REMARK    6  A    between atoms: C_12  and  N_13
REMARK    7  A    between atoms: C_14  and  C_16
REMARK    8  A    between atoms: C_24  and  C_25
REMARK                            x       y       z     vdW  Elec       q    Type
REMARK                         _______ _______ _______ _____ _____    ______ ____
ROOT
ATOM      1  N   UNL     1       6.632   6.037  16.554  0.00  0.00    +0.000 NA
ATOM      2  C   UNL     1       7.177   5.121  17.545  0.00  0.00    +0.000 C 
ATOM      3  C   UNL     1       7.683   6.017  18.662  0.00  0.00    +0.000 C 
ATOM      4  C   UNL     1       8.097   7.295  17.939  0.00  0.00    +0.000 C 
ATOM      5  C   UNL     1       7.060   7.405  16.818  0.00  0.00    +0.000 C 
ENDROOT
BRANCH   1   6
ATOM      6  C   UNL     1       5.272   5.805  16.070  0.00  0.00    +0.000 C 
BRANCH   6  12
ATOM      7  C   UNL     1       1.265   3.515  19.700  0.00  0.00    +0.000 C 
ATOM      8  C   UNL     1       2.332   4.090  18.810  0.00  0.00    +0.000 A 
ATOM      9  C   UNL     1       2.445   5.481  18.672  0.00  0.00    +0.000 A 
ATOM     10  C   UNL     1       3.394   6.068  17.812  0.00  0.00    +0.000 A 
ATOM     11  C   UNL     1       3.437   7.569  17.727  0.00  0.00    +0.000 C 
ATOM     12  C   UNL     1       4.259   5.243  17.061  0.00  0.00    +0.000 A 
ATOM     13  C   UNL     1       4.179   3.853  17.258  0.00  0.00    +0.000 A 
ATOM     14  C   UNL     1       3.213   3.266  18.093  0.00  0.00    +0.000 A 
ATOM     15  C   UNL     1       3.128   1.767  18.172  0.00  0.00    +0.000 C 
ENDBRANCH   6  12
ENDBRANCH   1   6
BRANCH   4  16
ATOM     16  C   UNL     1       8.137   8.489  18.891  0.00  0.00    +0.000 C 
BRANCH  16  17
ATOM     17  N   UNL     1       8.796   9.652  18.329  0.00  0.00    +0.000 N 
ATOM     18  C   UNL     1       9.354  10.639  19.120  0.00  0.00    +0.000 C 
ATOM     19  O   UNL     1       9.385  10.600  20.340  0.00  0.00    +0.000 OA
ATOM     20  H   UNL     1       8.943   9.662  17.328  0.00  0.00    +0.000 HD
BRANCH  18  21
ATOM     21  C   UNL     1       9.959  11.775  18.403  0.00  0.00    +0.000 A 
ATOM     22  C   UNL     1      11.222  11.743  17.852  0.00  0.00    +0.000 A 
ATOM     23  N   UNL     1      11.799  12.796  17.232  0.00  0.00    +0.000 NA
ATOM     24  C   UNL     1      11.046  13.906  17.152  0.00  0.00    +0.000 A 
ATOM     25  N   UNL     1       9.794  14.041  17.616  0.00  0.00    +0.000 NA
ATOM     26  C   UNL     1       9.269  12.955  18.229  0.00  0.00    +0.000 A 
ENDBRANCH  18  21
ENDBRANCH  16  17
ENDBRANCH   4  16
TORSDOF 5
ENDMDL
MODEL 4
REMARK VINA RESULT:      -7.7      3.975      8.425
REMARK  Name = 
REMARK  8 active torsions:
REMARK  status: ('A' for Active; 'I' for Inactive)
REMARK    1  A    between atoms: C_1  and  C_2
REMARK    2  A    between atoms: C_4  and  C_5
REMARK    3  A    between atoms: C_6  and  C_7
REMARK    4  A    between atoms: C_7  and  N_8
REMARK    5  A    between atoms: C_11  and  C_12
REMARK    6  A    between atoms: C_12  and  N_13
REMARK    7  A    between atoms: C_14  and  C_16
REMARK    8  A    between atoms: C_24  and  C_25
REMARK                            x       y       z     vdW  Elec       q    Type
REMARK                         _______ _______ _______ _____ _____    ______ ____
ROOT
ATOM      1  N   UNL     1       2.249   7.902  19.100  0.00  0.00    +0.000 NA
ATOM      2  C   UNL     1       2.075   7.190  20.357  0.00  0.00    +0.000 C 
ATOM      3  C   UNL     1       0.931   7.909  21.053  0.00  0.00    +0.000 C 
ATOM      4  C   UNL     1       1.060   9.348  20.564  0.00  0.00    +0.000 C 
ATOM      5  C   UNL     1       1.544   9.178  19.121  0.00  0.00    +0.000 C 
ENDROOT
BRANCH   1   6
ATOM      6  C   UNL     1       2.264   7.126  17.860  0.00  0.00    +0.000 C 
BRANCH   6  12
ATOM      7  C   UNL     1       3.649   1.452  18.468  0.00  0.00    +0.000 C 
ATOM      8  C   UNL     1       3.273   2.893  18.259  0.00  0.00    +0.000 A 
ATOM      9  C   UNL     1       4.272   3.835  17.975  0.00  0.00    +0.000 A 
ATOM     10  C   UNL     1       3.980   5.205  17.821  0.00  0.00    +0.000 A 
ATOM     11  C   UNL     1       5.118   6.141  17.521  0.00  0.00    +0.000 C 
ATOM     12  C   UNL     1       2.647   5.653  17.958  0.00  0.00    +0.000 A 
ATOM     13  C   UNL     1       1.648   4.689  18.178  0.00  0.00    +0.000 A 
ATOM     14  C   UNL     1       1.943   3.327  18.361  0.00  0.00    +0.000 A 
ATOM     15  C   UNL     1       0.828   2.375  18.692  0.00  0.00    +0.000 C 
ENDBRANCH   6  12
ENDBRANCH   1   6
BRANCH   4  16
ATOM     16  C   UNL     1      -0.256  10.109  20.710  0.00  0.00    +0.000 C 
BRANCH  16  17
ATOM     17  N   UNL     1      -1.073  10.085  19.513  0.00  0.00    +0.000 N 
ATOM     18  C   UNL     1      -1.622  11.232  18.969  0.00  0.00    +0.000 C 
ATOM     19  O   UNL     1      -1.434  12.354  19.411  0.00  0.00    +0.000 OA
ATOM     20  H   UNL     1      -1.132   9.209  19.011  0.00  0.00    +0.000 HD
BRANCH  18  21
ATOM     21  C   UNL     1      -2.455  11.041  17.769  0.00  0.00    +0.000 A 
ATOM     22  C   UNL     1      -3.720  11.570  17.627  0.00  0.00    +0.000 A 
ATOM     23  N   UNL     1      -4.506  11.361  16.547  0.00  0.00    +0.000 NA
ATOM     24  C   UNL     1      -3.965  10.609  15.573  0.00  0.00    +0.000 A 
ATOM     25  N   UNL     1      -2.734  10.075  15.585  0.00  0.00    +0.000 NA
ATOM     26  C   UNL     1      -1.993  10.315  16.692  0.00  0.00    +0.000 A 
ENDBRANCH  18  21
ENDBRANCH  16  17
ENDBRANCH   4  16
TORSDOF 5
ENDMDL
MODEL 5
REMARK VINA RESULT:      -7.6      5.172      7.361
REMARK  Name = 
REMARK  8 active torsions:
REMARK  status: ('A' for Active; 'I' for Inactive)
REMARK    1  A    between atoms: C_1  and  C_2
REMARK    2  A    between atoms: C_4  and  C_5
REMARK    3  A    between atoms: C_6  and  C_7
REMARK    4  A    between atoms: C_7  and  N_8
REMARK    5  A    between atoms: C_11  and  C_12
REMARK    6  A    between atoms: C_12  and  N_13
REMARK    7  A    between atoms: C_14  and  C_16
REMARK    8  A    between atoms: C_24  and  C_25
REMARK                            x       y       z     vdW  Elec       q    Type
REMARK                         _______ _______ _______ _____ _____    ______ ____
ROOT
ATOM      1  N   UNL     1       6.530   6.536  16.694  0.00  0.00    +0.000 NA
ATOM      2  C   UNL     1       7.025   5.508  17.599  0.00  0.00    +0.000 C 
ATOM      3  C   UNL     1       7.689   6.276  18.730  0.00  0.00    +0.000 C 
ATOM      4  C   UNL     1       8.200   7.544  18.052  0.00  0.00    +0.000 C 
ATOM      5  C   UNL     1       7.120   7.832  17.004  0.00  0.00    +0.000 C 
ENDROOT
BRANCH   1   6
ATOM      6  C   UNL     1       5.128   6.479  16.284  0.00  0.00    +0.000 C 
BRANCH   6  12
ATOM      7  C   UNL     1       1.364   4.697  20.423  0.00  0.00    +0.000 C 
ATOM      8  C   UNL     1       2.283   5.173  19.331  0.00  0.00    +0.000 A 
ATOM      9  C   UNL     1       2.874   4.239  18.468  0.00  0.00    +0.000 A 
ATOM     10  C   UNL     1       3.781   4.628  17.462  0.00  0.00    +0.000 A 
ATOM     11  C   UNL     1       4.367   3.554  16.586  0.00  0.00    +0.000 C 
ATOM     12  C   UNL     1       4.113   5.992  17.312  0.00  0.00    +0.000 A 
ATOM     13  C   UNL     1       3.463   6.923  18.141  0.00  0.00    +0.000 A 
ATOM     14  C   UNL     1       2.581   6.533  19.164  0.00  0.00    +0.000 A 
ATOM     15  C   UNL     1       2.005   7.583  20.073  0.00  0.00    +0.000 C 
ENDBRANCH   6  12
ENDBRANCH   1   6
BRANCH   4  16
ATOM     16  C   UNL     1       8.425   8.668  19.062  0.00  0.00    +0.000 C 
BRANCH  16  17
ATOM     17  N   UNL     1       9.048   9.844  18.487  0.00  0.00    +0.000 N 
ATOM     18  C   UNL     1       9.517  10.886  19.265  0.00  0.00    +0.000 C 
ATOM     19  O   UNL     1       9.494  10.891  20.486  0.00  0.00    +0.000 OA
ATOM     20  H   UNL     1       9.242   9.827  17.495  0.00  0.00    +0.000 HD
BRANCH  18  21
ATOM     21  C   UNL     1      10.096  12.026  18.534  0.00  0.00    +0.000 A 
ATOM     22  C   UNL     1       9.508  13.271  18.472  0.00  0.00    +0.000 A 
ATOM     23  N   UNL     1      10.013  14.307  17.766  0.00  0.00    +0.000 NA
ATOM     24  C   UNL     1      11.169  14.065  17.126  0.00  0.00    +0.000 A 
ATOM     25  N   UNL     1      11.850  12.908  17.145  0.00  0.00    +0.000 NA
ATOM     26  C   UNL     1      11.296  11.906  17.866  0.00  0.00    +0.000 A 
ENDBRANCH  18  21
ENDBRANCH  16  17
ENDBRANCH   4  16
TORSDOF 5
ENDMDL
MODEL 6
REMARK VINA RESULT:      -7.6      5.679      8.310
REMARK  Name = 
REMARK  8 active torsions:
REMARK  status: ('A' for Active; 'I' for Inactive)
REMARK    1  A    between atoms: C_1  and  C_2
REMARK    2  A    between atoms: C_4  and  C_5
REMARK    3  A    between atoms: C_6  and  C_7
REMARK    4  A    between atoms: C_7  and  N_8
REMARK    5  A    between atoms: C_11  and  C_12
REMARK    6  A    between atoms: C_12  and  N_13
REMARK    7  A    between atoms: C_14  and  C_16
REMARK    8  A    between atoms: C_24  and  C_25
REMARK                            x       y       z     vdW  Elec       q    Type
REMARK                         _______ _______ _______ _____ _____    ______ ____
ROOT
ATOM      1  N   UNL     1       6.588   7.199  16.998  0.00  0.00    +0.000 NA
ATOM      2  C   UNL     1       7.346   6.212  17.753  0.00  0.00    +0.000 C 
ATOM      3  C   UNL     1       8.153   7.024  18.752  0.00  0.00    +0.000 C 
ATOM      4  C   UNL     1       8.400   8.343  18.027  0.00  0.00    +0.000 C 
ATOM      5  C   UNL     1       7.110   8.541  17.226  0.00  0.00    +0.000 C 
ENDROOT
BRANCH   1   6
ATOM      6  C   UNL     1       5.143   7.016  16.875  0.00  0.00    +0.000 C 
BRANCH   6  12
ATOM      7  C   UNL     1       3.059   1.848  18.725  0.00  0.00    +0.000 C 
ATOM      8  C   UNL     1       3.538   3.188  18.237  0.00  0.00    +0.000 A 
ATOM      9  C   UNL     1       4.196   3.280  17.003  0.00  0.00    +0.000 A 
ATOM     10  C   UNL     1       4.709   4.502  16.524  0.00  0.00    +0.000 A 
ATOM     11  C   UNL     1       5.404   4.503  15.189  0.00  0.00    +0.000 C 
ATOM     12  C   UNL     1       4.565   5.671  17.302  0.00  0.00    +0.000 A 
ATOM     13  C   UNL     1       3.846   5.576  18.507  0.00  0.00    +0.000 A 
ATOM     14  C   UNL     1       3.360   4.352  18.998  0.00  0.00    +0.000 A 
ATOM     15  C   UNL     1       2.689   4.319  20.343  0.00  0.00    +0.000 C 
ENDBRANCH   6  12
ENDBRANCH   1   6
BRANCH   4  16
ATOM     16  C   UNL     1       8.722   9.470  19.007  0.00  0.00    +0.000 C 
BRANCH  16  17
ATOM     17  N   UNL     1       9.324  10.628  18.376  0.00  0.00    +0.000 N 
ATOM     18  C   UNL     1      10.144  11.502  19.065  0.00  0.00    +0.000 C 
ATOM     19  O   UNL     1      10.470  11.356  20.233  0.00  0.00    +0.000 OA
ATOM     20  H   UNL     1       9.222  10.715  17.373  0.00  0.00    +0.000 HD
BRANCH  18  21
ATOM     21  C   UNL     1      10.653  12.651  18.296  0.00  0.00    +0.000 A 
ATOM     22  C   UNL     1      11.837  12.632  17.590  0.00  0.00    +0.000 A 
ATOM     23  N   UNL     1      12.330  13.696  16.919  0.00  0.00    +0.000 NA
ATOM     24  C   UNL     1      11.572  14.805  16.952  0.00  0.00    +0.000 A 
ATOM     25  N   UNL     1      10.388  14.929  17.572  0.00  0.00    +0.000 NA
ATOM     26  C   UNL     1       9.945  13.831  18.229  0.00  0.00    +0.000 A 
ENDBRANCH  18  21
ENDBRANCH  16  17
ENDBRANCH   4  16
TORSDOF 5
ENDMDL
MODEL 7
REMARK VINA RESULT:      -7.6      0.900      1.183
REMARK  Name = 
REMARK  8 active torsions:
REMARK  status: ('A' for Active; 'I' for Inactive)
REMARK    1  A    between atoms: C_1  and  C_2
REMARK    2  A    between atoms: C_4  and  C_5
REMARK    3  A    between atoms: C_6  and  C_7
REMARK    4  A    between atoms: C_7  and  N_8
REMARK    5  A    between atoms: C_11  and  C_12
REMARK    6  A    between atoms: C_12  and  N_13
REMARK    7  A    between atoms: C_14  and  C_16
REMARK    8  A    between atoms: C_24  and  C_25
REMARK                            x       y       z     vdW  Elec       q    Type
REMARK                         _______ _______ _______ _____ _____    ______ ____
ROOT
ATOM      1  N   UNL     1       1.798   5.233  20.155  0.00  0.00    +0.000 NA
ATOM      2  C   UNL     1       1.680   4.265  21.236  0.00  0.00    +0.000 C 
ATOM      3  C   UNL     1       2.118   2.945  20.622  0.00  0.00    +0.000 C 
ATOM      4  C   UNL     1       1.711   3.077  19.158  0.00  0.00    +0.000 C 
ATOM      5  C   UNL     1       1.946   4.563  18.869  0.00  0.00    +0.000 C 
ENDROOT
BRANCH   1   6
ATOM      6  C   UNL     1       2.555   6.459  20.402  0.00  0.00    +0.000 C 
BRANCH   6  12
ATOM      7  C   UNL     1      -0.098  11.431  18.758  0.00  0.00    +0.000 C 
ATOM      8  C   UNL     1       0.619  10.189  19.211  0.00  0.00    +0.000 A 
ATOM      9  C   UNL     1       1.472   9.519  18.322  0.00  0.00    +0.000 A 
ATOM     10  C   UNL     1       2.127   8.325  18.680  0.00  0.00    +0.000 A 
ATOM     11  C   UNL     1       3.020   7.675  17.658  0.00  0.00    +0.000 C 
ATOM     12  C   UNL     1       1.924   7.776  19.965  0.00  0.00    +0.000 A 
ATOM     13  C   UNL     1       1.119   8.493  20.867  0.00  0.00    +0.000 A 
ATOM     14  C   UNL     1       0.442   9.669  20.501  0.00  0.00    +0.000 A 
ATOM     15  C   UNL     1      -0.481  10.321  21.493  0.00  0.00    +0.000 C 
ENDBRANCH   6  12
ENDBRANCH   1   6
BRANCH   4  16
ATOM     16  C   UNL     1       2.502   2.121  18.268  0.00  0.00    +0.000 C 
BRANCH  16  17
ATOM     17  N   UNL     1       3.457   2.791  17.407  0.00  0.00    +0.000 N 
ATOM     18  C   UNL     1       4.654   3.294  17.882  0.00  0.00    +0.000 C 
ATOM     19  O   UNL     1       5.032   3.180  19.038  0.00  0.00    +0.000 OA
ATOM     20  H   UNL     1       3.275   2.773  16.412  0.00  0.00    +0.000 HD
BRANCH  18  21
ATOM     21  C   UNL     1       5.505   3.976  16.891  0.00  0.00    +0.000 A 
ATOM     22  C   UNL     1       6.734   4.524  17.190  0.00  0.00    +0.000 A 
ATOM     23  N   UNL     1       7.498   5.189  16.295  0.00  0.00    +0.000 NA
ATOM     24  C   UNL     1       6.996   5.272  15.051  0.00  0.00    +0.000 A 
ATOM     25  N   UNL     1       5.832   4.747  14.637  0.00  0.00    +0.000 NA
ATOM     26  C   UNL     1       5.109   4.093  15.576  0.00  0.00    +0.000 A 
ENDBRANCH  18  21
ENDBRANCH  16  17
ENDBRANCH   4  16
TORSDOF 5
ENDMDL
MODEL 8
REMARK VINA RESULT:      -7.5      4.015      8.535
REMARK  Name = 
REMARK  8 active torsions:
REMARK  status: ('A' for Active; 'I' for Inactive)
REMARK    1  A    between atoms: C_1  and  C_2
REMARK    2  A    between atoms: C_4  and  C_5
REMARK    3  A    between atoms: C_6  and  C_7
REMARK    4  A    between atoms: C_7  and  N_8
REMARK    5  A    between atoms: C_11  and  C_12
REMARK    6  A    between atoms: C_12  and  N_13
REMARK    7  A    between atoms: C_14  and  C_16
REMARK    8  A    between atoms: C_24  and  C_25
REMARK                            x       y       z     vdW  Elec       q    Type
REMARK                         _______ _______ _______ _____ _____    ______ ____
ROOT
ATOM      1  N   UNL     1       2.137   7.687  19.393  0.00  0.00    +0.000 NA
ATOM      2  C   UNL     1       1.830   7.104  20.691  0.00  0.00    +0.000 C 
ATOM      3  C   UNL     1       0.733   7.987  21.262  0.00  0.00    +0.000 C 
ATOM      4  C   UNL     1       1.032   9.360  20.668  0.00  0.00    +0.000 C 
ATOM      5  C   UNL     1       1.566   9.022  19.273  0.00  0.00    +0.000 C 
ENDROOT
BRANCH   1   6
ATOM      6  C   UNL     1       2.133   6.811  18.222  0.00  0.00    +0.000 C 
BRANCH   6  12
ATOM      7  C   UNL     1       7.230   4.434  16.533  0.00  0.00    +0.000 C 
ATOM      8  C   UNL     1       5.943   5.041  17.021  0.00  0.00    +0.000 A 
ATOM      9  C   UNL     1       4.784   4.255  17.076  0.00  0.00    +0.000 A 
ATOM     10  C   UNL     1       3.543   4.788  17.477  0.00  0.00    +0.000 A 
ATOM     11  C   UNL     1       2.353   3.868  17.502  0.00  0.00    +0.000 C 
ATOM     12  C   UNL     1       3.452   6.152  17.832  0.00  0.00    +0.000 A 
ATOM     13  C   UNL     1       4.635   6.911  17.835  0.00  0.00    +0.000 A 
ATOM     14  C   UNL     1       5.867   6.388  17.407  0.00  0.00    +0.000 A 
ATOM     15  C   UNL     1       7.065   7.294  17.344  0.00  0.00    +0.000 C 
ENDBRANCH   6  12
ENDBRANCH   1   6
BRANCH   4  16
ATOM     16  C   UNL     1      -0.205  10.257  20.679  0.00  0.00    +0.000 C 
BRANCH  16  17
ATOM     17  N   UNL     1      -1.019  10.131  19.486  0.00  0.00    +0.000 N 
ATOM     18  C   UNL     1      -1.559  11.228  18.841  0.00  0.00    +0.000 C 
ATOM     19  O   UNL     1      -1.366  12.385  19.182  0.00  0.00    +0.000 OA
ATOM     20  H   UNL     1      -1.081   9.214  19.063  0.00  0.00    +0.000 HD
BRANCH  18  21
ATOM     21  C   UNL     1      -2.390  10.937  17.660  0.00  0.00    +0.000 A 
ATOM     22  C   UNL     1      -2.025  10.048  16.671  0.00  0.00    +0.000 A 
ATOM     23  N   UNL     1      -2.763   9.811  15.564  0.00  0.00    +0.000 NA
ATOM     24  C   UNL     1      -3.922  10.487  15.483  0.00  0.00    +0.000 A 
ATOM     25  N   UNL     1      -4.396  11.346  16.399  0.00  0.00    +0.000 NA
ATOM     26  C   UNL     1      -3.614  11.546  17.485  0.00  0.00    +0.000 A 
ENDBRANCH  18  21
ENDBRANCH  16  17
ENDBRANCH   4  16
TORSDOF 5
ENDMDL
MODEL 9
REMARK VINA RESULT:      -7.4      4.074      9.658
REMARK  Name = 
REMARK  8 active torsions:
REMARK  status: ('A' for Active; 'I' for Inactive)
REMARK    1  A    between atoms: C_1  and  C_2
REMARK    2  A    between atoms: C_4  and  C_5
REMARK    3  A    between atoms: C_6  and  C_7
REMARK    4  A    between atoms: C_7  and  N_8
REMARK    5  A    between atoms: C_11  and  C_12
REMARK    6  A    between atoms: C_12  and  N_13
REMARK    7  A    between atoms: C_14  and  C_16
REMARK    8  A    between atoms: C_24  and  C_25
REMARK                            x       y       z     vdW  Elec       q    Type
REMARK                         _______ _______ _______ _____ _____    ______ ____
ROOT
ATOM      1  N   UNL     1       1.890   8.167  18.460  0.00  0.00    +0.000 NA
ATOM      2  C   UNL     1       1.274   9.250  17.706  0.00  0.00    +0.000 C 
ATOM      3  C   UNL     1       1.013  10.337  18.735  0.00  0.00    +0.000 C 
ATOM      4  C   UNL     1       0.769   9.560  20.025  0.00  0.00    +0.000 C 
ATOM      5  C   UNL     1       1.722   8.369  19.893  0.00  0.00    +0.000 C 
ENDROOT
BRANCH   1   6
ATOM      6  C   UNL     1       3.150   7.611  17.969  0.00  0.00    +0.000 C 
BRANCH   6  12
ATOM      7  C   UNL     1       3.547   1.753  17.928  0.00  0.00    +0.000 C 
ATOM      8  C   UNL     1       3.416   3.251  17.888  0.00  0.00    +0.000 A 
ATOM      9  C   UNL     1       4.521   4.034  17.526  0.00  0.00    +0.000 A 
ATOM     10  C   UNL     1       4.465   5.442  17.522  0.00  0.00    +0.000 A 
ATOM     11  C   UNL     1       5.702   6.198  17.123  0.00  0.00    +0.000 C 
ATOM     12  C   UNL     1       3.268   6.093  17.895  0.00  0.00    +0.000 A 
ATOM     13  C   UNL     1       2.150   5.295  18.193  0.00  0.00    +0.000 A 
ATOM     14  C   UNL     1       2.214   3.891  18.225  0.00  0.00    +0.000 A 
ATOM     15  C   UNL     1       1.000   3.113  18.651  0.00  0.00    +0.000 C 
ENDBRANCH   6  12
ENDBRANCH   1   6
BRANCH   4  16
ATOM     16  C   UNL     1       1.004  10.432  21.257  0.00  0.00    +0.000 C 
BRANCH  16  17
ATOM     17  N   UNL     1      -0.069  11.373  21.511  0.00  0.00    +0.000 N 
ATOM     18  C   UNL     1      -0.899  11.268  22.612  0.00  0.00    +0.000 C 
ATOM     19  O   UNL     1      -0.777  10.418  23.480  0.00  0.00    +0.000 OA
ATOM     20  H   UNL     1      -0.119  12.190  20.916  0.00  0.00    +0.000 HD
BRANCH  18  21
ATOM     21  C   UNL     1      -1.964  12.280  22.716  0.00  0.00    +0.000 A 
ATOM     22  C   UNL     1      -1.987  13.442  21.973  0.00  0.00    +0.000 A 
ATOM     23  N   UNL     1      -2.938  14.394  22.096  0.00  0.00    +0.000 NA
ATOM     24  C   UNL     1      -3.908  14.134  22.990  0.00  0.00    +0.000 A 
ATOM     25  N   UNL     1      -4.009  13.025  23.739  0.00  0.00    +0.000 NA
ATOM     26  C   UNL     1      -3.028  12.107  23.575  0.00  0.00    +0.000 A 
ENDBRANCH  18  21
ENDBRANCH  16  17
ENDBRANCH   4  16
TORSDOF 5
ENDMDL
