MODEL 1
REMARK VINA RESULT:      -8.9      0.000      0.000
REMARK  Name = 
REMARK  10 active torsions:
REMARK  status: ('A' for Active; 'I' for Inactive)
REMARK    1  A    between atoms: C_1  and  O_2
REMARK    2  A    between atoms: O_2  and  C_3
REMARK    3  A    between atoms: C_3  and  C_5
REMARK    4  A    between atoms: C_7  and  C_8
REMARK    5  A    between atoms: C_12  and  N_13
REMARK    6  A    between atoms: C_14  and  C_16
REMARK    7  A    between atoms: C_19  and  C_20
REMARK    8  A    between atoms: C_21  and  C_22
REMARK    9  A    between atoms: C_22  and  C_24
REMARK   10  A    between atoms: C_28  and  N_29
REMARK                            x       y       z     vdW  Elec       q    Type
REMARK                         _______ _______ _______ _____ _____    ______ ____
ROOT
ATOM      1  N   UNL     1       1.960   6.749  20.629  0.00  0.00    +0.000 N 
ATOM      2  C   UNL     1       1.719   7.852  19.830  0.00  0.00    +0.000 C 
ATOM      3  O   UNL     1       1.947   7.929  18.627  0.00  0.00    +0.000 OA
ATOM      4  H   UNL     1       1.632   6.764  21.585  0.00  0.00    +0.000 HD
ENDROOT
BRANCH   1   9
ATOM      5  C   UNL     1       4.197   4.512  18.686  0.00  0.00    +0.000 A 
ATOM      6  C   UNL     1       3.969   3.284  19.321  0.00  0.00    +0.000 A 
ATOM      7  C   UNL     1       3.077   3.192  20.387  0.00  0.00    +0.000 A 
ATOM      8  C   UNL     1       2.407   4.327  20.840  0.00  0.00    +0.000 A 
ATOM      9  C   UNL     1       2.609   5.562  20.223  0.00  0.00    +0.000 A 
ATOM     10  C   UNL     1       3.485   5.640  19.134  0.00  0.00    +0.000 A 
BRANCH   5  13
ATOM     11  C   UNL     1       6.491   4.697  15.828  0.00  0.00    +0.000 A 
ATOM     12  C   UNL     1       5.133   4.661  16.242  0.00  0.00    +0.000 A 
ATOM     13  C   UNL     1       5.180   4.620  17.616  0.00  0.00    +0.000 A 
ATOM     14  O   UNL     1       6.487   4.656  18.001  0.00  0.00    +0.000 OA
ATOM     15  N   UNL     1       7.307   4.704  16.894  0.00  0.00    +0.000 NA
BRANCH  11  16
ATOM     16  C   UNL     1       6.995   4.716  14.457  0.00  0.00    +0.000 C 
ATOM     17  O   UNL     1       7.766   5.576  14.043  0.00  0.00    +0.000 OA
BRANCH  16  19
ATOM     18  C   UNL     1       6.738   3.821  12.297  0.00  0.00    +0.000 C 
ATOM     19  O   UNL     1       6.512   3.688  13.698  0.00  0.00    +0.000 OA
ENDBRANCH  16  19
ENDBRANCH  11  16
ENDBRANCH   5  13
ENDBRANCH   1   9
BRANCH   2  20
ATOM     20  C   UNL     1       1.134   9.051  20.498  0.00  0.00    +0.000 A 
ATOM     21  C   UNL     1       1.192  10.259  19.789  0.00  0.00    +0.000 A 
ATOM     22  C   UNL     1       0.657  11.428  20.330  0.00  0.00    +0.000 A 
ATOM     23  C   UNL     1       0.038  11.411  21.583  0.00  0.00    +0.000 A 
ATOM     24  C   UNL     1      -0.005  10.206  22.300  0.00  0.00    +0.000 A 
ATOM     25  C   UNL     1       0.528   9.028  21.757  0.00  0.00    +0.000 A 
BRANCH  23  26
ATOM     26  C   UNL     1      -0.525  12.668  22.088  0.00  0.00    +0.000 C 
ATOM     27  C   UNL     1      -1.313  12.750  23.169  0.00  0.00    +0.000 C 
BRANCH  27  28
ATOM     28  C   UNL     1      -1.882  14.064  23.561  0.00  0.00    +0.000 C 
ATOM     29  O   UNL     1      -1.185  14.996  23.943  0.00  0.00    +0.000 OA
BRANCH  28  30
ATOM     30  C   UNL     1      -3.351  14.227  23.433  0.00  0.00    +0.000 A 
ATOM     31  C   UNL     1      -3.952  15.355  24.009  0.00  0.00    +0.000 A 
ATOM     32  C   UNL     1      -5.334  15.533  23.932  0.00  0.00    +0.000 A 
ATOM     33  C   UNL     1      -6.128  14.580  23.291  0.00  0.00    +0.000 A 
ATOM     34  C   UNL     1      -5.524  13.449  22.729  0.00  0.00    +0.000 A 
ATOM     35  C   UNL     1      -4.140  13.265  22.796  0.00  0.00    +0.000 A 
BRANCH  34  36
ATOM     36  N   UNL     1      -6.338  12.428  22.065  0.00  0.00    +0.000 N 
ATOM     37  O   UNL     1      -5.826  11.812  21.120  0.00  0.00    +0.000 OA
ATOM     38  O   UNL     1      -7.486  12.235  22.491  0.00  0.00    +0.000 OA
ENDBRANCH  34  36
ENDBRANCH  28  30
ENDBRANCH  27  28
ENDBRANCH  23  26
ENDBRANCH   2  20
TORSDOF 9
ENDMDL
MODEL 2
REMARK VINA RESULT:      -8.7      0.850      1.205
REMARK  Name = 
REMARK  10 active torsions:
REMARK  status: ('A' for Active; 'I' for Inactive)
REMARK    1  A    between atoms: C_1  and  O_2
REMARK    2  A    between atoms: O_2  and  C_3
REMARK    3  A    between atoms: C_3  and  C_5
REMARK    4  A    between atoms: C_7  and  C_8
REMARK    5  A    between atoms: C_12  and  N_13
REMARK    6  A    between atoms: C_14  and  C_16
REMARK    7  A    between atoms: C_19  and  C_20
REMARK    8  A    between atoms: C_21  and  C_22
REMARK    9  A    between atoms: C_22  and  C_24
REMARK   10  A    between atoms: C_28  and  N_29
REMARK                            x       y       z     vdW  Elec       q    Type
REMARK                         _______ _______ _______ _____ _____    ______ ____
ROOT
ATOM      1  N   UNL     1       1.546   6.614  20.823  0.00  0.00    +0.000 N 
ATOM      2  C   UNL     1       1.619   7.840  20.186  0.00  0.00    +0.000 C 
ATOM      3  O   UNL     1       2.278   8.086  19.180  0.00  0.00    +0.000 OA
ATOM      4  H   UNL     1       0.887   6.503  21.581  0.00  0.00    +0.000 HD
ENDROOT
BRANCH   1   9
ATOM      5  C   UNL     1       3.992   4.469  19.034  0.00  0.00    +0.000 A 
ATOM      6  C   UNL     1       3.857   3.263  19.734  0.00  0.00    +0.000 A 
ATOM      7  C   UNL     1       2.958   3.155  20.793  0.00  0.00    +0.000 A 
ATOM      8  C   UNL     1       2.189   4.253  21.174  0.00  0.00    +0.000 A 
ATOM      9  C   UNL     1       2.298   5.465  20.492  0.00  0.00    +0.000 A 
ATOM     10  C   UNL     1       3.182   5.557  19.411  0.00  0.00    +0.000 A 
BRANCH   5  13
ATOM     11  C   UNL     1       6.286   4.779  16.187  0.00  0.00    +0.000 A 
ATOM     12  C   UNL     1       4.943   4.909  16.631  0.00  0.00    +0.000 A 
ATOM     13  C   UNL     1       4.980   4.601  17.971  0.00  0.00    +0.000 A 
ATOM     14  O   UNL     1       6.271   4.328  18.313  0.00  0.00    +0.000 OA
ATOM     15  N   UNL     1       7.087   4.437  17.208  0.00  0.00    +0.000 NA
BRANCH  11  16
ATOM     16  C   UNL     1       6.787   4.967  14.827  0.00  0.00    +0.000 C 
ATOM     17  O   UNL     1       7.924   5.359  14.585  0.00  0.00    +0.000 OA
BRANCH  16  19
ATOM     18  C   UNL     1       6.145   3.507  13.098  0.00  0.00    +0.000 C 
ATOM     19  O   UNL     1       5.858   4.669  13.871  0.00  0.00    +0.000 OA
ENDBRANCH  16  19
ENDBRANCH  11  16
ENDBRANCH   5  13
ENDBRANCH   1   9
BRANCH   2  20
ATOM     20  C   UNL     1       0.830   8.956  20.783  0.00  0.00    +0.000 A 
ATOM     21  C   UNL     1       0.835   9.055  22.181  0.00  0.00    +0.000 A 
ATOM     22  C   UNL     1       0.137  10.077  22.825  0.00  0.00    +0.000 A 
ATOM     23  C   UNL     1      -0.567  11.030  22.084  0.00  0.00    +0.000 A 
ATOM     24  C   UNL     1      -0.587  10.921  20.685  0.00  0.00    +0.000 A 
ATOM     25  C   UNL     1       0.118   9.898  20.035  0.00  0.00    +0.000 A 
BRANCH  23  26
ATOM     26  C   UNL     1      -1.263  12.093  22.818  0.00  0.00    +0.000 C 
ATOM     27  C   UNL     1      -0.745  13.310  23.037  0.00  0.00    +0.000 C 
BRANCH  27  28
ATOM     28  C   UNL     1      -1.506  14.294  23.845  0.00  0.00    +0.000 C 
ATOM     29  O   UNL     1      -0.988  14.958  24.735  0.00  0.00    +0.000 OA
BRANCH  28  30
ATOM     30  C   UNL     1      -2.938  14.483  23.505  0.00  0.00    +0.000 A 
ATOM     31  C   UNL     1      -3.361  15.746  23.069  0.00  0.00    +0.000 A 
ATOM     32  C   UNL     1      -4.705  15.972  22.762  0.00  0.00    +0.000 A 
ATOM     33  C   UNL     1      -5.636  14.941  22.902  0.00  0.00    +0.000 A 
ATOM     34  C   UNL     1      -5.210  13.686  23.350  0.00  0.00    +0.000 A 
ATOM     35  C   UNL     1      -3.867  13.448  23.654  0.00  0.00    +0.000 A 
BRANCH  34  36
ATOM     36  N   UNL     1      -6.172  12.594  23.520  0.00  0.00    +0.000 N 
ATOM     37  O   UNL     1      -6.261  12.076  24.642  0.00  0.00    +0.000 OA
ATOM     38  O   UNL     1      -6.845  12.256  22.534  0.00  0.00    +0.000 OA
ENDBRANCH  34  36
ENDBRANCH  28  30
ENDBRANCH  27  28
ENDBRANCH  23  26
ENDBRANCH   2  20
TORSDOF 9
ENDMDL
MODEL 3
REMARK VINA RESULT:      -8.7      1.213      1.367
REMARK  Name = 
REMARK  10 active torsions:
REMARK  status: ('A' for Active; 'I' for Inactive)
REMARK    1  A    between atoms: C_1  and  O_2
REMARK    2  A    between atoms: O_2  and  C_3
REMARK    3  A    between atoms: C_3  and  C_5
REMARK    4  A    between atoms: C_7  and  C_8
REMARK    5  A    between atoms: C_12  and  N_13
REMARK    6  A    between atoms: C_14  and  C_16
REMARK    7  A    between atoms: C_19  and  C_20
REMARK    8  A    between atoms: C_21  and  C_22
REMARK    9  A    between atoms: C_22  and  C_24
REMARK   10  A    between atoms: C_28  and  N_29
REMARK                            x       y       z     vdW  Elec       q    Type
REMARK                         _______ _______ _______ _____ _____    ______ ____
ROOT
ATOM      1  N   UNL     1       1.289   6.500  21.193  0.00  0.00    +0.000 N 
ATOM      2  C   UNL     1       1.468   7.742  20.612  0.00  0.00    +0.000 C 
ATOM      3  O   UNL     1       2.142   7.975  19.613  0.00  0.00    +0.000 OA
ATOM      4  H   UNL     1       0.625   6.412  21.950  0.00  0.00    +0.000 HD
ENDROOT
BRANCH   1   9
ATOM      5  C   UNL     1       3.393   4.193  19.184  0.00  0.00    +0.000 A 
ATOM      6  C   UNL     1       3.276   3.008  19.923  0.00  0.00    +0.000 A 
ATOM      7  C   UNL     1       2.503   2.969  21.081  0.00  0.00    +0.000 A 
ATOM      8  C   UNL     1       1.843   4.114  21.523  0.00  0.00    +0.000 A 
ATOM      9  C   UNL     1       1.935   5.306  20.804  0.00  0.00    +0.000 A 
ATOM     10  C   UNL     1       2.690   5.330  19.626  0.00  0.00    +0.000 A 
BRANCH   5  13
ATOM     11  C   UNL     1       5.739   4.464  16.375  0.00  0.00    +0.000 A 
ATOM     12  C   UNL     1       5.594   4.472  17.788  0.00  0.00    +0.000 A 
ATOM     13  C   UNL     1       4.255   4.252  18.011  0.00  0.00    +0.000 A 
ATOM     14  O   UNL     1       3.639   4.096  16.804  0.00  0.00    +0.000 OA
ATOM     15  N   UNL     1       4.557   4.228  15.784  0.00  0.00    +0.000 NA
BRANCH  11  16
ATOM     16  C   UNL     1       6.965   4.685  15.613  0.00  0.00    +0.000 C 
ATOM     17  O   UNL     1       8.083   4.491  16.079  0.00  0.00    +0.000 OA
BRANCH  16  19
ATOM     18  C   UNL     1       6.518   4.109  13.376  0.00  0.00    +0.000 C 
ATOM     19  O   UNL     1       6.730   5.133  14.344  0.00  0.00    +0.000 OA
ENDBRANCH  16  19
ENDBRANCH  11  16
ENDBRANCH   5  13
ENDBRANCH   1   9
BRANCH   2  20
ATOM     20  C   UNL     1       0.782   8.895  21.264  0.00  0.00    +0.000 A 
ATOM     21  C   UNL     1       0.917  10.144  20.642  0.00  0.00    +0.000 A 
ATOM     22  C   UNL     1       0.299  11.275  21.174  0.00  0.00    +0.000 A 
ATOM     23  C   UNL     1      -0.482  11.179  22.330  0.00  0.00    +0.000 A 
ATOM     24  C   UNL     1      -0.603   9.933  22.963  0.00  0.00    +0.000 A 
ATOM     25  C   UNL     1       0.014   8.793  22.428  0.00  0.00    +0.000 A 
BRANCH  23  26
ATOM     26  C   UNL     1      -1.125  12.400  22.828  0.00  0.00    +0.000 C 
ATOM     27  C   UNL     1      -2.367  12.436  23.331  0.00  0.00    +0.000 C 
BRANCH  27  28
ATOM     28  C   UNL     1      -2.948  13.735  23.752  0.00  0.00    +0.000 C 
ATOM     29  O   UNL     1      -2.262  14.660  24.169  0.00  0.00    +0.000 OA
BRANCH  28  30
ATOM     30  C   UNL     1      -4.416  13.895  23.607  0.00  0.00    +0.000 A 
ATOM     31  C   UNL     1      -4.982  15.149  23.872  0.00  0.00    +0.000 A 
ATOM     32  C   UNL     1      -6.362  15.335  23.771  0.00  0.00    +0.000 A 
ATOM     33  C   UNL     1      -7.187  14.266  23.419  0.00  0.00    +0.000 A 
ATOM     34  C   UNL     1      -6.619  13.012  23.169  0.00  0.00    +0.000 A 
ATOM     35  C   UNL     1      -5.237  12.818  23.261  0.00  0.00    +0.000 A 
BRANCH  34  36
ATOM     36  N   UNL     1      -7.466  11.871  22.813  0.00  0.00    +0.000 N 
ATOM     37  O   UNL     1      -7.813  11.761  21.629  0.00  0.00    +0.000 OA
ATOM     38  O   UNL     1      -7.781  11.080  23.715  0.00  0.00    +0.000 OA
ENDBRANCH  34  36
ENDBRANCH  28  30
ENDBRANCH  27  28
ENDBRANCH  23  26
ENDBRANCH   2  20
TORSDOF 9
ENDMDL
MODEL 4
REMARK VINA RESULT:      -8.6      2.123      3.271
REMARK  Name = 
REMARK  10 active torsions:
REMARK  status: ('A' for Active; 'I' for Inactive)
REMARK    1  A    between atoms: C_1  and  O_2
REMARK    2  A    between atoms: O_2  and  C_3
REMARK    3  A    between atoms: C_3  and  C_5
REMARK    4  A    between atoms: C_7  and  C_8
REMARK    5  A    between atoms: C_12  and  N_13
REMARK    6  A    between atoms: C_14  and  C_16
REMARK    7  A    between atoms: C_19  and  C_20
REMARK    8  A    between atoms: C_21  and  C_22
REMARK    9  A    between atoms: C_22  and  C_24
REMARK   10  A    between atoms: C_28  and  N_29
REMARK                            x       y       z     vdW  Elec       q    Type
REMARK                         _______ _______ _______ _____ _____    ______ ____
ROOT
ATOM      1  N   UNL     1       1.538   6.780  20.734  0.00  0.00    +0.000 N 
ATOM      2  C   UNL     1       1.542   8.058  20.204  0.00  0.00    +0.000 C 
ATOM      3  O   UNL     1       2.118   8.405  19.177  0.00  0.00    +0.000 OA
ATOM      4  H   UNL     1       0.940   6.588  21.527  0.00  0.00    +0.000 HD
ENDROOT
BRANCH   1   9
ATOM      5  C   UNL     1       3.774   4.820  18.511  0.00  0.00    +0.000 A 
ATOM      6  C   UNL     1       3.801   3.586  19.175  0.00  0.00    +0.000 A 
ATOM      7  C   UNL     1       3.081   3.399  20.353  0.00  0.00    +0.000 A 
ATOM      8  C   UNL     1       2.332   4.445  20.890  0.00  0.00    +0.000 A 
ATOM      9  C   UNL     1       2.280   5.682  20.247  0.00  0.00    +0.000 A 
ATOM     10  C   UNL     1       2.983   5.852  19.049  0.00  0.00    +0.000 A 
BRANCH   5  13
ATOM     11  C   UNL     1       5.905   5.128  15.540  0.00  0.00    +0.000 A 
ATOM     12  C   UNL     1       5.289   4.233  16.454  0.00  0.00    +0.000 A 
ATOM     13  C   UNL     1       4.579   5.035  17.317  0.00  0.00    +0.000 A 
ATOM     14  O   UNL     1       4.742   6.332  16.927  0.00  0.00    +0.000 OA
ATOM     15  N   UNL     1       5.565   6.395  15.823  0.00  0.00    +0.000 NA
BRANCH  11  16
ATOM     16  C   UNL     1       6.799   4.785  14.436  0.00  0.00    +0.000 C 
ATOM     17  O   UNL     1       7.726   5.506  14.082  0.00  0.00    +0.000 OA
BRANCH  16  19
ATOM     18  C   UNL     1       5.590   3.690  12.741  0.00  0.00    +0.000 C 
ATOM     19  O   UNL     1       6.485   3.594  13.846  0.00  0.00    +0.000 OA
ENDBRANCH  16  19
ENDBRANCH  11  16
ENDBRANCH   5  13
ENDBRANCH   1   9
BRANCH   2  20
ATOM     20  C   UNL     1       0.783   9.100  20.955  0.00  0.00    +0.000 A 
ATOM     21  C   UNL     1       0.613  10.337  20.318  0.00  0.00    +0.000 A 
ATOM     22  C   UNL     1      -0.096  11.365  20.939  0.00  0.00    +0.000 A 
ATOM     23  C   UNL     1      -0.664  11.173  22.202  0.00  0.00    +0.000 A 
ATOM     24  C   UNL     1      -0.479   9.941  22.847  0.00  0.00    +0.000 A 
ATOM     25  C   UNL     1       0.230   8.904  22.223  0.00  0.00    +0.000 A 
BRANCH  23  26
ATOM     26  C   UNL     1      -1.416  12.285  22.792  0.00  0.00    +0.000 C 
ATOM     27  C   UNL     1      -2.572  12.134  23.455  0.00  0.00    +0.000 C 
BRANCH  27  28
ATOM     28  C   UNL     1      -3.287  13.332  23.961  0.00  0.00    +0.000 C 
ATOM     29  O   UNL     1      -4.411  13.274  24.445  0.00  0.00    +0.000 OA
BRANCH  28  30
ATOM     30  C   UNL     1      -2.562  14.625  23.901  0.00  0.00    +0.000 A 
ATOM     31  C   UNL     1      -2.713  15.424  22.760  0.00  0.00    +0.000 A 
ATOM     32  C   UNL     1      -2.029  16.637  22.653  0.00  0.00    +0.000 A 
ATOM     33  C   UNL     1      -1.179  17.052  23.679  0.00  0.00    +0.000 A 
ATOM     34  C   UNL     1      -1.020  16.244  24.811  0.00  0.00    +0.000 A 
ATOM     35  C   UNL     1      -1.706  15.031  24.929  0.00  0.00    +0.000 A 
BRANCH  34  36
ATOM     36  N   UNL     1      -0.121  16.651  25.893  0.00  0.00    +0.000 N 
ATOM     37  O   UNL     1       0.046  15.858  26.830  0.00  0.00    +0.000 OA
ATOM     38  O   UNL     1       0.424  17.761  25.806  0.00  0.00    +0.000 OA
ENDBRANCH  34  36
ENDBRANCH  28  30
ENDBRANCH  27  28
ENDBRANCH  23  26
ENDBRANCH   2  20
TORSDOF 9
ENDMDL
MODEL 5
REMARK VINA RESULT:      -8.6      2.611     13.319
REMARK  Name = 
REMARK  10 active torsions:
REMARK  status: ('A' for Active; 'I' for Inactive)
REMARK    1  A    between atoms: C_1  and  O_2
REMARK    2  A    between atoms: O_2  and  C_3
REMARK    3  A    between atoms: C_3  and  C_5
REMARK    4  A    between atoms: C_7  and  C_8
REMARK    5  A    between atoms: C_12  and  N_13
REMARK    6  A    between atoms: C_14  and  C_16
REMARK    7  A    between atoms: C_19  and  C_20
REMARK    8  A    between atoms: C_21  and  C_22
REMARK    9  A    between atoms: C_22  and  C_24
REMARK   10  A    between atoms: C_28  and  N_29
REMARK                            x       y       z     vdW  Elec       q    Type
REMARK                         _______ _______ _______ _____ _____    ______ ____
ROOT
ATOM      1  N   UNL     1      -1.238  11.249  20.742  0.00  0.00    +0.000 N 
ATOM      2  C   UNL     1       0.030  11.357  20.202  0.00  0.00    +0.000 C 
ATOM      3  O   UNL     1       0.636  12.406  20.002  0.00  0.00    +0.000 OA
ATOM      4  H   UNL     1      -1.593  10.328  20.960  0.00  0.00    +0.000 HD
ENDROOT
BRANCH   1   9
ATOM      5  C   UNL     1      -2.630  14.148  22.596  0.00  0.00    +0.000 A 
ATOM      6  C   UNL     1      -3.720  14.490  21.785  0.00  0.00    +0.000 A 
ATOM      7  C   UNL     1      -3.998  13.764  20.628  0.00  0.00    +0.000 A 
ATOM      8  C   UNL     1      -3.186  12.693  20.261  0.00  0.00    +0.000 A 
ATOM      9  C   UNL     1      -2.098  12.325  21.053  0.00  0.00    +0.000 A 
ATOM     10  C   UNL     1      -1.843  13.041  22.228  0.00  0.00    +0.000 A 
BRANCH   5  13
ATOM     11  C   UNL     1      -1.566  16.053  25.547  0.00  0.00    +0.000 A 
ATOM     12  C   UNL     1      -1.141  15.328  24.402  0.00  0.00    +0.000 A 
ATOM     13  C   UNL     1      -2.301  14.948  23.768  0.00  0.00    +0.000 A 
ATOM     14  O   UNL     1      -3.357  15.439  24.478  0.00  0.00    +0.000 OA
ATOM     15  N   UNL     1      -2.906  16.126  25.584  0.00  0.00    +0.000 NA
BRANCH  11  16
ATOM     16  C   UNL     1      -0.721  16.650  26.578  0.00  0.00    +0.000 C 
ATOM     17  O   UNL     1      -0.738  17.848  26.842  0.00  0.00    +0.000 OA
BRANCH  16  19
ATOM     18  C   UNL     1       1.126  16.303  27.993  0.00  0.00    +0.000 C 
ATOM     19  O   UNL     1       0.086  15.739  27.198  0.00  0.00    +0.000 OA
ENDBRANCH  16  19
ENDBRANCH  11  16
ENDBRANCH   5  13
ENDBRANCH   1   9
BRANCH   2  20
ATOM     20  C   UNL     1       0.715  10.085  19.830  0.00  0.00    +0.000 A 
ATOM     21  C   UNL     1       1.126   9.957  18.497  0.00  0.00    +0.000 A 
ATOM     22  C   UNL     1       1.786   8.807  18.063  0.00  0.00    +0.000 A 
ATOM     23  C   UNL     1       2.064   7.769  18.957  0.00  0.00    +0.000 A 
ATOM     24  C   UNL     1       1.637   7.890  20.288  0.00  0.00    +0.000 A 
ATOM     25  C   UNL     1       0.977   9.046  20.728  0.00  0.00    +0.000 A 
BRANCH  23  26
ATOM     26  C   UNL     1       2.781   6.596  18.445  0.00  0.00    +0.000 C 
ATOM     27  C   UNL     1       2.473   5.333  18.773  0.00  0.00    +0.000 C 
BRANCH  27  28
ATOM     28  C   UNL     1       3.301   4.218  18.249  0.00  0.00    +0.000 C 
ATOM     29  O   UNL     1       2.849   3.096  18.055  0.00  0.00    +0.000 OA
BRANCH  28  30
ATOM     30  C   UNL     1       4.715   4.525  17.920  0.00  0.00    +0.000 A 
ATOM     31  C   UNL     1       5.563   4.955  18.949  0.00  0.00    +0.000 A 
ATOM     32  C   UNL     1       6.894   5.278  18.677  0.00  0.00    +0.000 A 
ATOM     33  C   UNL     1       7.382   5.187  17.373  0.00  0.00    +0.000 A 
ATOM     34  C   UNL     1       6.527   4.771  16.346  0.00  0.00    +0.000 A 
ATOM     35  C   UNL     1       5.195   4.439  16.610  0.00  0.00    +0.000 A 
BRANCH  34  36
ATOM     36  N   UNL     1       7.012   4.683  14.966  0.00  0.00    +0.000 N 
ATOM     37  O   UNL     1       6.477   3.850  14.221  0.00  0.00    +0.000 OA
ATOM     38  O   UNL     1       7.925   5.450  14.623  0.00  0.00    +0.000 OA
ENDBRANCH  34  36
ENDBRANCH  28  30
ENDBRANCH  27  28
ENDBRANCH  23  26
ENDBRANCH   2  20
TORSDOF 9
ENDMDL
MODEL 6
REMARK VINA RESULT:      -8.5      1.021      1.357
REMARK  Name = 
REMARK  10 active torsions:
REMARK  status: ('A' for Active; 'I' for Inactive)
REMARK    1  A    between atoms: C_1  and  O_2
REMARK    2  A    between atoms: O_2  and  C_3
REMARK    3  A    between atoms: C_3  and  C_5
REMARK    4  A    between atoms: C_7  and  C_8
REMARK    5  A    between atoms: C_12  and  N_13
REMARK    6  A    between atoms: C_14  and  C_16
REMARK    7  A    between atoms: C_19  and  C_20
REMARK    8  A    between atoms: C_21  and  C_22
REMARK    9  A    between atoms: C_22  and  C_24
REMARK   10  A    between atoms: C_28  and  N_29
REMARK                            x       y       z     vdW  Elec       q    Type
REMARK                         _______ _______ _______ _____ _____    ______ ____
ROOT
ATOM      1  N   UNL     1       2.053   7.212  19.830  0.00  0.00    +0.000 N 
ATOM      2  C   UNL     1       1.764   8.271  18.988  0.00  0.00    +0.000 C 
ATOM      3  O   UNL     1       2.032   8.327  17.792  0.00  0.00    +0.000 OA
ATOM      4  H   UNL     1       1.688   7.232  20.773  0.00  0.00    +0.000 HD
ENDROOT
BRANCH   1   9
ATOM      5  C   UNL     1       4.429   5.052  17.967  0.00  0.00    +0.000 A 
ATOM      6  C   UNL     1       4.343   3.861  18.700  0.00  0.00    +0.000 A 
ATOM      7  C   UNL     1       3.500   3.768  19.806  0.00  0.00    +0.000 A 
ATOM      8  C   UNL     1       2.740   4.867  20.201  0.00  0.00    +0.000 A 
ATOM      9  C   UNL     1       2.800   6.064  19.487  0.00  0.00    +0.000 A 
ATOM     10  C   UNL     1       3.626   6.139  18.360  0.00  0.00    +0.000 A 
BRANCH   5  13
ATOM     11  C   UNL     1       6.650   5.149  15.048  0.00  0.00    +0.000 A 
ATOM     12  C   UNL     1       5.388   4.733  15.549  0.00  0.00    +0.000 A 
ATOM     13  C   UNL     1       5.359   5.169  16.853  0.00  0.00    +0.000 A 
ATOM     14  O   UNL     1       6.525   5.830  17.109  0.00  0.00    +0.000 OA
ATOM     15  N   UNL     1       7.331   5.819  15.991  0.00  0.00    +0.000 NA
BRANCH  11  16
ATOM     16  C   UNL     1       7.194   4.906  13.714  0.00  0.00    +0.000 C 
ATOM     17  O   UNL     1       8.191   5.479  13.287  0.00  0.00    +0.000 OA
BRANCH  16  19
ATOM     18  C   UNL     1       7.143   3.451  11.866  0.00  0.00    +0.000 C 
ATOM     19  O   UNL     1       6.474   3.988  13.004  0.00  0.00    +0.000 OA
ENDBRANCH  16  19
ENDBRANCH  11  16
ENDBRANCH   5  13
ENDBRANCH   1   9
BRANCH   2  20
ATOM     20  C   UNL     1       1.070   9.443  19.595  0.00  0.00    +0.000 A 
ATOM     21  C   UNL     1       0.490   9.250  20.856  0.00  0.00    +0.000 A 
ATOM     22  C   UNL     1      -0.167  10.294  21.506  0.00  0.00    +0.000 A 
ATOM     23  C   UNL     1      -0.243  11.560  20.916  0.00  0.00    +0.000 A 
ATOM     24  C   UNL     1       0.322  11.749  19.646  0.00  0.00    +0.000 A 
ATOM     25  C   UNL     1       0.987  10.702  18.992  0.00  0.00    +0.000 A 
BRANCH  23  26
ATOM     26  C   UNL     1      -0.928  12.624  21.658  0.00  0.00    +0.000 C 
ATOM     27  C   UNL     1      -1.578  12.426  22.814  0.00  0.00    +0.000 C 
BRANCH  27  28
ATOM     28  C   UNL     1      -2.291  13.559  23.454  0.00  0.00    +0.000 C 
ATOM     29  O   UNL     1      -1.779  14.253  24.325  0.00  0.00    +0.000 OA
BRANCH  28  30
ATOM     30  C   UNL     1      -3.660  13.858  22.965  0.00  0.00    +0.000 A 
ATOM     31  C   UNL     1      -3.895  15.091  22.344  0.00  0.00    +0.000 A 
ATOM     32  C   UNL     1      -5.174  15.421  21.892  0.00  0.00    +0.000 A 
ATOM     33  C   UNL     1      -6.230  14.526  22.071  0.00  0.00    +0.000 A 
ATOM     34  C   UNL     1      -5.994  13.301  22.704  0.00  0.00    +0.000 A 
ATOM     35  C   UNL     1      -4.715  12.960  23.155  0.00  0.00    +0.000 A 
BRANCH  34  36
ATOM     36  N   UNL     1      -7.089  12.353  22.917  0.00  0.00    +0.000 N 
ATOM     37  O   UNL     1      -7.143  11.773  24.011  0.00  0.00    +0.000 OA
ATOM     38  O   UNL     1      -7.902  12.190  21.995  0.00  0.00    +0.000 OA
ENDBRANCH  34  36
ENDBRANCH  28  30
ENDBRANCH  27  28
ENDBRANCH  23  26
ENDBRANCH   2  20
TORSDOF 9
ENDMDL
MODEL 7
REMARK VINA RESULT:      -8.4      7.506     10.193
REMARK  Name = 
REMARK  10 active torsions:
REMARK  status: ('A' for Active; 'I' for Inactive)
REMARK    1  A    between atoms: C_1  and  O_2
REMARK    2  A    between atoms: O_2  and  C_3
REMARK    3  A    between atoms: C_3  and  C_5
REMARK    4  A    between atoms: C_7  and  C_8
REMARK    5  A    between atoms: C_12  and  N_13
REMARK    6  A    between atoms: C_14  and  C_16
REMARK    7  A    between atoms: C_19  and  C_20
REMARK    8  A    between atoms: C_21  and  C_22
REMARK    9  A    between atoms: C_22  and  C_24
REMARK   10  A    between atoms: C_28  and  N_29
REMARK                            x       y       z     vdW  Elec       q    Type
REMARK                         _______ _______ _______ _____ _____    ______ ____
ROOT
ATOM      1  N   UNL     1       7.267   7.433  16.877  0.00  0.00    +0.000 N 
ATOM      2  C   UNL     1       7.995   7.718  18.018  0.00  0.00    +0.000 C 
ATOM      3  O   UNL     1       8.361   6.900  18.857  0.00  0.00    +0.000 OA
ATOM      4  H   UNL     1       7.114   8.172  16.204  0.00  0.00    +0.000 HD
ENDROOT
BRANCH   1   9
ATOM      5  C   UNL     1       5.317   4.291  17.210  0.00  0.00    +0.000 A 
ATOM      6  C   UNL     1       5.587   3.674  15.981  0.00  0.00    +0.000 A 
ATOM      7  C   UNL     1       6.413   4.292  15.044  0.00  0.00    +0.000 A 
ATOM      8  C   UNL     1       6.973   5.538  15.318  0.00  0.00    +0.000 A 
ATOM      9  C   UNL     1       6.728   6.173  16.535  0.00  0.00    +0.000 A 
ATOM     10  C   UNL     1       5.920   5.533  17.482  0.00  0.00    +0.000 A 
BRANCH   5  13
ATOM     11  C   UNL     1       3.105   2.900  19.786  0.00  0.00    +0.000 A 
ATOM     12  C   UNL     1       3.905   4.008  19.400  0.00  0.00    +0.000 A 
ATOM     13  C   UNL     1       4.400   3.677  18.160  0.00  0.00    +0.000 A 
ATOM     14  O   UNL     1       3.905   2.454  17.814  0.00  0.00    +0.000 OA
ATOM     15  N   UNL     1       3.100   1.967  18.821  0.00  0.00    +0.000 NA
BRANCH  11  16
ATOM     16  C   UNL     1       2.375   2.733  21.040  0.00  0.00    +0.000 C 
ATOM     17  O   UNL     1       2.919   2.390  22.086  0.00  0.00    +0.000 OA
BRANCH  16  19
ATOM     18  C   UNL     1       0.721   4.268  20.377  0.00  0.00    +0.000 C 
ATOM     19  O   UNL     1       1.039   2.989  20.918  0.00  0.00    +0.000 OA
ENDBRANCH  16  19
ENDBRANCH  11  16
ENDBRANCH   5  13
ENDBRANCH   1   9
BRANCH   2  20
ATOM     20  C   UNL     1       8.358   9.147  18.245  0.00  0.00    +0.000 A 
ATOM     21  C   UNL     1       9.176   9.422  19.349  0.00  0.00    +0.000 A 
ATOM     22  C   UNL     1       9.578  10.728  19.629  0.00  0.00    +0.000 A 
ATOM     23  C   UNL     1       9.184  11.784  18.802  0.00  0.00    +0.000 A 
ATOM     24  C   UNL     1       8.351  11.511  17.707  0.00  0.00    +0.000 A 
ATOM     25  C   UNL     1       7.949  10.199  17.420  0.00  0.00    +0.000 A 
BRANCH  23  26
ATOM     26  C   UNL     1       9.658  13.132  19.137  0.00  0.00    +0.000 C 
ATOM     27  C   UNL     1      10.746  13.377  19.881  0.00  0.00    +0.000 C 
BRANCH  27  28
ATOM     28  C   UNL     1      11.104  14.778  20.213  0.00  0.00    +0.000 C 
ATOM     29  O   UNL     1      11.752  15.490  19.455  0.00  0.00    +0.000 OA
BRANCH  28  30
ATOM     30  C   UNL     1      10.607  15.313  21.504  0.00  0.00    +0.000 A 
ATOM     31  C   UNL     1      11.168  16.497  21.999  0.00  0.00    +0.000 A 
ATOM     32  C   UNL     1      10.745  17.021  23.222  0.00  0.00    +0.000 A 
ATOM     33  C   UNL     1       9.768  16.357  23.966  0.00  0.00    +0.000 A 
ATOM     34  C   UNL     1       9.220  15.167  23.474  0.00  0.00    +0.000 A 
ATOM     35  C   UNL     1       9.633  14.638  22.247  0.00  0.00    +0.000 A 
BRANCH  34  36
ATOM     36  N   UNL     1       8.205  14.444  24.244  0.00  0.00    +0.000 N 
ATOM     37  O   UNL     1       8.583  13.808  25.238  0.00  0.00    +0.000 OA
ATOM     38  O   UNL     1       7.027  14.515  23.861  0.00  0.00    +0.000 OA
ENDBRANCH  34  36
ENDBRANCH  28  30
ENDBRANCH  27  28
ENDBRANCH  23  26
ENDBRANCH   2  20
TORSDOF 9
ENDMDL
MODEL 8
REMARK VINA RESULT:      -8.3      2.497      3.657
REMARK  Name = 
REMARK  10 active torsions:
REMARK  status: ('A' for Active; 'I' for Inactive)
REMARK    1  A    between atoms: C_1  and  O_2
REMARK    2  A    between atoms: O_2  and  C_3
REMARK    3  A    between atoms: C_3  and  C_5
REMARK    4  A    between atoms: C_7  and  C_8
REMARK    5  A    between atoms: C_12  and  N_13
REMARK    6  A    between atoms: C_14  and  C_16
REMARK    7  A    between atoms: C_19  and  C_20
REMARK    8  A    between atoms: C_21  and  C_22
REMARK    9  A    between atoms: C_22  and  C_24
REMARK   10  A    between atoms: C_28  and  N_29
REMARK                            x       y       z     vdW  Elec       q    Type
REMARK                         _______ _______ _______ _____ _____    ______ ____
ROOT
ATOM      1  N   UNL     1       4.424   7.021  18.412  0.00  0.00    +0.000 N 
ATOM      2  C   UNL     1       3.273   6.594  19.050  0.00  0.00    +0.000 C 
ATOM      3  O   UNL     1       3.019   5.436  19.369  0.00  0.00    +0.000 OA
ATOM      4  H   UNL     1       4.571   8.015  18.297  0.00  0.00    +0.000 HD
ENDROOT
BRANCH   1   9
ATOM      5  C   UNL     1       6.304   4.857  16.054  0.00  0.00    +0.000 A 
ATOM      6  C   UNL     1       7.429   4.531  16.823  0.00  0.00    +0.000 A 
ATOM      7  C   UNL     1       7.566   5.023  18.120  0.00  0.00    +0.000 A 
ATOM      8  C   UNL     1       6.588   5.853  18.662  0.00  0.00    +0.000 A 
ATOM      9  C   UNL     1       5.454   6.189  17.922  0.00  0.00    +0.000 A 
ATOM     10  C   UNL     1       5.309   5.668  16.631  0.00  0.00    +0.000 A 
BRANCH   5  13
ATOM     11  C   UNL     1       5.848   3.531  12.663  0.00  0.00    +0.000 A 
ATOM     12  C   UNL     1       5.277   3.669  13.955  0.00  0.00    +0.000 A 
ATOM     13  C   UNL     1       6.193   4.399  14.676  0.00  0.00    +0.000 A 
ATOM     14  O   UNL     1       7.240   4.701  13.855  0.00  0.00    +0.000 OA
ATOM     15  N   UNL     1       7.031   4.164  12.603  0.00  0.00    +0.000 NA
BRANCH  11  16
ATOM     16  C   UNL     1       5.288   2.809  11.523  0.00  0.00    +0.000 C 
ATOM     17  O   UNL     1       5.558   1.637  11.279  0.00  0.00    +0.000 OA
BRANCH  16  19
ATOM     18  C   UNL     1       3.179   2.992  10.497  0.00  0.00    +0.000 C 
ATOM     19  O   UNL     1       4.450   3.577  10.765  0.00  0.00    +0.000 OA
ENDBRANCH  16  19
ENDBRANCH  11  16
ENDBRANCH   5  13
ENDBRANCH   1   9
BRANCH   2  20
ATOM     20  C   UNL     1       2.255   7.636  19.371  0.00  0.00    +0.000 A 
ATOM     21  C   UNL     1       1.907   8.517  18.337  0.00  0.00    +0.000 A 
ATOM     22  C   UNL     1       0.953   9.513  18.542  0.00  0.00    +0.000 A 
ATOM     23  C   UNL     1       0.314   9.639  19.780  0.00  0.00    +0.000 A 
ATOM     24  C   UNL     1       0.675   8.769  20.819  0.00  0.00    +0.000 A 
ATOM     25  C   UNL     1       1.631   7.763  20.615  0.00  0.00    +0.000 A 
BRANCH  23  26
ATOM     26  C   UNL     1      -0.696  10.693  19.927  0.00  0.00    +0.000 C 
ATOM     27  C   UNL     1      -0.411  12.003  19.941  0.00  0.00    +0.000 C 
BRANCH  27  28
ATOM     28  C   UNL     1      -1.500  12.986  20.157  0.00  0.00    +0.000 C 
ATOM     29  O   UNL     1      -1.288  14.131  20.539  0.00  0.00    +0.000 OA
BRANCH  28  30
ATOM     30  C   UNL     1      -2.881  12.542  19.848  0.00  0.00    +0.000 A 
ATOM     31  C   UNL     1      -3.152  12.035  18.570  0.00  0.00    +0.000 A 
ATOM     32  C   UNL     1      -4.444  11.629  18.231  0.00  0.00    +0.000 A 
ATOM     33  C   UNL     1      -5.477  11.739  19.163  0.00  0.00    +0.000 A 
ATOM     34  C   UNL     1      -5.206  12.259  20.434  0.00  0.00    +0.000 A 
ATOM     35  C   UNL     1      -3.914  12.662  20.784  0.00  0.00    +0.000 A 
BRANCH  34  36
ATOM     36  N   UNL     1      -6.277  12.399  21.422  0.00  0.00    +0.000 N 
ATOM     37  O   UNL     1      -7.443  12.442  21.003  0.00  0.00    +0.000 OA
ATOM     38  O   UNL     1      -5.958  12.460  22.619  0.00  0.00    +0.000 OA
ENDBRANCH  34  36
ENDBRANCH  28  30
ENDBRANCH  27  28
ENDBRANCH  23  26
ENDBRANCH   2  20
TORSDOF 9
ENDMDL
MODEL 9
REMARK VINA RESULT:      -8.2      1.554      1.756
REMARK  Name = 
REMARK  10 active torsions:
REMARK  status: ('A' for Active; 'I' for Inactive)
REMARK    1  A    between atoms: C_1  and  O_2
REMARK    2  A    between atoms: O_2  and  C_3
REMARK    3  A    between atoms: C_3  and  C_5
REMARK    4  A    between atoms: C_7  and  C_8
REMARK    5  A    between atoms: C_12  and  N_13
REMARK    6  A    between atoms: C_14  and  C_16
REMARK    7  A    between atoms: C_19  and  C_20
REMARK    8  A    between atoms: C_21  and  C_22
REMARK    9  A    between atoms: C_22  and  C_24
REMARK   10  A    between atoms: C_28  and  N_29
REMARK                            x       y       z     vdW  Elec       q    Type
REMARK                         _______ _______ _______ _____ _____    ______ ____
ROOT
ATOM      1  N   UNL     1       3.044   6.882  19.570  0.00  0.00    +0.000 N 
ATOM      2  C   UNL     1       1.905   6.974  20.349  0.00  0.00    +0.000 C 
ATOM      3  O   UNL     1       1.306   6.031  20.856  0.00  0.00    +0.000 OA
ATOM      4  H   UNL     1       3.512   7.735  19.295  0.00  0.00    +0.000 HD
ENDROOT
BRANCH   1   9
ATOM      5  C   UNL     1       4.859   4.522  17.351  0.00  0.00    +0.000 A 
ATOM      6  C   UNL     1       4.897   3.373  18.153  0.00  0.00    +0.000 A 
ATOM      7  C   UNL     1       4.324   3.375  19.423  0.00  0.00    +0.000 A 
ATOM      8  C   UNL     1       3.712   4.527  19.913  0.00  0.00    +0.000 A 
ATOM      9  C   UNL     1       3.652   5.683  19.135  0.00  0.00    +0.000 A 
ATOM     10  C   UNL     1       4.205   5.664  17.850  0.00  0.00    +0.000 A 
BRANCH   5  13
ATOM     11  C   UNL     1       6.370   4.365  14.011  0.00  0.00    +0.000 A 
ATOM     12  C   UNL     1       5.248   4.016  14.809  0.00  0.00    +0.000 A 
ATOM     13  C   UNL     1       5.516   4.540  16.052  0.00  0.00    +0.000 A 
ATOM     14  O   UNL     1       6.716   5.185  15.994  0.00  0.00    +0.000 OA
ATOM     15  N   UNL     1       7.251   5.079  14.729  0.00  0.00    +0.000 NA
BRANCH  11  16
ATOM     16  C   UNL     1       6.598   4.019  12.610  0.00  0.00    +0.000 C 
ATOM     17  O   UNL     1       7.538   4.464  11.959  0.00  0.00    +0.000 OA
BRANCH  16  19
ATOM     18  C   UNL     1       6.181   2.009  11.460  0.00  0.00    +0.000 C 
ATOM     19  O   UNL     1       5.657   3.163  12.113  0.00  0.00    +0.000 OA
ENDBRANCH  16  19
ENDBRANCH  11  16
ENDBRANCH   5  13
ENDBRANCH   1   9
BRANCH   2  20
ATOM     20  C   UNL     1       1.360   8.343  20.583  0.00  0.00    +0.000 A 
ATOM     21  C   UNL     1       1.273   9.187  19.468  0.00  0.00    +0.000 A 
ATOM     22  C   UNL     1       0.762  10.479  19.591  0.00  0.00    +0.000 A 
ATOM     23  C   UNL     1       0.311  10.948  20.828  0.00  0.00    +0.000 A 
ATOM     24  C   UNL     1       0.414  10.110  21.948  0.00  0.00    +0.000 A 
ATOM     25  C   UNL     1       0.923   8.809  21.827  0.00  0.00    +0.000 A 
BRANCH  23  26
ATOM     26  C   UNL     1      -0.236  12.308  20.889  0.00  0.00    +0.000 C 
ATOM     27  C   UNL     1      -0.830  12.824  21.975  0.00  0.00    +0.000 C 
BRANCH  27  28
ATOM     28  C   UNL     1      -1.406  14.191  21.913  0.00  0.00    +0.000 C 
ATOM     29  O   UNL     1      -0.768  15.158  21.514  0.00  0.00    +0.000 OA
BRANCH  28  30
ATOM     30  C   UNL     1      -2.824  14.343  22.318  0.00  0.00    +0.000 A 
ATOM     31  C   UNL     1      -3.491  15.531  21.989  0.00  0.00    +0.000 A 
ATOM     32  C   UNL     1      -4.819  15.724  22.374  0.00  0.00    +0.000 A 
ATOM     33  C   UNL     1      -5.486  14.738  23.103  0.00  0.00    +0.000 A 
ATOM     34  C   UNL     1      -4.812  13.559  23.442  0.00  0.00    +0.000 A 
ATOM     35  C   UNL     1      -3.484  13.354  23.055  0.00  0.00    +0.000 A 
BRANCH  34  36
ATOM     36  N   UNL     1      -5.485  12.517  24.220  0.00  0.00    +0.000 N 
ATOM     37  O   UNL     1      -4.817  11.915  25.072  0.00  0.00    +0.000 OA
ATOM     38  O   UNL     1      -6.684  12.303  23.986  0.00  0.00    +0.000 OA
ENDBRANCH  34  36
ENDBRANCH  28  30
ENDBRANCH  27  28
ENDBRANCH  23  26
ENDBRANCH   2  20
TORSDOF 9
ENDMDL
