MODEL 1
REMARK VINA RESULT:      -8.4      0.000      0.000
REMARK  Name = 
REMARK  6 active torsions:
REMARK  status: ('A' for Active; 'I' for Inactive)
REMARK    1  A    between atoms: C_1  and  C_2
REMARK    2  A    between atoms: C_4  and  C_5
REMARK    3  A    between atoms: C_5  and  S_6
REMARK    4  A    between atoms: S_6  and  C_9
REMARK    5  A    between atoms: C_9  and  C_10
REMARK    6  A    between atoms: C_20  and  C_21
REMARK                            x       y       z     vdW  Elec       q    Type
REMARK                         _______ _______ _______ _____ _____    ______ ____
ROOT
ATOM      1  C   UNL     1       4.124   4.945  17.278  0.00  0.00    +0.000 C 
ATOM      2  O   UNL     1       4.232   3.792  16.863  0.00  0.00    +0.000 OA
ATOM      3  N   UNL     1       3.308   5.277  18.350  0.00  0.00    +0.000 N 
ATOM      4  C   UNL     1       2.657   4.287  19.140  0.00  0.00    +0.000 A 
ATOM      5  C   UNL     1       2.778   2.905  19.093  0.00  0.00    +0.000 A 
ATOM      6  C   UNL     1       2.024   2.128  19.977  0.00  0.00    +0.000 A 
ATOM      7  C   UNL     1       1.153   2.735  20.890  0.00  0.00    +0.000 A 
ATOM      8  C   UNL     1       1.041   4.124  20.941  0.00  0.00    +0.000 A 
ATOM      9  C   UNL     1       1.817   4.884  20.076  0.00  0.00    +0.000 A 
ATOM     10  C   UNL     1       1.825   6.368  19.928  0.00  0.00    +0.000 C 
ATOM     11  C   UNL     1       3.079   6.587  19.044  0.00  0.00    +0.000 C 
ATOM     12  C   UNL     1       2.885   7.823  18.176  0.00  0.00    +0.000 C 
ENDROOT
BRANCH   1  13
ATOM     13  C   UNL     1       4.900   6.046  16.625  0.00  0.00    +0.000 C 
BRANCH  13  14
ATOM     14  S   UNL     1       6.541   6.202  17.286  0.00  0.00    +0.000 S 
ATOM     15  O   UNL     1       6.386   6.067  18.726  0.00  0.00    +0.000 OA
ATOM     16  O   UNL     1       7.135   7.417  16.753  0.00  0.00    +0.000 OA
BRANCH  14  17
ATOM     17  C   UNL     1       7.437   4.759  16.692  0.00  0.00    +0.000 C 
BRANCH  17  21
ATOM     18  C   UNL     1       5.904   3.500  12.002  0.00  0.00    +0.000 C 
ATOM     19  C   UNL     1       6.528   4.086  13.207  0.00  0.00    +0.000 A 
ATOM     20  C   UNL     1       6.369   3.687  14.549  0.00  0.00    +0.000 A 
ATOM     21  C   UNL     1       7.131   4.581  15.261  0.00  0.00    +0.000 A 
ATOM     22  O   UNL     1       7.736   5.439  14.398  0.00  0.00    +0.000 OA
ATOM     23  N   UNL     1       7.361   5.129  13.103  0.00  0.00    +0.000 NA
ENDBRANCH  17  21
ENDBRANCH  14  17
ENDBRANCH  13  14
ENDBRANCH   1  13
TORSDOF 4
ENDMDL
MODEL 2
REMARK VINA RESULT:      -8.4      1.311      1.409
REMARK  Name = 
REMARK  6 active torsions:
REMARK  status: ('A' for Active; 'I' for Inactive)
REMARK    1  A    between atoms: C_1  and  C_2
REMARK    2  A    between atoms: C_4  and  C_5
REMARK    3  A    between atoms: C_5  and  S_6
REMARK    4  A    between atoms: S_6  and  C_9
REMARK    5  A    between atoms: C_9  and  C_10
REMARK    6  A    between atoms: C_20  and  C_21
REMARK                            x       y       z     vdW  Elec       q    Type
REMARK                         _______ _______ _______ _____ _____    ______ ____
ROOT
ATOM      1  C   UNL     1       5.512   4.905  18.988  0.00  0.00    +0.000 C 
ATOM      2  O   UNL     1       5.936   3.765  19.176  0.00  0.00    +0.000 OA
ATOM      3  N   UNL     1       4.185   5.249  19.195  0.00  0.00    +0.000 N 
ATOM      4  C   UNL     1       3.253   4.349  19.784  0.00  0.00    +0.000 A 
ATOM      5  C   UNL     1       3.471   3.094  20.338  0.00  0.00    +0.000 A 
ATOM      6  C   UNL     1       2.385   2.385  20.859  0.00  0.00    +0.000 A 
ATOM      7  C   UNL     1       1.096   2.928  20.815  0.00  0.00    +0.000 A 
ATOM      8  C   UNL     1       0.881   4.192  20.266  0.00  0.00    +0.000 A 
ATOM      9  C   UNL     1       1.972   4.897  19.778  0.00  0.00    +0.000 A 
ATOM     10  C   UNL     1       1.969   6.233  19.114  0.00  0.00    +0.000 C 
ATOM     11  C   UNL     1       3.482   6.570  19.085  0.00  0.00    +0.000 C 
ATOM     12  C   UNL     1       3.789   7.437  17.870  0.00  0.00    +0.000 C 
ENDROOT
BRANCH   1  13
ATOM     13  C   UNL     1       6.448   5.979  18.527  0.00  0.00    +0.000 C 
BRANCH  13  14
ATOM     14  S   UNL     1       7.062   5.684  16.886  0.00  0.00    +0.000 S 
ATOM     15  O   UNL     1       7.804   4.436  16.977  0.00  0.00    +0.000 OA
ATOM     16  O   UNL     1       7.750   6.881  16.433  0.00  0.00    +0.000 OA
BRANCH  14  17
ATOM     17  C   UNL     1       5.604   5.384  15.875  0.00  0.00    +0.000 C 
BRANCH  17  21
ATOM     18  C   UNL     1       6.536   2.717  11.637  0.00  0.00    +0.000 C 
ATOM     19  C   UNL     1       6.511   3.674  12.763  0.00  0.00    +0.000 A 
ATOM     20  C   UNL     1       5.681   3.656  13.902  0.00  0.00    +0.000 A 
ATOM     21  C   UNL     1       6.040   4.783  14.601  0.00  0.00    +0.000 A 
ATOM     22  O   UNL     1       7.045   5.417  13.942  0.00  0.00    +0.000 OA
ATOM     23  N   UNL     1       7.347   4.721  12.785  0.00  0.00    +0.000 NA
ENDBRANCH  17  21
ENDBRANCH  14  17
ENDBRANCH  13  14
ENDBRANCH   1  13
TORSDOF 4
ENDMDL
MODEL 3
REMARK VINA RESULT:      -7.8      1.393      1.439
REMARK  Name = 
REMARK  6 active torsions:
REMARK  status: ('A' for Active; 'I' for Inactive)
REMARK    1  A    between atoms: C_1  and  C_2
REMARK    2  A    between atoms: C_4  and  C_5
REMARK    3  A    between atoms: C_5  and  S_6
REMARK    4  A    between atoms: S_6  and  C_9
REMARK    5  A    between atoms: C_9  and  C_10
REMARK    6  A    between atoms: C_20  and  C_21
REMARK                            x       y       z     vdW  Elec       q    Type
REMARK                         _______ _______ _______ _____ _____    ______ ____
ROOT
ATOM      1  C   UNL     1       5.209   4.920  18.933  0.00  0.00    +0.000 C 
ATOM      2  O   UNL     1       5.783   3.836  19.027  0.00  0.00    +0.000 OA
ATOM      3  N   UNL     1       3.838   5.023  18.753  0.00  0.00    +0.000 N 
ATOM      4  C   UNL     1       2.979   3.890  18.818  0.00  0.00    +0.000 A 
ATOM      5  C   UNL     1       3.278   2.578  19.161  0.00  0.00    +0.000 A 
ATOM      6  C   UNL     1       2.256   1.625  19.149  0.00  0.00    +0.000 A 
ATOM      7  C   UNL     1       0.953   1.985  18.788  0.00  0.00    +0.000 A 
ATOM      8  C   UNL     1       0.653   3.306  18.453  0.00  0.00    +0.000 A 
ATOM      9  C   UNL     1       1.672   4.247  18.496  0.00  0.00    +0.000 A 
ATOM     10  C   UNL     1       1.589   5.693  18.138  0.00  0.00    +0.000 C 
ATOM     11  C   UNL     1       2.943   6.225  18.674  0.00  0.00    +0.000 C 
ATOM     12  C   UNL     1       3.407   7.397  17.819  0.00  0.00    +0.000 C 
ENDROOT
BRANCH   1  13
ATOM     13  C   UNL     1       5.998   6.189  19.021  0.00  0.00    +0.000 C 
BRANCH  13  14
ATOM     14  S   UNL     1       6.993   6.470  17.576  0.00  0.00    +0.000 S 
ATOM     15  O   UNL     1       8.153   7.209  18.050  0.00  0.00    +0.000 OA
ATOM     16  O   UNL     1       6.151   7.062  16.549  0.00  0.00    +0.000 OA
BRANCH  14  17
ATOM     17  C   UNL     1       7.554   4.841  17.056  0.00  0.00    +0.000 C 
BRANCH  17  21
ATOM     18  C   UNL     1       5.572   3.548  12.546  0.00  0.00    +0.000 C 
ATOM     19  C   UNL     1       6.340   4.112  13.676  0.00  0.00    +0.000 A 
ATOM     20  C   UNL     1       6.225   3.803  15.046  0.00  0.00    +0.000 A 
ATOM     21  C   UNL     1       7.134   4.631  15.658  0.00  0.00    +0.000 A 
ATOM     22  O   UNL     1       7.778   5.364  14.712  0.00  0.00    +0.000 OA
ATOM     23  N   UNL     1       7.283   5.038  13.463  0.00  0.00    +0.000 NA
ENDBRANCH  17  21
ENDBRANCH  14  17
ENDBRANCH  13  14
ENDBRANCH   1  13
TORSDOF 4
ENDMDL
MODEL 4
REMARK VINA RESULT:      -7.5      2.302      3.493
REMARK  Name = 
REMARK  6 active torsions:
REMARK  status: ('A' for Active; 'I' for Inactive)
REMARK    1  A    between atoms: C_1  and  C_2
REMARK    2  A    between atoms: C_4  and  C_5
REMARK    3  A    between atoms: C_5  and  S_6
REMARK    4  A    between atoms: S_6  and  C_9
REMARK    5  A    between atoms: C_9  and  C_10
REMARK    6  A    between atoms: C_20  and  C_21
REMARK                            x       y       z     vdW  Elec       q    Type
REMARK                         _______ _______ _______ _____ _____    ______ ____
ROOT
ATOM      1  C   UNL     1       4.228   4.391  17.005  0.00  0.00    +0.000 C 
ATOM      2  O   UNL     1       4.150   3.184  16.777  0.00  0.00    +0.000 OA
ATOM      3  N   UNL     1       3.559   4.994  18.060  0.00  0.00    +0.000 N 
ATOM      4  C   UNL     1       2.859   4.238  19.043  0.00  0.00    +0.000 A 
ATOM      5  C   UNL     1       2.796   2.862  19.214  0.00  0.00    +0.000 A 
ATOM      6  C   UNL     1       2.029   2.344  20.261  0.00  0.00    +0.000 A 
ATOM      7  C   UNL     1       1.328   3.199  21.118  0.00  0.00    +0.000 A 
ATOM      8  C   UNL     1       1.400   4.582  20.950  0.00  0.00    +0.000 A 
ATOM      9  C   UNL     1       2.188   5.083  19.923  0.00  0.00    +0.000 A 
ATOM     10  C   UNL     1       2.374   6.512  19.534  0.00  0.00    +0.000 C 
ATOM     11  C   UNL     1       3.563   6.414  18.545  0.00  0.00    +0.000 C 
ATOM     12  C   UNL     1       3.454   7.518  17.502  0.00  0.00    +0.000 C 
ENDROOT
BRANCH   1  13
ATOM     13  C   UNL     1       5.078   5.259  16.131  0.00  0.00    +0.000 C 
BRANCH  13  14
ATOM     14  S   UNL     1       6.810   4.899  16.298  0.00  0.00    +0.000 S 
ATOM     15  O   UNL     1       7.480   5.829  15.403  0.00  0.00    +0.000 OA
ATOM     16  O   UNL     1       7.001   3.471  16.102  0.00  0.00    +0.000 OA
BRANCH  14  17
ATOM     17  C   UNL     1       7.235   5.357  17.986  0.00  0.00    +0.000 C 
BRANCH  17  21
ATOM     18  C   UNL     1       8.997  10.093  18.622  0.00  0.00    +0.000 C 
ATOM     19  C   UNL     1       8.275   8.862  18.238  0.00  0.00    +0.000 A 
ATOM     20  C   UNL     1       8.483   7.549  18.707  0.00  0.00    +0.000 A 
ATOM     21  C   UNL     1       7.580   6.790  18.002  0.00  0.00    +0.000 A 
ATOM     22  O   UNL     1       6.853   7.601  17.189  0.00  0.00    +0.000 OA
ATOM     23  N   UNL     1       7.286   8.906  17.336  0.00  0.00    +0.000 NA
ENDBRANCH  17  21
ENDBRANCH  14  17
ENDBRANCH  13  14
ENDBRANCH   1  13
TORSDOF 4
ENDMDL
MODEL 5
REMARK VINA RESULT:      -7.4      1.241      1.528
REMARK  Name = 
REMARK  6 active torsions:
REMARK  status: ('A' for Active; 'I' for Inactive)
REMARK    1  A    between atoms: C_1  and  C_2
REMARK    2  A    between atoms: C_4  and  C_5
REMARK    3  A    between atoms: C_5  and  S_6
REMARK    4  A    between atoms: S_6  and  C_9
REMARK    5  A    between atoms: C_9  and  C_10
REMARK    6  A    between atoms: C_20  and  C_21
REMARK                            x       y       z     vdW  Elec       q    Type
REMARK                         _______ _______ _______ _____ _____    ______ ____
ROOT
ATOM      1  C   UNL     1       5.125   4.902  18.819  0.00  0.00    +0.000 C 
ATOM      2  O   UNL     1       5.713   3.823  18.890  0.00  0.00    +0.000 OA
ATOM      3  N   UNL     1       3.859   5.096  19.351  0.00  0.00    +0.000 N 
ATOM      4  C   UNL     1       3.213   4.108  20.147  0.00  0.00    +0.000 A 
ATOM      5  C   UNL     1       3.706   2.900  20.622  0.00  0.00    +0.000 A 
ATOM      6  C   UNL     1       2.873   2.083  21.391  0.00  0.00    +0.000 A 
ATOM      7  C   UNL     1       1.559   2.472  21.671  0.00  0.00    +0.000 A 
ATOM      8  C   UNL     1       1.068   3.691  21.201  0.00  0.00    +0.000 A 
ATOM      9  C   UNL     1       1.916   4.505  20.462  0.00  0.00    +0.000 A 
ATOM     10  C   UNL     1       1.592   5.816  19.828  0.00  0.00    +0.000 C 
ATOM     11  C   UNL     1       3.001   6.325  19.427  0.00  0.00    +0.000 C 
ATOM     12  C   UNL     1       2.896   7.192  18.180  0.00  0.00    +0.000 C 
ENDROOT
BRANCH   1  13
ATOM     13  C   UNL     1       5.785   6.065  18.148  0.00  0.00    +0.000 C 
BRANCH  13  14
ATOM     14  S   UNL     1       5.643   5.996  16.379  0.00  0.00    +0.000 S 
ATOM     15  O   UNL     1       5.674   7.383  15.940  0.00  0.00    +0.000 OA
ATOM     16  O   UNL     1       4.489   5.177  16.044  0.00  0.00    +0.000 OA
BRANCH  14  17
ATOM     17  C   UNL     1       7.155   5.205  15.806  0.00  0.00    +0.000 C 
BRANCH  17  21
ATOM     18  C   UNL     1       5.779   2.660  11.614  0.00  0.00    +0.000 C 
ATOM     19  C   UNL     1       6.364   3.566  12.625  0.00  0.00    +0.000 A 
ATOM     20  C   UNL     1       6.155   3.564  14.019  0.00  0.00    +0.000 A 
ATOM     21  C   UNL     1       6.898   4.627  14.474  0.00  0.00    +0.000 A 
ATOM     22  O   UNL     1       7.538   5.207  13.425  0.00  0.00    +0.000 OA
ATOM     23  N   UNL     1       7.207   4.540  12.259  0.00  0.00    +0.000 NA
ENDBRANCH  17  21
ENDBRANCH  14  17
ENDBRANCH  13  14
ENDBRANCH   1  13
TORSDOF 4
ENDMDL
MODEL 6
REMARK VINA RESULT:      -7.3      1.499      3.002
REMARK  Name = 
REMARK  6 active torsions:
REMARK  status: ('A' for Active; 'I' for Inactive)
REMARK    1  A    between atoms: C_1  and  C_2
REMARK    2  A    between atoms: C_4  and  C_5
REMARK    3  A    between atoms: C_5  and  S_6
REMARK    4  A    between atoms: S_6  and  C_9
REMARK    5  A    between atoms: C_9  and  C_10
REMARK    6  A    between atoms: C_20  and  C_21
REMARK                            x       y       z     vdW  Elec       q    Type
REMARK                         _______ _______ _______ _____ _____    ______ ____
ROOT
ATOM      1  C   UNL     1       3.896   6.954  17.820  0.00  0.00    +0.000 C 
ATOM      2  O   UNL     1       3.987   8.106  17.398  0.00  0.00    +0.000 OA
ATOM      3  N   UNL     1       3.058   6.610  18.871  0.00  0.00    +0.000 N 
ATOM      4  C   UNL     1       2.133   7.535  19.434  0.00  0.00    +0.000 A 
ATOM      5  C   UNL     1       1.811   8.820  19.019  0.00  0.00    +0.000 A 
ATOM      6  C   UNL     1       0.863   9.548  19.743  0.00  0.00    +0.000 A 
ATOM      7  C   UNL     1       0.254   8.993  20.874  0.00  0.00    +0.000 A 
ATOM      8  C   UNL     1       0.572   7.698  21.284  0.00  0.00    +0.000 A 
ATOM      9  C   UNL     1       1.495   6.977  20.539  0.00  0.00    +0.000 A 
ATOM     10  C   UNL     1       2.013   5.605  20.815  0.00  0.00    +0.000 C 
ATOM     11  C   UNL     1       2.754   5.279  19.494  0.00  0.00    +0.000 C 
ATOM     12  C   UNL     1       3.926   4.349  19.780  0.00  0.00    +0.000 C 
ENDROOT
BRANCH   1  13
ATOM     13  C   UNL     1       4.702   5.863  17.187  0.00  0.00    +0.000 C 
BRANCH  13  14
ATOM     14  S   UNL     1       6.447   6.074  17.444  0.00  0.00    +0.000 S 
ATOM     15  O   UNL     1       6.613   6.138  18.888  0.00  0.00    +0.000 OA
ATOM     16  O   UNL     1       6.897   7.193  16.633  0.00  0.00    +0.000 OA
BRANCH  14  17
ATOM     17  C   UNL     1       7.205   4.546  16.871  0.00  0.00    +0.000 C 
BRANCH  17  21
ATOM     18  C   UNL     1       5.574   3.431  12.177  0.00  0.00    +0.000 C 
ATOM     19  C   UNL     1       6.259   3.943  13.382  0.00  0.00    +0.000 A 
ATOM     20  C   UNL     1       6.024   3.598  14.729  0.00  0.00    +0.000 A 
ATOM     21  C   UNL     1       6.897   4.387  15.438  0.00  0.00    +0.000 A 
ATOM     22  O   UNL     1       7.633   5.131  14.570  0.00  0.00    +0.000 OA
ATOM     23  N   UNL     1       7.236   4.852  13.275  0.00  0.00    +0.000 NA
ENDBRANCH  17  21
ENDBRANCH  14  17
ENDBRANCH  13  14
ENDBRANCH   1  13
TORSDOF 4
ENDMDL
MODEL 7
REMARK VINA RESULT:      -7.3      2.606      4.623
REMARK  Name = 
REMARK  6 active torsions:
REMARK  status: ('A' for Active; 'I' for Inactive)
REMARK    1  A    between atoms: C_1  and  C_2
REMARK    2  A    between atoms: C_4  and  C_5
REMARK    3  A    between atoms: C_5  and  S_6
REMARK    4  A    between atoms: S_6  and  C_9
REMARK    5  A    between atoms: C_9  and  C_10
REMARK    6  A    between atoms: C_20  and  C_21
REMARK                            x       y       z     vdW  Elec       q    Type
REMARK                         _______ _______ _______ _____ _____    ______ ____
ROOT
ATOM      1  C   UNL     1       3.452   6.178  18.049  0.00  0.00    +0.000 C 
ATOM      2  O   UNL     1       3.960   6.915  17.205  0.00  0.00    +0.000 OA
ATOM      3  N   UNL     1       2.555   6.641  19.000  0.00  0.00    +0.000 N 
ATOM      4  C   UNL     1       2.042   7.969  18.971  0.00  0.00    +0.000 A 
ATOM      5  C   UNL     1       2.214   8.959  18.013  0.00  0.00    +0.000 A 
ATOM      6  C   UNL     1       1.608  10.203  18.207  0.00  0.00    +0.000 A 
ATOM      7  C   UNL     1       0.847  10.451  19.354  0.00  0.00    +0.000 A 
ATOM      8  C   UNL     1       0.667   9.452  20.311  0.00  0.00    +0.000 A 
ATOM      9  C   UNL     1       1.251   8.212  20.092  0.00  0.00    +0.000 A 
ATOM     10  C   UNL     1       1.228   7.024  20.994  0.00  0.00    +0.000 C 
ATOM     11  C   UNL     1       1.786   5.916  20.064  0.00  0.00    +0.000 C 
ATOM     12  C   UNL     1       2.532   4.879  20.894  0.00  0.00    +0.000 C 
ENDROOT
BRANCH   1  13
ATOM     13  C   UNL     1       3.793   4.720  18.064  0.00  0.00    +0.000 C 
BRANCH  13  14
ATOM     14  S   UNL     1       5.340   4.395  18.876  0.00  0.00    +0.000 S 
ATOM     15  O   UNL     1       5.286   2.990  19.248  0.00  0.00    +0.000 OA
ATOM     16  O   UNL     1       5.529   5.393  19.916  0.00  0.00    +0.000 OA
BRANCH  14  17
ATOM     17  C   UNL     1       6.598   4.579  17.602  0.00  0.00    +0.000 C 
BRANCH  17  21
ATOM     18  C   UNL     1       8.844   9.022  18.674  0.00  0.00    +0.000 C 
ATOM     19  C   UNL     1       8.084   7.891  18.101  0.00  0.00    +0.000 A 
ATOM     20  C   UNL     1       7.904   6.602  18.643  0.00  0.00    +0.000 A 
ATOM     21  C   UNL     1       7.158   5.939  17.698  0.00  0.00    +0.000 A 
ATOM     22  O   UNL     1       6.879   6.786  16.673  0.00  0.00    +0.000 OA
ATOM     23  N   UNL     1       7.458   8.017  16.924  0.00  0.00    +0.000 NA
ENDBRANCH  17  21
ENDBRANCH  14  17
ENDBRANCH  13  14
ENDBRANCH   1  13
TORSDOF 4
ENDMDL
MODEL 8
REMARK VINA RESULT:      -7.2      1.691      3.534
REMARK  Name = 
REMARK  6 active torsions:
REMARK  status: ('A' for Active; 'I' for Inactive)
REMARK    1  A    between atoms: C_1  and  C_2
REMARK    2  A    between atoms: C_4  and  C_5
REMARK    3  A    between atoms: C_5  and  S_6
REMARK    4  A    between atoms: S_6  and  C_9
REMARK    5  A    between atoms: C_9  and  C_10
REMARK    6  A    between atoms: C_20  and  C_21
REMARK                            x       y       z     vdW  Elec       q    Type
REMARK                         _______ _______ _______ _____ _____    ______ ____
ROOT
ATOM      1  C   UNL     1       4.045   6.369  17.699  0.00  0.00    +0.000 C 
ATOM      2  O   UNL     1       4.557   7.229  16.983  0.00  0.00    +0.000 OA
ATOM      3  N   UNL     1       3.034   6.657  18.603  0.00  0.00    +0.000 N 
ATOM      4  C   UNL     1       2.412   7.937  18.658  0.00  0.00    +0.000 A 
ATOM      5  C   UNL     1       2.578   9.033  17.823  0.00  0.00    +0.000 A 
ATOM      6  C   UNL     1       1.852  10.199  18.082  0.00  0.00    +0.000 A 
ATOM      7  C   UNL     1       0.978  10.263  19.173  0.00  0.00    +0.000 A 
ATOM      8  C   UNL     1       0.805   9.157  20.005  0.00  0.00    +0.000 A 
ATOM      9  C   UNL     1       1.511   7.997  19.719  0.00  0.00    +0.000 A 
ATOM     10  C   UNL     1       1.515   6.721  20.492  0.00  0.00    +0.000 C 
ATOM     11  C   UNL     1       2.243   5.765  19.514  0.00  0.00    +0.000 C 
ATOM     12  C   UNL     1       3.004   4.707  20.303  0.00  0.00    +0.000 C 
ENDROOT
BRANCH   1  13
ATOM     13  C   UNL     1       4.509   4.949  17.601  0.00  0.00    +0.000 C 
BRANCH  13  14
ATOM     14  S   UNL     1       5.862   4.601  18.699  0.00  0.00    +0.000 S 
ATOM     15  O   UNL     1       5.624   3.250  19.181  0.00  0.00    +0.000 OA
ATOM     16  O   UNL     1       5.959   5.686  19.662  0.00  0.00    +0.000 OA
BRANCH  14  17
ATOM     17  C   UNL     1       7.329   4.563  17.656  0.00  0.00    +0.000 C 
BRANCH  17  21
ATOM     18  C   UNL     1       5.521   3.696  12.974  0.00  0.00    +0.000 C 
ATOM     19  C   UNL     1       6.158   4.221  14.201  0.00  0.00    +0.000 A 
ATOM     20  C   UNL     1       6.243   3.608  15.467  0.00  0.00    +0.000 A 
ATOM     21  C   UNL     1       6.893   4.532  16.248  0.00  0.00    +0.000 A 
ATOM     22  O   UNL     1       7.209   5.615  15.489  0.00  0.00    +0.000 OA
ATOM     23  N   UNL     1       6.750   5.422  14.199  0.00  0.00    +0.000 NA
ENDBRANCH  17  21
ENDBRANCH  14  17
ENDBRANCH  13  14
ENDBRANCH   1  13
TORSDOF 4
ENDMDL
MODEL 9
REMARK VINA RESULT:      -7.1      3.426      5.453
REMARK  Name = 
REMARK  6 active torsions:
REMARK  status: ('A' for Active; 'I' for Inactive)
REMARK    1  A    between atoms: C_1  and  C_2
REMARK    2  A    between atoms: C_4  and  C_5
REMARK    3  A    between atoms: C_5  and  S_6
REMARK    4  A    between atoms: S_6  and  C_9
REMARK    5  A    between atoms: C_9  and  C_10
REMARK    6  A    between atoms: C_20  and  C_21
REMARK                            x       y       z     vdW  Elec       q    Type
REMARK                         _______ _______ _______ _____ _____    ______ ____
ROOT
ATOM      1  C   UNL     1       1.928   6.867  20.236  0.00  0.00    +0.000 C 
ATOM      2  O   UNL     1       1.494   6.231  21.196  0.00  0.00    +0.000 OA
ATOM      3  N   UNL     1       1.567   8.184  19.991  0.00  0.00    +0.000 N 
ATOM      4  C   UNL     1       0.791   8.940  20.914  0.00  0.00    +0.000 A 
ATOM      5  C   UNL     1       0.366   8.600  22.192  0.00  0.00    +0.000 A 
ATOM      6  C   UNL     1      -0.401   9.516  22.917  0.00  0.00    +0.000 A 
ATOM      7  C   UNL     1      -0.743  10.753  22.360  0.00  0.00    +0.000 A 
ATOM      8  C   UNL     1      -0.307  11.096  21.080  0.00  0.00    +0.000 A 
ATOM      9  C   UNL     1       0.477  10.188  20.383  0.00  0.00    +0.000 A 
ATOM     10  C   UNL     1       1.011  10.325  18.996  0.00  0.00    +0.000 C 
ATOM     11  C   UNL     1       2.017   9.147  18.932  0.00  0.00    +0.000 C 
ATOM     12  C   UNL     1       2.110   8.632  17.501  0.00  0.00    +0.000 C 
ENDROOT
BRANCH   1  13
ATOM     13  C   UNL     1       2.890   6.220  19.289  0.00  0.00    +0.000 C 
BRANCH  13  14
ATOM     14  S   UNL     1       2.663   4.461  19.191  0.00  0.00    +0.000 S 
ATOM     15  O   UNL     1       1.373   4.279  18.545  0.00  0.00    +0.000 OA
ATOM     16  O   UNL     1       2.873   3.898  20.515  0.00  0.00    +0.000 OA
BRANCH  14  17
ATOM     17  C   UNL     1       3.934   3.875  18.059  0.00  0.00    +0.000 C 
BRANCH  17  21
ATOM     18  C   UNL     1       7.856   7.124  18.019  0.00  0.00    +0.000 C 
ATOM     19  C   UNL     1       6.870   6.056  18.288  0.00  0.00    +0.000 A 
ATOM     20  C   UNL     1       5.711   5.737  17.552  0.00  0.00    +0.000 A 
ATOM     21  C   UNL     1       5.140   4.701  18.250  0.00  0.00    +0.000 A 
ATOM     22  O   UNL     1       5.925   4.395  19.317  0.00  0.00    +0.000 OA
ATOM     23  N   UNL     1       7.016   5.244  19.343  0.00  0.00    +0.000 NA
ENDBRANCH  17  21
ENDBRANCH  14  17
ENDBRANCH  13  14
ENDBRANCH   1  13
TORSDOF 4
ENDMDL
