MODEL 1
REMARK VINA RESULT:      -5.9      0.000      0.000
REMARK  Name = 
REMARK  10 active torsions:
REMARK  status: ('A' for Active; 'I' for Inactive)
REMARK    1  A    between atoms: C_1  and  C_2
REMARK    2  A    between atoms: C_2  and  O_3
REMARK    3  A    between atoms: O_3  and  C_4
REMARK    4  A    between atoms: C_4  and  C_6
REMARK    5  A    between atoms: C_7  and  C_8
REMARK    6  A    between atoms: N_9  and  C_10
REMARK    7  A    between atoms: N_13  and  C_14
REMARK    8  A    between atoms: C_15  and  C_16
REMARK    9  A    between atoms: C_19  and  O_20
REMARK   10  A    between atoms: O_20  and  C_21
REMARK                            x       y       z     vdW  Elec       q    Type
REMARK                         _______ _______ _______ _____ _____    ______ ____
ROOT
ATOM      1  C   UNL     1      -1.517  11.680  18.760  0.00  0.00    +0.000 C 
ATOM      2  C   UNL     1      -2.223  12.398  19.655  0.00  0.00    +0.000 C 
ATOM      3  C   UNL     1      -3.734  12.350  19.763  0.00  0.00    +0.000 C 
ATOM      4  N   UNL     1      -1.538  13.243  20.557  0.00  0.00    +0.000 N 
ATOM      5  C   UNL     1      -2.318  14.017  21.551  0.00  0.00    +0.000 C 
ATOM      6  C   UNL     1      -0.126  13.419  20.557  0.00  0.00    +0.000 C 
ATOM      7  S   UNL     1       0.660  14.416  21.692  0.00  0.00    +0.000 S 
ATOM      8  N   UNL     1       0.582  12.741  19.560  0.00  0.00    +0.000 N 
ATOM      9  C   UNL     1       2.041  12.883  19.385  0.00  0.00    +0.000 C 
ATOM     10  C   UNL     1      -0.024  11.720  18.695  0.00  0.00    +0.000 C 
ENDROOT
BRANCH  10  11
ATOM     11  C   UNL     1       0.613  10.353  18.963  0.00  0.00    +0.000 A 
ATOM     12  C   UNL     1       0.533   9.759  20.231  0.00  0.00    +0.000 A 
ATOM     13  C   UNL     1       1.202   8.561  20.485  0.00  0.00    +0.000 A 
ATOM     14  C   UNL     1       1.933   7.927  19.479  0.00  0.00    +0.000 A 
ATOM     15  C   UNL     1       2.002   8.501  18.209  0.00  0.00    +0.000 A 
ATOM     16  C   UNL     1       1.347   9.707  17.954  0.00  0.00    +0.000 A 
BRANCH  14  17
ATOM     17  O   UNL     1       2.578   6.784  19.863  0.00  0.00    +0.000 OA
ATOM     18  C   UNL     1       2.908   5.881  18.815  0.00  0.00    +0.000 C 
ENDBRANCH  14  17
ENDBRANCH  10  11
BRANCH   1  19
ATOM     19  C   UNL     1      -2.154  10.737  17.789  0.00  0.00    +0.000 C 
ATOM     20  O   UNL     1      -2.525   9.601  18.054  0.00  0.00    +0.000 OA
BRANCH  19  21
ATOM     21  O   UNL     1      -2.250  11.304  16.557  0.00  0.00    +0.000 OA
BRANCH  21  23
ATOM     22  C   UNL     1      -3.038  10.127  14.616  0.00  0.00    +0.000 C 
ATOM     23  C   UNL     1      -3.434  10.968  15.814  0.00  0.00    +0.000 C 
ENDBRANCH  21  23
ENDBRANCH  19  21
ENDBRANCH   1  19
TORSDOF 5
ENDMDL
MODEL 2
REMARK VINA RESULT:      -5.7      0.305      1.051
REMARK  Name = 
REMARK  10 active torsions:
REMARK  status: ('A' for Active; 'I' for Inactive)
REMARK    1  A    between atoms: C_1  and  C_2
REMARK    2  A    between atoms: C_2  and  O_3
REMARK    3  A    between atoms: O_3  and  C_4
REMARK    4  A    between atoms: C_4  and  C_6
REMARK    5  A    between atoms: C_7  and  C_8
REMARK    6  A    between atoms: N_9  and  C_10
REMARK    7  A    between atoms: N_13  and  C_14
REMARK    8  A    between atoms: C_15  and  C_16
REMARK    9  A    between atoms: C_19  and  O_20
REMARK   10  A    between atoms: O_20  and  C_21
REMARK                            x       y       z     vdW  Elec       q    Type
REMARK                         _______ _______ _______ _____ _____    ______ ____
ROOT
ATOM      1  C   UNL     1      -1.282  11.789  18.807  0.00  0.00    +0.000 C 
ATOM      2  C   UNL     1      -1.961  12.536  19.700  0.00  0.00    +0.000 C 
ATOM      3  C   UNL     1      -3.468  12.495  19.854  0.00  0.00    +0.000 C 
ATOM      4  N   UNL     1      -1.248  13.406  20.555  0.00  0.00    +0.000 N 
ATOM      5  C   UNL     1      -1.996  14.212  21.548  0.00  0.00    +0.000 C 
ATOM      6  C   UNL     1       0.164  13.578  20.508  0.00  0.00    +0.000 C 
ATOM      7  S   UNL     1       0.985  14.608  21.588  0.00  0.00    +0.000 S 
ATOM      8  N   UNL     1       0.841  12.869  19.511  0.00  0.00    +0.000 N 
ATOM      9  C   UNL     1       2.294  13.001  19.289  0.00  0.00    +0.000 C 
ATOM     10  C   UNL     1       0.207  11.824  18.697  0.00  0.00    +0.000 C 
ENDROOT
BRANCH  10  11
ATOM     11  C   UNL     1       0.850  10.464  18.987  0.00  0.00    +0.000 A 
ATOM     12  C   UNL     1       1.466   9.727  17.966  0.00  0.00    +0.000 A 
ATOM     13  C   UNL     1       1.958   8.448  18.226  0.00  0.00    +0.000 A 
ATOM     14  C   UNL     1       1.869   7.897  19.505  0.00  0.00    +0.000 A 
ATOM     15  C   UNL     1       1.273   8.630  20.532  0.00  0.00    +0.000 A 
ATOM     16  C   UNL     1       0.766   9.904  20.274  0.00  0.00    +0.000 A 
BRANCH  14  17
ATOM     17  O   UNL     1       2.347   6.621  19.622  0.00  0.00    +0.000 OA
ATOM     18  C   UNL     1       3.509   6.326  18.858  0.00  0.00    +0.000 C 
ENDBRANCH  14  17
ENDBRANCH  10  11
BRANCH   1  19
ATOM     19  C   UNL     1      -1.950  10.818  17.885  0.00  0.00    +0.000 C 
ATOM     20  O   UNL     1      -2.266   9.673  18.180  0.00  0.00    +0.000 OA
BRANCH  19  21
ATOM     21  O   UNL     1      -2.143  11.373  16.659  0.00  0.00    +0.000 OA
BRANCH  21  23
ATOM     22  C   UNL     1      -3.045  10.210  14.758  0.00  0.00    +0.000 C 
ATOM     23  C   UNL     1      -3.371  11.010  16.004  0.00  0.00    +0.000 C 
ENDBRANCH  21  23
ENDBRANCH  19  21
ENDBRANCH   1  19
TORSDOF 5
ENDMDL
MODEL 3
REMARK VINA RESULT:      -5.6      4.731      8.642
REMARK  Name = 
REMARK  10 active torsions:
REMARK  status: ('A' for Active; 'I' for Inactive)
REMARK    1  A    between atoms: C_1  and  C_2
REMARK    2  A    between atoms: C_2  and  O_3
REMARK    3  A    between atoms: O_3  and  C_4
REMARK    4  A    between atoms: C_4  and  C_6
REMARK    5  A    between atoms: C_7  and  C_8
REMARK    6  A    between atoms: N_9  and  C_10
REMARK    7  A    between atoms: N_13  and  C_14
REMARK    8  A    between atoms: C_15  and  C_16
REMARK    9  A    between atoms: C_19  and  O_20
REMARK   10  A    between atoms: O_20  and  C_21
REMARK                            x       y       z     vdW  Elec       q    Type
REMARK                         _______ _______ _______ _____ _____    ______ ____
ROOT
ATOM      1  C   UNL     1       4.717   5.479  17.866  0.00  0.00    +0.000 C 
ATOM      2  C   UNL     1       5.253   4.478  18.592  0.00  0.00    +0.000 C 
ATOM      3  C   UNL     1       6.737   4.348  18.873  0.00  0.00    +0.000 C 
ATOM      4  N   UNL     1       4.404   3.490  19.139  0.00  0.00    +0.000 N 
ATOM      5  C   UNL     1       4.996   2.402  19.951  0.00  0.00    +0.000 C 
ATOM      6  C   UNL     1       2.995   3.458  18.936  0.00  0.00    +0.000 C 
ATOM      7  S   UNL     1       2.007   2.270  19.650  0.00  0.00    +0.000 S 
ATOM      8  N   UNL     1       2.469   4.448  18.100  0.00  0.00    +0.000 N 
ATOM      9  C   UNL     1       1.039   4.501  17.735  0.00  0.00    +0.000 C 
ATOM     10  C   UNL     1       3.246   5.602  17.631  0.00  0.00    +0.000 C 
ENDROOT
BRANCH  10  11
ATOM     11  C   UNL     1       2.667   6.899  18.204  0.00  0.00    +0.000 A 
ATOM     12  C   UNL     1       2.390   7.020  19.573  0.00  0.00    +0.000 A 
ATOM     13  C   UNL     1       1.772   8.171  20.063  0.00  0.00    +0.000 A 
ATOM     14  C   UNL     1       1.446   9.223  19.205  0.00  0.00    +0.000 A 
ATOM     15  C   UNL     1       1.734   9.119  17.844  0.00  0.00    +0.000 A 
ATOM     16  C   UNL     1       2.339   7.965  17.348  0.00  0.00    +0.000 A 
BRANCH  14  17
ATOM     17  O   UNL     1       0.804  10.276  19.798  0.00  0.00    +0.000 OA
ATOM     18  C   UNL     1      -0.586  10.384  19.520  0.00  0.00    +0.000 C 
ENDBRANCH  14  17
ENDBRANCH  10  11
BRANCH   1  19
ATOM     19  C   UNL     1       5.534   6.585  17.277  0.00  0.00    +0.000 C 
ATOM     20  O   UNL     1       6.078   7.474  17.918  0.00  0.00    +0.000 OA
BRANCH  19  21
ATOM     21  O   UNL     1       5.577   6.483  15.921  0.00  0.00    +0.000 OA
BRANCH  21  23
ATOM     22  C   UNL     1       5.651   4.527  14.527  0.00  0.00    +0.000 C 
ATOM     23  C   UNL     1       6.453   5.465  15.407  0.00  0.00    +0.000 C 
ENDBRANCH  21  23
ENDBRANCH  19  21
ENDBRANCH   1  19
TORSDOF 5
ENDMDL
MODEL 4
REMARK VINA RESULT:      -5.5      1.156      1.724
REMARK  Name = 
REMARK  10 active torsions:
REMARK  status: ('A' for Active; 'I' for Inactive)
REMARK    1  A    between atoms: C_1  and  C_2
REMARK    2  A    between atoms: C_2  and  O_3
REMARK    3  A    between atoms: O_3  and  C_4
REMARK    4  A    between atoms: C_4  and  C_6
REMARK    5  A    between atoms: C_7  and  C_8
REMARK    6  A    between atoms: N_9  and  C_10
REMARK    7  A    between atoms: N_13  and  C_14
REMARK    8  A    between atoms: C_15  and  C_16
REMARK    9  A    between atoms: C_19  and  O_20
REMARK   10  A    between atoms: O_20  and  C_21
REMARK                            x       y       z     vdW  Elec       q    Type
REMARK                         _______ _______ _______ _____ _____    ______ ____
ROOT
ATOM      1  C   UNL     1      -2.615  11.670  18.615  0.00  0.00    +0.000 C 
ATOM      2  C   UNL     1      -3.618  12.211  19.334  0.00  0.00    +0.000 C 
ATOM      3  C   UNL     1      -5.067  11.788  19.203  0.00  0.00    +0.000 C 
ATOM      4  N   UNL     1      -3.323  13.224  20.275  0.00  0.00    +0.000 N 
ATOM      5  C   UNL     1      -4.427  13.804  21.076  0.00  0.00    +0.000 C 
ATOM      6  C   UNL     1      -2.018  13.749  20.488  0.00  0.00    +0.000 C 
ATOM      7  S   UNL     1      -1.705  14.941  21.663  0.00  0.00    +0.000 S 
ATOM      8  N   UNL     1      -1.007  13.245  19.665  0.00  0.00    +0.000 N 
ATOM      9  C   UNL     1       0.382  13.744  19.716  0.00  0.00    +0.000 C 
ATOM     10  C   UNL     1      -1.189  12.082  18.786  0.00  0.00    +0.000 C 
ENDROOT
BRANCH  10  11
ATOM     11  C   UNL     1      -0.295  10.926  19.245  0.00  0.00    +0.000 A 
ATOM     12  C   UNL     1       0.677  10.387  18.390  0.00  0.00    +0.000 A 
ATOM     13  C   UNL     1       1.415   9.271  18.786  0.00  0.00    +0.000 A 
ATOM     14  C   UNL     1       1.217   8.696  20.042  0.00  0.00    +0.000 A 
ATOM     15  C   UNL     1       0.264   9.237  20.906  0.00  0.00    +0.000 A 
ATOM     16  C   UNL     1      -0.487  10.343  20.509  0.00  0.00    +0.000 A 
BRANCH  14  17
ATOM     17  O   UNL     1       1.969   7.582  20.295  0.00  0.00    +0.000 OA
ATOM     18  C   UNL     1       2.498   6.923  19.151  0.00  0.00    +0.000 C 
ENDBRANCH  14  17
ENDBRANCH  10  11
BRANCH   1  19
ATOM     19  C   UNL     1      -2.828  10.572  17.621  0.00  0.00    +0.000 C 
ATOM     20  O   UNL     1      -3.082   9.408  17.903  0.00  0.00    +0.000 OA
BRANCH  19  21
ATOM     21  O   UNL     1      -2.681  11.036  16.351  0.00  0.00    +0.000 OA
BRANCH  21  23
ATOM     22  C   UNL     1      -3.752  10.198  14.370  0.00  0.00    +0.000 C 
ATOM     23  C   UNL     1      -2.594  10.025  15.332  0.00  0.00    +0.000 C 
ENDBRANCH  21  23
ENDBRANCH  19  21
ENDBRANCH   1  19
TORSDOF 5
ENDMDL
MODEL 5
REMARK VINA RESULT:      -5.4      5.010      8.685
REMARK  Name = 
REMARK  10 active torsions:
REMARK  status: ('A' for Active; 'I' for Inactive)
REMARK    1  A    between atoms: C_1  and  C_2
REMARK    2  A    between atoms: C_2  and  O_3
REMARK    3  A    between atoms: O_3  and  C_4
REMARK    4  A    between atoms: C_4  and  C_6
REMARK    5  A    between atoms: C_7  and  C_8
REMARK    6  A    between atoms: N_9  and  C_10
REMARK    7  A    between atoms: N_13  and  C_14
REMARK    8  A    between atoms: C_15  and  C_16
REMARK    9  A    between atoms: C_19  and  O_20
REMARK   10  A    between atoms: O_20  and  C_21
REMARK                            x       y       z     vdW  Elec       q    Type
REMARK                         _______ _______ _______ _____ _____    ______ ____
ROOT
ATOM      1  C   UNL     1       4.646   5.451  17.895  0.00  0.00    +0.000 C 
ATOM      2  C   UNL     1       5.193   4.467  18.637  0.00  0.00    +0.000 C 
ATOM      3  C   UNL     1       6.673   4.382  18.953  0.00  0.00    +0.000 C 
ATOM      4  N   UNL     1       4.360   3.455  19.164  0.00  0.00    +0.000 N 
ATOM      5  C   UNL     1       4.965   2.386  19.993  0.00  0.00    +0.000 C 
ATOM      6  C   UNL     1       2.959   3.382  18.927  0.00  0.00    +0.000 C 
ATOM      7  S   UNL     1       1.989   2.166  19.619  0.00  0.00    +0.000 S 
ATOM      8  N   UNL     1       2.424   4.354  18.077  0.00  0.00    +0.000 N 
ATOM      9  C   UNL     1       1.003   4.365  17.677  0.00  0.00    +0.000 C 
ATOM     10  C   UNL     1       3.178   5.530  17.624  0.00  0.00    +0.000 C 
ENDROOT
BRANCH  10  11
ATOM     11  C   UNL     1       2.547   6.811  18.180  0.00  0.00    +0.000 A 
ATOM     12  C   UNL     1       2.257   7.893  17.337  0.00  0.00    +0.000 A 
ATOM     13  C   UNL     1       1.775   9.087  17.874  0.00  0.00    +0.000 A 
ATOM     14  C   UNL     1       1.550   9.212  19.246  0.00  0.00    +0.000 A 
ATOM     15  C   UNL     1       1.819   8.134  20.090  0.00  0.00    +0.000 A 
ATOM     16  C   UNL     1       2.315   6.942  19.560  0.00  0.00    +0.000 A 
BRANCH  14  17
ATOM     17  O   UNL     1       1.119  10.444  19.654  0.00  0.00    +0.000 OA
ATOM     18  C   UNL     1       0.622  10.513  20.984  0.00  0.00    +0.000 C 
ENDBRANCH  14  17
ENDBRANCH  10  11
BRANCH   1  19
ATOM     19  C   UNL     1       5.444   6.579  17.324  0.00  0.00    +0.000 C 
ATOM     20  O   UNL     1       5.971   7.469  17.978  0.00  0.00    +0.000 OA
BRANCH  19  21
ATOM     21  O   UNL     1       5.492   6.498  15.967  0.00  0.00    +0.000 OA
BRANCH  21  23
ATOM     22  C   UNL     1       5.669   4.579  14.532  0.00  0.00    +0.000 C 
ATOM     23  C   UNL     1       6.419   5.534  15.439  0.00  0.00    +0.000 C 
ENDBRANCH  21  23
ENDBRANCH  19  21
ENDBRANCH   1  19
TORSDOF 5
ENDMDL
MODEL 6
REMARK VINA RESULT:      -5.4      4.784      8.746
REMARK  Name = 
REMARK  10 active torsions:
REMARK  status: ('A' for Active; 'I' for Inactive)
REMARK    1  A    between atoms: C_1  and  C_2
REMARK    2  A    between atoms: C_2  and  O_3
REMARK    3  A    between atoms: O_3  and  C_4
REMARK    4  A    between atoms: C_4  and  C_6
REMARK    5  A    between atoms: C_7  and  C_8
REMARK    6  A    between atoms: N_9  and  C_10
REMARK    7  A    between atoms: N_13  and  C_14
REMARK    8  A    between atoms: C_15  and  C_16
REMARK    9  A    between atoms: C_19  and  O_20
REMARK   10  A    between atoms: O_20  and  C_21
REMARK                            x       y       z     vdW  Elec       q    Type
REMARK                         _______ _______ _______ _____ _____    ______ ____
ROOT
ATOM      1  C   UNL     1       4.699   5.495  17.722  0.00  0.00    +0.000 C 
ATOM      2  C   UNL     1       5.292   4.506  18.421  0.00  0.00    +0.000 C 
ATOM      3  C   UNL     1       6.792   4.394  18.607  0.00  0.00    +0.000 C 
ATOM      4  N   UNL     1       4.490   3.515  19.030  0.00  0.00    +0.000 N 
ATOM      5  C   UNL     1       5.145   2.441  19.812  0.00  0.00    +0.000 C 
ATOM      6  C   UNL     1       3.072   3.467  18.918  0.00  0.00    +0.000 C 
ATOM      7  S   UNL     1       2.144   2.276  19.705  0.00  0.00    +0.000 S 
ATOM      8  N   UNL     1       2.483   4.443  18.109  0.00  0.00    +0.000 N 
ATOM      9  C   UNL     1       1.032   4.479  17.837  0.00  0.00    +0.000 C 
ATOM     10  C   UNL     1       3.216   5.601  17.581  0.00  0.00    +0.000 C 
ENDROOT
BRANCH  10  11
ATOM     11  C   UNL     1       2.660   6.898  18.178  0.00  0.00    +0.000 A 
ATOM     12  C   UNL     1       2.423   7.010  19.556  0.00  0.00    +0.000 A 
ATOM     13  C   UNL     1       1.826   8.161  20.070  0.00  0.00    +0.000 A 
ATOM     14  C   UNL     1       1.482   9.222  19.229  0.00  0.00    +0.000 A 
ATOM     15  C   UNL     1       1.731   9.125  17.860  0.00  0.00    +0.000 A 
ATOM     16  C   UNL     1       2.315   7.971  17.339  0.00  0.00    +0.000 A 
BRANCH  14  17
ATOM     17  O   UNL     1       0.864  10.274  19.846  0.00  0.00    +0.000 OA
ATOM     18  C   UNL     1      -0.421  10.615  19.342  0.00  0.00    +0.000 C 
ENDBRANCH  14  17
ENDBRANCH  10  11
BRANCH   1  19
ATOM     19  C   UNL     1       5.465   6.603  17.072  0.00  0.00    +0.000 C 
ATOM     20  O   UNL     1       5.409   6.893  15.884  0.00  0.00    +0.000 OA
BRANCH  19  21
ATOM     21  O   UNL     1       6.254   7.240  17.977  0.00  0.00    +0.000 OA
BRANCH  21  23
ATOM     22  C   UNL     1       7.965   8.925  17.896  0.00  0.00    +0.000 C 
ATOM     23  C   UNL     1       7.603   7.495  17.549  0.00  0.00    +0.000 C 
ENDBRANCH  21  23
ENDBRANCH  19  21
ENDBRANCH   1  19
TORSDOF 5
ENDMDL
MODEL 7
REMARK VINA RESULT:      -5.2      2.941      5.106
REMARK  Name = 
REMARK  10 active torsions:
REMARK  status: ('A' for Active; 'I' for Inactive)
REMARK    1  A    between atoms: C_1  and  C_2
REMARK    2  A    between atoms: C_2  and  O_3
REMARK    3  A    between atoms: O_3  and  C_4
REMARK    4  A    between atoms: C_4  and  C_6
REMARK    5  A    between atoms: C_7  and  C_8
REMARK    6  A    between atoms: N_9  and  C_10
REMARK    7  A    between atoms: N_13  and  C_14
REMARK    8  A    between atoms: C_15  and  C_16
REMARK    9  A    between atoms: C_19  and  O_20
REMARK   10  A    between atoms: O_20  and  C_21
REMARK                            x       y       z     vdW  Elec       q    Type
REMARK                         _______ _______ _______ _____ _____    ______ ____
ROOT
ATOM      1  C   UNL     1      -1.165  11.940  20.652  0.00  0.00    +0.000 C 
ATOM      2  C   UNL     1      -1.082  11.325  21.849  0.00  0.00    +0.000 C 
ATOM      3  C   UNL     1      -1.823  11.793  23.085  0.00  0.00    +0.000 C 
ATOM      4  N   UNL     1      -0.271  10.175  21.979  0.00  0.00    +0.000 N 
ATOM      5  C   UNL     1      -0.197   9.492  23.292  0.00  0.00    +0.000 C 
ATOM      6  C   UNL     1       0.510   9.635  20.918  0.00  0.00    +0.000 C 
ATOM      7  S   UNL     1       1.439   8.221  21.111  0.00  0.00    +0.000 S 
ATOM      8  N   UNL     1       0.487  10.341  19.712  0.00  0.00    +0.000 N 
ATOM      9  C   UNL     1       1.302   9.947  18.546  0.00  0.00    +0.000 C 
ATOM     10  C   UNL     1      -0.449  11.439  19.440  0.00  0.00    +0.000 C 
ENDROOT
BRANCH  10  11
ATOM     11  C   UNL     1      -1.408  11.051  18.311  0.00  0.00    +0.000 A 
ATOM     12  C   UNL     1      -1.542  11.857  17.172  0.00  0.00    +0.000 A 
ATOM     13  C   UNL     1      -2.490  11.542  16.198  0.00  0.00    +0.000 A 
ATOM     14  C   UNL     1      -3.297  10.410  16.331  0.00  0.00    +0.000 A 
ATOM     15  C   UNL     1      -3.159   9.592  17.452  0.00  0.00    +0.000 A 
ATOM     16  C   UNL     1      -2.222   9.911  18.435  0.00  0.00    +0.000 A 
BRANCH  14  17
ATOM     17  O   UNL     1      -4.217  10.234  15.334  0.00  0.00    +0.000 OA
ATOM     18  C   UNL     1      -3.683  10.056  14.029  0.00  0.00    +0.000 C 
ENDBRANCH  14  17
ENDBRANCH  10  11
BRANCH   1  19
ATOM     19  C   UNL     1      -2.022  13.142  20.414  0.00  0.00    +0.000 C 
ATOM     20  O   UNL     1      -1.619  14.298  20.385  0.00  0.00    +0.000 OA
BRANCH  19  21
ATOM     21  O   UNL     1      -3.324  12.783  20.252  0.00  0.00    +0.000 OA
BRANCH  21  23
ATOM     22  C   UNL     1      -5.418  12.691  21.427  0.00  0.00    +0.000 C 
ATOM     23  C   UNL     1      -4.278  13.582  20.972  0.00  0.00    +0.000 C 
ENDBRANCH  21  23
ENDBRANCH  19  21
ENDBRANCH   1  19
TORSDOF 5
ENDMDL
MODEL 8
REMARK VINA RESULT:      -5.1      3.604      6.013
REMARK  Name = 
REMARK  10 active torsions:
REMARK  status: ('A' for Active; 'I' for Inactive)
REMARK    1  A    between atoms: C_1  and  C_2
REMARK    2  A    between atoms: C_2  and  O_3
REMARK    3  A    between atoms: O_3  and  C_4
REMARK    4  A    between atoms: C_4  and  C_6
REMARK    5  A    between atoms: C_7  and  C_8
REMARK    6  A    between atoms: N_9  and  C_10
REMARK    7  A    between atoms: N_13  and  C_14
REMARK    8  A    between atoms: C_15  and  C_16
REMARK    9  A    between atoms: C_19  and  O_20
REMARK   10  A    between atoms: O_20  and  C_21
REMARK                            x       y       z     vdW  Elec       q    Type
REMARK                         _______ _______ _______ _____ _____    ______ ____
ROOT
ATOM      1  C   UNL     1      -1.966  12.374  21.670  0.00  0.00    +0.000 C 
ATOM      2  C   UNL     1      -3.219  12.574  22.123  0.00  0.00    +0.000 C 
ATOM      3  C   UNL     1      -3.555  12.805  23.583  0.00  0.00    +0.000 C 
ATOM      4  N   UNL     1      -4.292  12.582  21.204  0.00  0.00    +0.000 N 
ATOM      5  C   UNL     1      -5.666  12.821  21.705  0.00  0.00    +0.000 C 
ATOM      6  C   UNL     1      -4.140  12.348  19.809  0.00  0.00    +0.000 C 
ATOM      7  S   UNL     1      -5.458  12.409  18.734  0.00  0.00    +0.000 S 
ATOM      8  N   UNL     1      -2.847  12.045  19.371  0.00  0.00    +0.000 N 
ATOM      9  C   UNL     1      -2.543  11.706  17.966  0.00  0.00    +0.000 C 
ATOM     10  C   UNL     1      -1.657  12.180  20.221  0.00  0.00    +0.000 C 
ENDROOT
BRANCH  10  11
ATOM     11  C   UNL     1      -0.731  13.268  19.667  0.00  0.00    +0.000 A 
ATOM     12  C   UNL     1       0.519  12.940  19.125  0.00  0.00    +0.000 A 
ATOM     13  C   UNL     1       1.391  13.950  18.716  0.00  0.00    +0.000 A 
ATOM     14  C   UNL     1       1.022  15.293  18.817  0.00  0.00    +0.000 A 
ATOM     15  C   UNL     1      -0.228  15.628  19.339  0.00  0.00    +0.000 A 
ATOM     16  C   UNL     1      -1.097  14.622  19.762  0.00  0.00    +0.000 A 
BRANCH  14  17
ATOM     17  O   UNL     1       1.979  16.188  18.425  0.00  0.00    +0.000 OA
ATOM     18  C   UNL     1       1.518  17.510  18.172  0.00  0.00    +0.000 C 
ENDBRANCH  14  17
ENDBRANCH  10  11
BRANCH   1  19
ATOM     19  C   UNL     1      -0.766  12.381  22.564  0.00  0.00    +0.000 C 
ATOM     20  O   UNL     1      -0.439  13.308  23.293  0.00  0.00    +0.000 OA
BRANCH  19  21
ATOM     21  O   UNL     1      -0.069  11.220  22.445  0.00  0.00    +0.000 OA
BRANCH  21  23
ATOM     22  C   UNL     1      -0.446   8.855  22.241  0.00  0.00    +0.000 C 
ATOM     23  C   UNL     1      -0.648  10.082  23.108  0.00  0.00    +0.000 C 
ENDBRANCH  21  23
ENDBRANCH  19  21
ENDBRANCH   1  19
TORSDOF 5
ENDMDL
MODEL 9
REMARK VINA RESULT:      -5.1      3.557      5.432
REMARK  Name = 
REMARK  10 active torsions:
REMARK  status: ('A' for Active; 'I' for Inactive)
REMARK    1  A    between atoms: C_1  and  C_2
REMARK    2  A    between atoms: C_2  and  O_3
REMARK    3  A    between atoms: O_3  and  C_4
REMARK    4  A    between atoms: C_4  and  C_6
REMARK    5  A    between atoms: C_7  and  C_8
REMARK    6  A    between atoms: N_9  and  C_10
REMARK    7  A    between atoms: N_13  and  C_14
REMARK    8  A    between atoms: C_15  and  C_16
REMARK    9  A    between atoms: C_19  and  O_20
REMARK   10  A    between atoms: O_20  and  C_21
REMARK                            x       y       z     vdW  Elec       q    Type
REMARK                         _______ _______ _______ _____ _____    ______ ____
ROOT
ATOM      1  C   UNL     1      -2.682  12.239  20.106  0.00  0.00    +0.000 C 
ATOM      2  C   UNL     1      -3.792  12.288  19.343  0.00  0.00    +0.000 C 
ATOM      3  C   UNL     1      -5.072  12.979  19.770  0.00  0.00    +0.000 C 
ATOM      4  N   UNL     1      -3.781  11.677  18.069  0.00  0.00    +0.000 N 
ATOM      5  C   UNL     1      -4.998  11.750  17.227  0.00  0.00    +0.000 C 
ATOM      6  C   UNL     1      -2.667  10.964  17.544  0.00  0.00    +0.000 C 
ATOM      7  S   UNL     1      -2.686  10.280  15.985  0.00  0.00    +0.000 S 
ATOM      8  N   UNL     1      -1.560  10.840  18.388  0.00  0.00    +0.000 N 
ATOM      9  C   UNL     1      -0.359  10.066  18.014  0.00  0.00    +0.000 C 
ATOM     10  C   UNL     1      -1.422  11.579  19.649  0.00  0.00    +0.000 C 
ENDROOT
BRANCH  10  11
ATOM     11  C   UNL     1      -0.245  12.557  19.565  0.00  0.00    +0.000 A 
ATOM     12  C   UNL     1       0.891  12.385  20.369  0.00  0.00    +0.000 A 
ATOM     13  C   UNL     1       1.910  13.337  20.352  0.00  0.00    +0.000 A 
ATOM     14  C   UNL     1       1.826  14.455  19.519  0.00  0.00    +0.000 A 
ATOM     15  C   UNL     1       0.707  14.625  18.703  0.00  0.00    +0.000 A 
ATOM     16  C   UNL     1      -0.321  13.682  18.727  0.00  0.00    +0.000 A 
BRANCH  14  17
ATOM     17  O   UNL     1       2.866  15.337  19.625  0.00  0.00    +0.000 OA
ATOM     18  C   UNL     1       4.142  14.833  19.251  0.00  0.00    +0.000 C 
ENDBRANCH  14  17
ENDBRANCH  10  11
BRANCH   1  19
ATOM     19  C   UNL     1      -2.592  12.884  21.453  0.00  0.00    +0.000 C 
ATOM     20  O   UNL     1      -2.469  14.086  21.649  0.00  0.00    +0.000 OA
BRANCH  19  21
ATOM     21  O   UNL     1      -2.644  11.950  22.440  0.00  0.00    +0.000 OA
BRANCH  21  23
ATOM     22  C   UNL     1      -0.909  10.420  23.090  0.00  0.00    +0.000 C 
ATOM     23  C   UNL     1      -1.453  11.827  23.237  0.00  0.00    +0.000 C 
ENDBRANCH  21  23
ENDBRANCH  19  21
ENDBRANCH   1  19
TORSDOF 5
ENDMDL
