MODEL 1
REMARK VINA RESULT:      -9.4      0.000      0.000
REMARK  Name = 
REMARK  3 active torsions:
REMARK  status: ('A' for Active; 'I' for Inactive)
REMARK    1  A    between atoms: C_2  and  C_24
REMARK    2  A    between atoms: N_10  and  S_11
REMARK    3  A    between atoms: S_11  and  C_14
REMARK                            x       y       z     vdW  Elec       q    Type
REMARK                         _______ _______ _______ _____ _____    ______ ____
ROOT
ATOM      1  O   UNL     1       7.864  10.353  17.551  0.00  0.00    +0.000 OA
ATOM      2  C   UNL     1       8.765   9.903  18.253  0.00  0.00    +0.000 C 
ATOM      3  N   UNL     1       8.874   8.593  18.682  0.00  0.00    +0.000 N 
ATOM      4  C   UNL     1       7.943   7.671  18.283  0.00  0.00    +0.000 A 
ATOM      5  N   UNL     1       7.078   7.785  17.310  0.00  0.00    +0.000 NA
ATOM      6  C   UNL     1       6.253   6.693  17.305  0.00  0.00    +0.000 A 
ATOM      7  C   UNL     1       6.502   5.744  18.273  0.00  0.00    +0.000 A 
ATOM      8  S   UNL     1       7.886   6.204  19.172  0.00  0.00    +0.000 S 
ATOM      9  C   UNL     1       5.712   4.485  18.467  0.00  0.00    +0.000 C 
ATOM     10  N   UNL     1       4.438   4.558  17.656  0.00  0.00    +0.000 NA
ATOM     11  C   UNL     1       4.663   5.123  16.271  0.00  0.00    +0.000 C 
ATOM     12  C   UNL     1       5.142   6.575  16.334  0.00  0.00    +0.000 C 
ATOM     13  H   UNL     1       9.529   8.324  19.397  0.00  0.00    +0.000 HD
ENDROOT
BRANCH   2  14
ATOM     14  C   UNL     1       9.790  10.816  18.740  0.00  0.00    +0.000 A 
ATOM     15  C   UNL     1      10.713  11.539  17.921  0.00  0.00    +0.000 A 
ATOM     16  C   UNL     1      11.518  12.261  18.766  0.00  0.00    +0.000 A 
ATOM     17  O   UNL     1      11.160  12.037  20.054  0.00  0.00    +0.000 OA
ATOM     18  C   UNL     1      10.117  11.159  20.034  0.00  0.00    +0.000 A 
ENDBRANCH   2  14
BRANCH  10  19
ATOM     19  S   UNL     1       3.559   3.078  17.589  0.00  0.00    +0.000 S 
ATOM     20  O   UNL     1       2.573   3.181  16.538  0.00  0.00    +0.000 OA
ATOM     21  O   UNL     1       4.560   2.033  17.546  0.00  0.00    +0.000 OA
BRANCH  19  22
ATOM     22  C   UNL     1       2.676   2.990  19.097  0.00  0.00    +0.000 A 
ATOM     23  C   UNL     1       3.304   2.481  20.225  0.00  0.00    +0.000 A 
ATOM     24  F   UNL     1       4.551   1.994  20.166  0.00  0.00    +0.000 F 
ATOM     25  C   UNL     1       2.654   2.474  21.461  0.00  0.00    +0.000 A 
ATOM     26  C   UNL     1       1.366   2.997  21.572  0.00  0.00    +0.000 A 
ATOM     27  C   UNL     1       0.744   3.532  20.446  0.00  0.00    +0.000 A 
ATOM     28  C   UNL     1       1.402   3.530  19.215  0.00  0.00    +0.000 A 
ATOM     29  F   UNL     1       0.769   4.083  18.175  0.00  0.00    +0.000 F 
ENDBRANCH  19  22
ENDBRANCH  10  19
TORSDOF 3
ENDMDL
MODEL 2
REMARK VINA RESULT:      -9.3      0.113      1.565
REMARK  Name = 
REMARK  3 active torsions:
REMARK  status: ('A' for Active; 'I' for Inactive)
REMARK    1  A    between atoms: C_2  and  C_24
REMARK    2  A    between atoms: N_10  and  S_11
REMARK    3  A    between atoms: S_11  and  C_14
REMARK                            x       y       z     vdW  Elec       q    Type
REMARK                         _______ _______ _______ _____ _____    ______ ____
ROOT
ATOM      1  O   UNL     1       7.951  10.385  17.481  0.00  0.00    +0.000 OA
ATOM      2  C   UNL     1       8.836   9.943  18.208  0.00  0.00    +0.000 C 
ATOM      3  N   UNL     1       8.924   8.644  18.672  0.00  0.00    +0.000 N 
ATOM      4  C   UNL     1       7.988   7.722  18.282  0.00  0.00    +0.000 A 
ATOM      5  N   UNL     1       7.140   7.820  17.293  0.00  0.00    +0.000 NA
ATOM      6  C   UNL     1       6.304   6.737  17.303  0.00  0.00    +0.000 A 
ATOM      7  C   UNL     1       6.527   5.811  18.298  0.00  0.00    +0.000 A 
ATOM      8  S   UNL     1       7.902   6.278  19.207  0.00  0.00    +0.000 S 
ATOM      9  C   UNL     1       5.720   4.565  18.512  0.00  0.00    +0.000 C 
ATOM     10  N   UNL     1       4.459   4.631  17.679  0.00  0.00    +0.000 NA
ATOM     11  C   UNL     1       4.713   5.158  16.285  0.00  0.00    +0.000 C 
ATOM     12  C   UNL     1       5.206   6.606  16.318  0.00  0.00    +0.000 C 
ATOM     13  H   UNL     1       9.564   8.386  19.404  0.00  0.00    +0.000 HD
ENDROOT
BRANCH   2  14
ATOM     14  C   UNL     1       9.863  10.857  18.688  0.00  0.00    +0.000 A 
ATOM     15  C   UNL     1      10.816  11.537  17.867  0.00  0.00    +0.000 A 
ATOM     16  C   UNL     1      11.612  12.276  18.706  0.00  0.00    +0.000 A 
ATOM     17  O   UNL     1      11.221  12.103  19.992  0.00  0.00    +0.000 OA
ATOM     18  C   UNL     1      10.165  11.240  19.977  0.00  0.00    +0.000 A 
ENDBRANCH   2  14
BRANCH  10  19
ATOM     19  S   UNL     1       3.566   3.159  17.636  0.00  0.00    +0.000 S 
ATOM     20  O   UNL     1       2.543   3.277  16.623  0.00  0.00    +0.000 OA
ATOM     21  O   UNL     1       4.555   2.106  17.551  0.00  0.00    +0.000 OA
BRANCH  19  22
ATOM     22  C   UNL     1       2.737   3.071  19.175  0.00  0.00    +0.000 A 
ATOM     23  C   UNL     1       1.404   3.449  19.252  0.00  0.00    +0.000 A 
ATOM     24  F   UNL     1       0.758   3.942  18.187  0.00  0.00    +0.000 F 
ATOM     25  C   UNL     1       0.693   3.313  20.447  0.00  0.00    +0.000 A 
ATOM     26  C   UNL     1       1.319   2.778  21.572  0.00  0.00    +0.000 A 
ATOM     27  C   UNL     1       2.650   2.374  21.489  0.00  0.00    +0.000 A 
ATOM     28  C   UNL     1       3.352   2.519  20.290  0.00  0.00    +0.000 A 
ATOM     29  F   UNL     1       4.618   2.087  20.261  0.00  0.00    +0.000 F 
ENDBRANCH  19  22
ENDBRANCH  10  19
TORSDOF 3
ENDMDL
MODEL 3
REMARK VINA RESULT:      -8.4      6.508      7.973
REMARK  Name = 
REMARK  3 active torsions:
REMARK  status: ('A' for Active; 'I' for Inactive)
REMARK    1  A    between atoms: C_2  and  C_24
REMARK    2  A    between atoms: N_10  and  S_11
REMARK    3  A    between atoms: S_11  and  C_14
REMARK                            x       y       z     vdW  Elec       q    Type
REMARK                         _______ _______ _______ _____ _____    ______ ____
ROOT
ATOM      1  O   UNL     1      -1.759  11.931  19.358  0.00  0.00    +0.000 OA
ATOM      2  C   UNL     1      -1.711  11.843  20.581  0.00  0.00    +0.000 C 
ATOM      3  N   UNL     1      -0.870  11.012  21.297  0.00  0.00    +0.000 N 
ATOM      4  C   UNL     1       0.035  10.229  20.630  0.00  0.00    +0.000 A 
ATOM      5  N   UNL     1       0.419  10.342  19.386  0.00  0.00    +0.000 NA
ATOM      6  C   UNL     1       1.250   9.302  19.070  0.00  0.00    +0.000 A 
ATOM      7  C   UNL     1       1.503   8.402  20.083  0.00  0.00    +0.000 A 
ATOM      8  S   UNL     1       0.732   8.936  21.518  0.00  0.00    +0.000 S 
ATOM      9  C   UNL     1       2.361   7.179  19.954  0.00  0.00    +0.000 C 
ATOM     10  N   UNL     1       2.653   6.919  18.493  0.00  0.00    +0.000 NA
ATOM     11  C   UNL     1       2.990   8.183  17.736  0.00  0.00    +0.000 C 
ATOM     12  C   UNL     1       1.803   9.148  17.705  0.00  0.00    +0.000 C 
ATOM     13  H   UNL     1      -0.998  10.850  22.282  0.00  0.00    +0.000 HD
ENDROOT
BRANCH   2  14
ATOM     14  C   UNL     1      -2.650  12.625  21.372  0.00  0.00    +0.000 A 
ATOM     15  C   UNL     1      -2.879  12.473  22.776  0.00  0.00    +0.000 A 
ATOM     16  C   UNL     1      -3.850  13.379  23.124  0.00  0.00    +0.000 A 
ATOM     17  O   UNL     1      -4.242  14.084  22.035  0.00  0.00    +0.000 OA
ATOM     18  C   UNL     1      -3.517  13.621  20.976  0.00  0.00    +0.000 A 
ENDBRANCH   2  14
BRANCH  10  19
ATOM     19  S   UNL     1       3.833   5.694  18.219  0.00  0.00    +0.000 S 
ATOM     20  O   UNL     1       4.173   5.697  16.815  0.00  0.00    +0.000 OA
ATOM     21  O   UNL     1       4.859   5.912  19.215  0.00  0.00    +0.000 OA
BRANCH  19  22
ATOM     22  C   UNL     1       3.014   4.179  18.533  0.00  0.00    +0.000 A 
ATOM     23  C   UNL     1       3.637   3.220  19.319  0.00  0.00    +0.000 A 
ATOM     24  F   UNL     1       4.878   3.405  19.790  0.00  0.00    +0.000 F 
ATOM     25  C   UNL     1       2.977   2.036  19.655  0.00  0.00    +0.000 A 
ATOM     26  C   UNL     1       1.673   1.817  19.211  0.00  0.00    +0.000 A 
ATOM     27  C   UNL     1       1.038   2.789  18.442  0.00  0.00    +0.000 A 
ATOM     28  C   UNL     1       1.709   3.968  18.109  0.00  0.00    +0.000 A 
ATOM     29  F   UNL     1       1.040   4.879  17.394  0.00  0.00    +0.000 F 
ENDBRANCH  19  22
ENDBRANCH  10  19
TORSDOF 3
ENDMDL
MODEL 4
REMARK VINA RESULT:      -8.3      0.882      1.610
REMARK  Name = 
REMARK  3 active torsions:
REMARK  status: ('A' for Active; 'I' for Inactive)
REMARK    1  A    between atoms: C_2  and  C_24
REMARK    2  A    between atoms: N_10  and  S_11
REMARK    3  A    between atoms: S_11  and  C_14
REMARK                            x       y       z     vdW  Elec       q    Type
REMARK                         _______ _______ _______ _____ _____    ______ ____
ROOT
ATOM      1  O   UNL     1       8.106  10.602  17.670  0.00  0.00    +0.000 OA
ATOM      2  C   UNL     1       8.973  10.084  18.369  0.00  0.00    +0.000 C 
ATOM      3  N   UNL     1       9.021   8.753  18.739  0.00  0.00    +0.000 N 
ATOM      4  C   UNL     1       8.064   7.888  18.279  0.00  0.00    +0.000 A 
ATOM      5  N   UNL     1       7.227   8.080  17.294  0.00  0.00    +0.000 NA
ATOM      6  C   UNL     1       6.360   7.024  17.221  0.00  0.00    +0.000 A 
ATOM      7  C   UNL     1       6.549   6.023  18.149  0.00  0.00    +0.000 A 
ATOM      8  S   UNL     1       7.930   6.386  19.097  0.00  0.00    +0.000 S 
ATOM      9  C   UNL     1       5.707   4.789  18.268  0.00  0.00    +0.000 C 
ATOM     10  N   UNL     1       4.455   4.950  17.434  0.00  0.00    +0.000 NA
ATOM     11  C   UNL     1       4.734   5.567  16.083  0.00  0.00    +0.000 C 
ATOM     12  C   UNL     1       5.267   6.995  16.223  0.00  0.00    +0.000 C 
ATOM     13  H   UNL     1       9.649   8.426  19.455  0.00  0.00    +0.000 HD
ENDROOT
BRANCH   2  14
ATOM     14  C   UNL     1      10.021  10.932  18.919  0.00  0.00    +0.000 A 
ATOM     15  C   UNL     1      10.022  11.503  20.232  0.00  0.00    +0.000 A 
ATOM     16  C   UNL     1      11.169  12.248  20.344  0.00  0.00    +0.000 A 
ATOM     17  O   UNL     1      11.882  12.181  19.193  0.00  0.00    +0.000 OA
ATOM     18  C   UNL     1      11.181  11.388  18.333  0.00  0.00    +0.000 A 
ENDBRANCH   2  14
BRANCH  10  19
ATOM     19  S   UNL     1       3.522   3.510  17.281  0.00  0.00    +0.000 S 
ATOM     20  O   UNL     1       2.516   3.727  16.267  0.00  0.00    +0.000 OA
ATOM     21  O   UNL     1       4.482   2.438  17.135  0.00  0.00    +0.000 OA
BRANCH  19  22
ATOM     22  C   UNL     1       2.671   3.341  18.801  0.00  0.00    +0.000 A 
ATOM     23  C   UNL     1       2.039   4.446  19.354  0.00  0.00    +0.000 A 
ATOM     24  F   UNL     1       2.122   5.654  18.780  0.00  0.00    +0.000 F 
ATOM     25  C   UNL     1       1.284   4.324  20.522  0.00  0.00    +0.000 A 
ATOM     26  C   UNL     1       1.148   3.080  21.136  0.00  0.00    +0.000 A 
ATOM     27  C   UNL     1       1.761   1.964  20.569  0.00  0.00    +0.000 A 
ATOM     28  C   UNL     1       2.516   2.099  19.402  0.00  0.00    +0.000 A 
ATOM     29  F   UNL     1       3.057   0.990  18.886  0.00  0.00    +0.000 F 
ENDBRANCH  19  22
ENDBRANCH  10  19
TORSDOF 3
ENDMDL
MODEL 5
REMARK VINA RESULT:      -8.2      5.744      6.997
REMARK  Name = 
REMARK  3 active torsions:
REMARK  status: ('A' for Active; 'I' for Inactive)
REMARK    1  A    between atoms: C_2  and  C_24
REMARK    2  A    between atoms: N_10  and  S_11
REMARK    3  A    between atoms: S_11  and  C_14
REMARK                            x       y       z     vdW  Elec       q    Type
REMARK                         _______ _______ _______ _____ _____    ______ ____
ROOT
ATOM      1  O   UNL     1       0.749  11.709  21.454  0.00  0.00    +0.000 OA
ATOM      2  C   UNL     1       0.660  12.140  20.308  0.00  0.00    +0.000 C 
ATOM      3  N   UNL     1       0.891  11.415  19.154  0.00  0.00    +0.000 N 
ATOM      4  C   UNL     1       1.209  10.085  19.244  0.00  0.00    +0.000 A 
ATOM      5  N   UNL     1       1.068   9.303  20.280  0.00  0.00    +0.000 NA
ATOM      6  C   UNL     1       1.605   8.075  20.000  0.00  0.00    +0.000 A 
ATOM      7  C   UNL     1       2.146   7.927  18.741  0.00  0.00    +0.000 A 
ATOM      8  S   UNL     1       1.890   9.364  17.843  0.00  0.00    +0.000 S 
ATOM      9  C   UNL     1       2.806   6.682  18.229  0.00  0.00    +0.000 C 
ATOM     10  N   UNL     1       3.059   5.735  19.381  0.00  0.00    +0.000 NA
ATOM     11  C   UNL     1       1.887   5.653  20.332  0.00  0.00    +0.000 C 
ATOM     12  C   UNL     1       1.629   6.998  21.014  0.00  0.00    +0.000 C 
ATOM     13  H   UNL     1       0.980  11.862  18.257  0.00  0.00    +0.000 HD
ENDROOT
BRANCH   2  14
ATOM     14  C   UNL     1       0.345  13.549  20.117  0.00  0.00    +0.000 A 
ATOM     15  C   UNL     1      -0.244  14.115  18.942  0.00  0.00    +0.000 A 
ATOM     16  C   UNL     1      -0.351  15.466  19.159  0.00  0.00    +0.000 A 
ATOM     17  O   UNL     1       0.130  15.780  20.387  0.00  0.00    +0.000 OA
ATOM     18  C   UNL     1       0.554  14.618  20.961  0.00  0.00    +0.000 A 
ENDBRANCH   2  14
BRANCH  10  19
ATOM     19  S   UNL     1       3.582   4.165  18.899  0.00  0.00    +0.000 S 
ATOM     20  O   UNL     1       4.027   3.454  20.075  0.00  0.00    +0.000 OA
ATOM     21  O   UNL     1       2.510   3.630  18.089  0.00  0.00    +0.000 OA
BRANCH  19  22
ATOM     22  C   UNL     1       4.999   4.429  17.908  0.00  0.00    +0.000 A 
ATOM     23  C   UNL     1       6.168   4.887  18.500  0.00  0.00    +0.000 A 
ATOM     24  F   UNL     1       6.214   5.192  19.803  0.00  0.00    +0.000 F 
ATOM     25  C   UNL     1       7.338   5.029  17.750  0.00  0.00    +0.000 A 
ATOM     26  C   UNL     1       7.342   4.694  16.397  0.00  0.00    +0.000 A 
ATOM     27  C   UNL     1       6.176   4.211  15.806  0.00  0.00    +0.000 A 
ATOM     28  C   UNL     1       5.011   4.077  16.565  0.00  0.00    +0.000 A 
ATOM     29  F   UNL     1       3.930   3.580  15.953  0.00  0.00    +0.000 F 
ENDBRANCH  19  22
ENDBRANCH  10  19
TORSDOF 3
ENDMDL
MODEL 6
REMARK VINA RESULT:      -8.2      5.686      7.039
REMARK  Name = 
REMARK  3 active torsions:
REMARK  status: ('A' for Active; 'I' for Inactive)
REMARK    1  A    between atoms: C_2  and  C_24
REMARK    2  A    between atoms: N_10  and  S_11
REMARK    3  A    between atoms: S_11  and  C_14
REMARK                            x       y       z     vdW  Elec       q    Type
REMARK                         _______ _______ _______ _____ _____    ______ ____
ROOT
ATOM      1  O   UNL     1       0.815  11.684  21.409  0.00  0.00    +0.000 OA
ATOM      2  C   UNL     1       0.722  12.101  20.258  0.00  0.00    +0.000 C 
ATOM      3  N   UNL     1       0.937  11.358  19.112  0.00  0.00    +0.000 N 
ATOM      4  C   UNL     1       1.244  10.027  19.217  0.00  0.00    +0.000 A 
ATOM      5  N   UNL     1       1.104   9.259  20.265  0.00  0.00    +0.000 NA
ATOM      6  C   UNL     1       1.627   8.023  19.997  0.00  0.00    +0.000 A 
ATOM      7  C   UNL     1       2.158   7.853  18.737  0.00  0.00    +0.000 A 
ATOM      8  S   UNL     1       1.909   9.280  17.821  0.00  0.00    +0.000 S 
ATOM      9  C   UNL     1       2.802   6.595  18.237  0.00  0.00    +0.000 C 
ATOM     10  N   UNL     1       3.055   5.661  19.399  0.00  0.00    +0.000 NA
ATOM     11  C   UNL     1       1.889   5.603  20.360  0.00  0.00    +0.000 C 
ATOM     12  C   UNL     1       1.649   6.960  21.026  0.00  0.00    +0.000 C 
ATOM     13  H   UNL     1       1.024  11.792  18.208  0.00  0.00    +0.000 HD
ENDROOT
BRANCH   2  14
ATOM     14  C   UNL     1       0.419  13.510  20.050  0.00  0.00    +0.000 A 
ATOM     15  C   UNL     1       0.047  14.102  18.802  0.00  0.00    +0.000 A 
ATOM     16  C   UNL     1      -0.127  15.444  19.032  0.00  0.00    +0.000 A 
ATOM     17  O   UNL     1       0.110  15.728  20.336  0.00  0.00    +0.000 OA
ATOM     18  C   UNL     1       0.444  14.555  20.947  0.00  0.00    +0.000 A 
ENDBRANCH   2  14
BRANCH  10  19
ATOM     19  S   UNL     1       3.560   4.081  18.935  0.00  0.00    +0.000 S 
ATOM     20  O   UNL     1       3.974   3.369  20.122  0.00  0.00    +0.000 OA
ATOM     21  O   UNL     1       2.492   3.558  18.110  0.00  0.00    +0.000 OA
BRANCH  19  22
ATOM     22  C   UNL     1       4.997   4.316  17.965  0.00  0.00    +0.000 A 
ATOM     23  C   UNL     1       4.956   4.030  16.608  0.00  0.00    +0.000 A 
ATOM     24  F   UNL     1       3.858   3.517  16.038  0.00  0.00    +0.000 F 
ATOM     25  C   UNL     1       6.061   4.284  15.793  0.00  0.00    +0.000 A 
ATOM     26  C   UNL     1       7.215   4.845  16.339  0.00  0.00    +0.000 A 
ATOM     27  C   UNL     1       7.249   5.156  17.697  0.00  0.00    +0.000 A 
ATOM     28  C   UNL     1       6.139   4.894  18.504  0.00  0.00    +0.000 A 
ATOM     29  F   UNL     1       6.218   5.240  19.793  0.00  0.00    +0.000 F 
ENDBRANCH  19  22
ENDBRANCH  10  19
TORSDOF 3
ENDMDL
MODEL 7
REMARK VINA RESULT:      -8.2      6.523      8.039
REMARK  Name = 
REMARK  3 active torsions:
REMARK  status: ('A' for Active; 'I' for Inactive)
REMARK    1  A    between atoms: C_2  and  C_24
REMARK    2  A    between atoms: N_10  and  S_11
REMARK    3  A    between atoms: S_11  and  C_14
REMARK                            x       y       z     vdW  Elec       q    Type
REMARK                         _______ _______ _______ _____ _____    ______ ____
ROOT
ATOM      1  O   UNL     1      -1.559  12.061  19.543  0.00  0.00    +0.000 OA
ATOM      2  C   UNL     1      -1.552  11.901  20.760  0.00  0.00    +0.000 C 
ATOM      3  N   UNL     1      -0.767  10.995  21.449  0.00  0.00    +0.000 N 
ATOM      4  C   UNL     1       0.125  10.214  20.762  0.00  0.00    +0.000 A 
ATOM      5  N   UNL     1       0.552  10.383  19.539  0.00  0.00    +0.000 NA
ATOM      6  C   UNL     1       1.349   9.328  19.185  0.00  0.00    +0.000 A 
ATOM      7  C   UNL     1       1.533   8.362  20.150  0.00  0.00    +0.000 A 
ATOM      8  S   UNL     1       0.741   8.843  21.591  0.00  0.00    +0.000 S 
ATOM      9  C   UNL     1       2.345   7.113  19.974  0.00  0.00    +0.000 C 
ATOM     10  N   UNL     1       2.671   6.926  18.509  0.00  0.00    +0.000 NA
ATOM     11  C   UNL     1       3.083   8.216  17.837  0.00  0.00    +0.000 C 
ATOM     12  C   UNL     1       1.936   9.231  17.830  0.00  0.00    +0.000 C 
ATOM     13  H   UNL     1      -0.933  10.782  22.418  0.00  0.00    +0.000 HD
ENDROOT
BRANCH   2  14
ATOM     14  C   UNL     1      -2.483  12.675  21.569  0.00  0.00    +0.000 A 
ATOM     15  C   UNL     1      -3.441  13.610  21.064  0.00  0.00    +0.000 A 
ATOM     16  C   UNL     1      -4.097  14.136  22.148  0.00  0.00    +0.000 A 
ATOM     17  O   UNL     1      -3.615  13.593  23.293  0.00  0.00    +0.000 OA
ATOM     18  C   UNL     1      -2.635  12.713  22.938  0.00  0.00    +0.000 A 
ENDBRANCH   2  14
BRANCH  10  19
ATOM     19  S   UNL     1       3.808   5.671  18.196  0.00  0.00    +0.000 S 
ATOM     20  O   UNL     1       4.052   5.623  16.773  0.00  0.00    +0.000 OA
ATOM     21  O   UNL     1       4.903   5.900  19.114  0.00  0.00    +0.000 OA
BRANCH  19  22
ATOM     22  C   UNL     1       2.987   4.182  18.613  0.00  0.00    +0.000 A 
ATOM     23  C   UNL     1       1.704   3.957  18.135  0.00  0.00    +0.000 A 
ATOM     24  F   UNL     1       1.056   4.883  17.416  0.00  0.00    +0.000 F 
ATOM     25  C   UNL     1       1.055   2.745  18.382  0.00  0.00    +0.000 A 
ATOM     26  C   UNL     1       1.703   1.743  19.102  0.00  0.00    +0.000 A 
ATOM     27  C   UNL     1       3.001   1.958  19.561  0.00  0.00    +0.000 A 
ATOM     28  C   UNL     1       3.639   3.175  19.311  0.00  0.00    +0.000 A 
ATOM     29  F   UNL     1       4.895   3.315  19.750  0.00  0.00    +0.000 F 
ENDBRANCH  19  22
ENDBRANCH  10  19
TORSDOF 3
ENDMDL
MODEL 8
REMARK VINA RESULT:      -8.1      5.807      8.080
REMARK  Name = 
REMARK  3 active torsions:
REMARK  status: ('A' for Active; 'I' for Inactive)
REMARK    1  A    between atoms: C_2  and  C_24
REMARK    2  A    between atoms: N_10  and  S_11
REMARK    3  A    between atoms: S_11  and  C_14
REMARK                            x       y       z     vdW  Elec       q    Type
REMARK                         _______ _______ _______ _____ _____    ______ ____
ROOT
ATOM      1  O   UNL     1      -0.913  10.624  17.811  0.00  0.00    +0.000 OA
ATOM      2  C   UNL     1      -1.090  10.755  19.019  0.00  0.00    +0.000 C 
ATOM      3  N   UNL     1      -0.375  10.113  20.012  0.00  0.00    +0.000 N 
ATOM      4  C   UNL     1       0.658   9.280  19.671  0.00  0.00    +0.000 A 
ATOM      5  N   UNL     1       1.264   9.197  18.516  0.00  0.00    +0.000 NA
ATOM      6  C   UNL     1       2.166   8.168  18.548  0.00  0.00    +0.000 A 
ATOM      7  C   UNL     1       2.249   7.476  19.736  0.00  0.00    +0.000 A 
ATOM      8  S   UNL     1       1.212   8.205  20.889  0.00  0.00    +0.000 S 
ATOM      9  C   UNL     1       3.148   6.302  19.988  0.00  0.00    +0.000 C 
ATOM     10  N   UNL     1       3.713   5.809  18.675  0.00  0.00    +0.000 NA
ATOM     11  C   UNL     1       4.152   6.939  17.771  0.00  0.00    +0.000 C 
ATOM     12  C   UNL     1       2.966   7.811  17.355  0.00  0.00    +0.000 C 
ATOM     13  H   UNL     1      -0.679  10.118  20.971  0.00  0.00    +0.000 HD
ENDROOT
BRANCH   2  14
ATOM     14  C   UNL     1      -2.180  11.606  19.474  0.00  0.00    +0.000 A 
ATOM     15  C   UNL     1      -2.175  12.389  20.671  0.00  0.00    +0.000 A 
ATOM     16  C   UNL     1      -3.392  13.021  20.741  0.00  0.00    +0.000 A 
ATOM     17  O   UNL     1      -4.153  12.685  19.671  0.00  0.00    +0.000 OA
ATOM     18  C   UNL     1      -3.418  11.825  18.910  0.00  0.00    +0.000 A 
ENDBRANCH   2  14
BRANCH  10  19
ATOM     19  S   UNL     1       4.955   4.627  18.843  0.00  0.00    +0.000 S 
ATOM     20  O   UNL     1       5.986   5.169  19.697  0.00  0.00    +0.000 OA
ATOM     21  O   UNL     1       4.279   3.401  19.207  0.00  0.00    +0.000 OA
BRANCH  19  22
ATOM     22  C   UNL     1       5.661   4.462  17.250  0.00  0.00    +0.000 A 
ATOM     23  C   UNL     1       4.865   4.045  16.192  0.00  0.00    +0.000 A 
ATOM     24  F   UNL     1       3.583   3.704  16.379  0.00  0.00    +0.000 F 
ATOM     25  C   UNL     1       5.379   3.983  14.895  0.00  0.00    +0.000 A 
ATOM     26  C   UNL     1       6.699   4.357  14.651  0.00  0.00    +0.000 A 
ATOM     27  C   UNL     1       7.493   4.800  15.708  0.00  0.00    +0.000 A 
ATOM     28  C   UNL     1       6.970   4.855  17.001  0.00  0.00    +0.000 A 
ATOM     29  F   UNL     1       7.767   5.316  17.971  0.00  0.00    +0.000 F 
ENDBRANCH  19  22
ENDBRANCH  10  19
TORSDOF 3
ENDMDL
MODEL 9
REMARK VINA RESULT:      -7.9      5.981      8.038
REMARK  Name = 
REMARK  3 active torsions:
REMARK  status: ('A' for Active; 'I' for Inactive)
REMARK    1  A    between atoms: C_2  and  C_24
REMARK    2  A    between atoms: N_10  and  S_11
REMARK    3  A    between atoms: S_11  and  C_14
REMARK                            x       y       z     vdW  Elec       q    Type
REMARK                         _______ _______ _______ _____ _____    ______ ____
ROOT
ATOM      1  O   UNL     1      -0.994  10.958  18.081  0.00  0.00    +0.000 OA
ATOM      2  C   UNL     1      -1.163  11.041  19.294  0.00  0.00    +0.000 C 
ATOM      3  N   UNL     1      -0.464  10.337  20.256  0.00  0.00    +0.000 N 
ATOM      4  C   UNL     1       0.543   9.489  19.874  0.00  0.00    +0.000 A 
ATOM      5  N   UNL     1       1.142   9.438  18.714  0.00  0.00    +0.000 NA
ATOM      6  C   UNL     1       2.013   8.383  18.698  0.00  0.00    +0.000 A 
ATOM      7  C   UNL     1       2.080   7.638  19.855  0.00  0.00    +0.000 A 
ATOM      8  S   UNL     1       1.069   8.347  21.043  0.00  0.00    +0.000 S 
ATOM      9  C   UNL     1       2.945   6.429  20.051  0.00  0.00    +0.000 C 
ATOM     10  N   UNL     1       3.491   5.976  18.716  0.00  0.00    +0.000 NA
ATOM     11  C   UNL     1       3.960   7.131  17.860  0.00  0.00    +0.000 C 
ATOM     12  C   UNL     1       2.798   8.055  17.486  0.00  0.00    +0.000 C 
ATOM     13  H   UNL     1      -0.765  10.309  21.215  0.00  0.00    +0.000 HD
ENDROOT
BRANCH   2  14
ATOM     14  C   UNL     1      -2.226  11.904  19.790  0.00  0.00    +0.000 A 
ATOM     15  C   UNL     1      -2.155  12.713  20.968  0.00  0.00    +0.000 A 
ATOM     16  C   UNL     1      -3.365  13.348  21.092  0.00  0.00    +0.000 A 
ATOM     17  O   UNL     1      -4.185  12.989  20.073  0.00  0.00    +0.000 OA
ATOM     18  C   UNL     1      -3.493  12.112  19.291  0.00  0.00    +0.000 A 
ENDBRANCH   2  14
BRANCH  10  19
ATOM     19  S   UNL     1       4.698   4.752  18.827  0.00  0.00    +0.000 S 
ATOM     20  O   UNL     1       5.717   5.201  19.747  0.00  0.00    +0.000 OA
ATOM     21  O   UNL     1       3.981   3.521  19.080  0.00  0.00    +0.000 OA
BRANCH  19  22
ATOM     22  C   UNL     1       5.445   4.688  17.246  0.00  0.00    +0.000 A 
ATOM     23  C   UNL     1       6.772   5.069  17.105  0.00  0.00    +0.000 A 
ATOM     24  F   UNL     1       7.473   5.545  18.142  0.00  0.00    +0.000 F 
ATOM     25  C   UNL     1       7.420   4.951  15.873  0.00  0.00    +0.000 A 
ATOM     26  C   UNL     1       6.736   4.433  14.774  0.00  0.00    +0.000 A 
ATOM     27  C   UNL     1       5.411   4.027  14.920  0.00  0.00    +0.000 A 
ATOM     28  C   UNL     1       4.773   4.153  16.156  0.00  0.00    +0.000 A 
ATOM     29  F   UNL     1       3.510   3.720  16.245  0.00  0.00    +0.000 F 
ENDBRANCH  19  22
ENDBRANCH  10  19
TORSDOF 3
ENDMDL
