MODEL 1
REMARK VINA RESULT:      -8.1      0.000      0.000
REMARK  Name = 
REMARK  8 active torsions:
REMARK  status: ('A' for Active; 'I' for Inactive)
REMARK    1  A    between atoms: C_1  and  N_2
REMARK    2  A    between atoms: N_2  and  C_3
REMARK    3  A    between atoms: C_6  and  O_7
REMARK    4  A    between atoms: O_7  and  C_8
REMARK    5  A    between atoms: C_8  and  C_9
REMARK    6  A    between atoms: C_9  and  O_10
REMARK    7  A    between atoms: C_9  and  C_11
REMARK    8  A    between atoms: C_9  and  C_17
REMARK                            x       y       z     vdW  Elec       q    Type
REMARK                         _______ _______ _______ _____ _____    ______ ____
ROOT
ATOM      1  C   UNL     1       5.575   5.148  16.068  0.00  0.00    +0.000 C 
ENDROOT
BRANCH   1   2
ATOM      2  C   UNL     1       6.559   5.780  17.076  0.00  0.00    +0.000 A 
ATOM      3  C   UNL     1       7.202   5.047  18.102  0.00  0.00    +0.000 A 
ATOM      4  C   UNL     1       8.088   5.680  18.984  0.00  0.00    +0.000 A 
ATOM      5  C   UNL     1       8.352   7.045  18.866  0.00  0.00    +0.000 A 
ATOM      6  C   UNL     1       7.747   7.781  17.853  0.00  0.00    +0.000 A 
ATOM      7  C   UNL     1       6.865   7.159  16.969  0.00  0.00    +0.000 A 
ENDBRANCH   1   2
BRANCH   1   8
ATOM      8  C   UNL     1       6.183   4.739  14.703  0.00  0.00    +0.000 A 
ATOM      9  C   UNL     1       7.365   5.355  14.220  0.00  0.00    +0.000 A 
ATOM     10  C   UNL     1       7.862   5.063  12.947  0.00  0.00    +0.000 A 
ATOM     11  C   UNL     1       7.195   4.159  12.124  0.00  0.00    +0.000 A 
ATOM     12  C   UNL     1       6.035   3.530  12.578  0.00  0.00    +0.000 A 
ATOM     13  C   UNL     1       5.533   3.811  13.855  0.00  0.00    +0.000 A 
ENDBRANCH   1   8
BRANCH   1  14
ATOM     14  O   UNL     1       4.556   6.095  15.813  0.00  0.00    +0.000 OA
ATOM     15  H   UNL     1       4.646   6.446  14.891  0.00  0.00    +0.000 HD
ENDBRANCH   1  14
BRANCH   1  16
ATOM     16  C   UNL     1       4.952   3.835  16.641  0.00  0.00    +0.000 C 
BRANCH  16  17
ATOM     17  O   UNL     1       3.539   3.835  16.579  0.00  0.00    +0.000 OA
BRANCH  17  23
ATOM     18  C   UNL     1       1.469   2.624  21.703  0.00  0.00    +0.000 C 
ATOM     19  N   UNL     1       2.029   3.345  20.535  0.00  0.00    +0.000 N 
ATOM     20  C   UNL     1       2.186   4.770  20.929  0.00  0.00    +0.000 C 
ATOM     21  C   UNL     1       3.338   2.726  20.171  0.00  0.00    +0.000 C 
ATOM     22  C   UNL     1       3.936   3.308  18.872  0.00  0.00    +0.000 C 
ATOM     23  C   UNL     1       2.953   3.176  17.695  0.00  0.00    +0.000 C 
ATOM     24  C   UNL     1       1.600   3.805  18.096  0.00  0.00    +0.000 C 
ATOM     25  C   UNL     1       1.072   3.198  19.405  0.00  0.00    +0.000 C 
ENDBRANCH  17  23
ENDBRANCH  16  17
ENDBRANCH   1  16
TORSDOF 6
ENDMDL
MODEL 2
REMARK VINA RESULT:      -7.9      0.349      1.045
REMARK  Name = 
REMARK  8 active torsions:
REMARK  status: ('A' for Active; 'I' for Inactive)
REMARK    1  A    between atoms: C_1  and  N_2
REMARK    2  A    between atoms: N_2  and  C_3
REMARK    3  A    between atoms: C_6  and  O_7
REMARK    4  A    between atoms: O_7  and  C_8
REMARK    5  A    between atoms: C_8  and  C_9
REMARK    6  A    between atoms: C_9  and  O_10
REMARK    7  A    between atoms: C_9  and  C_11
REMARK    8  A    between atoms: C_9  and  C_17
REMARK                            x       y       z     vdW  Elec       q    Type
REMARK                         _______ _______ _______ _____ _____    ______ ____
ROOT
ATOM      1  C   UNL     1       5.672   5.138  15.975  0.00  0.00    +0.000 C 
ENDROOT
BRANCH   1   2
ATOM      2  C   UNL     1       6.625   5.802  16.992  0.00  0.00    +0.000 A 
ATOM      3  C   UNL     1       6.921   7.186  16.995  0.00  0.00    +0.000 A 
ATOM      4  C   UNL     1       7.794   7.727  17.948  0.00  0.00    +0.000 A 
ATOM      5  C   UNL     1       8.387   6.911  18.912  0.00  0.00    +0.000 A 
ATOM      6  C   UNL     1       8.095   5.551  18.940  0.00  0.00    +0.000 A 
ATOM      7  C   UNL     1       7.226   5.004  17.996  0.00  0.00    +0.000 A 
ENDBRANCH   1   2
BRANCH   1   8
ATOM      8  C   UNL     1       6.303   4.766  14.610  0.00  0.00    +0.000 A 
ATOM      9  C   UNL     1       7.452   5.444  14.131  0.00  0.00    +0.000 A 
ATOM     10  C   UNL     1       7.965   5.183  12.857  0.00  0.00    +0.000 A 
ATOM     11  C   UNL     1       7.346   4.249  12.030  0.00  0.00    +0.000 A 
ATOM     12  C   UNL     1       6.220   3.560  12.479  0.00  0.00    +0.000 A 
ATOM     13  C   UNL     1       5.702   3.810  13.756  0.00  0.00    +0.000 A 
ENDBRANCH   1   8
BRANCH   1  14
ATOM     14  O   UNL     1       4.616   6.044  15.723  0.00  0.00    +0.000 OA
ATOM     15  H   UNL     1       4.980   6.899  15.381  0.00  0.00    +0.000 HD
ENDBRANCH   1  14
BRANCH   1  16
ATOM     16  C   UNL     1       5.102   3.795  16.535  0.00  0.00    +0.000 C 
BRANCH  16  17
ATOM     17  O   UNL     1       3.693   3.814  16.652  0.00  0.00    +0.000 OA
BRANCH  17  23
ATOM     18  C   UNL     1       1.440   2.607  21.699  0.00  0.00    +0.000 C 
ATOM     19  N   UNL     1       1.850   3.315  20.463  0.00  0.00    +0.000 N 
ATOM     20  C   UNL     1       1.335   4.707  20.560  0.00  0.00    +0.000 C 
ATOM     21  C   UNL     1       3.339   3.283  20.363  0.00  0.00    +0.000 C 
ATOM     22  C   UNL     1       3.863   3.865  19.032  0.00  0.00    +0.000 C 
ATOM     23  C   UNL     1       3.244   3.142  17.822  0.00  0.00    +0.000 C 
ATOM     24  C   UNL     1       1.704   3.169  17.953  0.00  0.00    +0.000 C 
ATOM     25  C   UNL     1       1.252   2.596  19.305  0.00  0.00    +0.000 C 
ENDBRANCH  17  23
ENDBRANCH  16  17
ENDBRANCH   1  16
TORSDOF 6
ENDMDL
MODEL 3
REMARK VINA RESULT:      -7.9      0.766      1.606
REMARK  Name = 
REMARK  8 active torsions:
REMARK  status: ('A' for Active; 'I' for Inactive)
REMARK    1  A    between atoms: C_1  and  N_2
REMARK    2  A    between atoms: N_2  and  C_3
REMARK    3  A    between atoms: C_6  and  O_7
REMARK    4  A    between atoms: O_7  and  C_8
REMARK    5  A    between atoms: C_8  and  C_9
REMARK    6  A    between atoms: C_9  and  O_10
REMARK    7  A    between atoms: C_9  and  C_11
REMARK    8  A    between atoms: C_9  and  C_17
REMARK                            x       y       z     vdW  Elec       q    Type
REMARK                         _______ _______ _______ _____ _____    ______ ____
ROOT
ATOM      1  C   UNL     1       5.568   5.748  15.840  0.00  0.00    +0.000 C 
ENDROOT
BRANCH   1   2
ATOM      2  C   UNL     1       6.577   6.129  16.946  0.00  0.00    +0.000 A 
ATOM      3  C   UNL     1       7.091   7.437  17.115  0.00  0.00    +0.000 A 
ATOM      4  C   UNL     1       8.002   7.718  18.141  0.00  0.00    +0.000 A 
ATOM      5  C   UNL     1       8.420   6.714  19.015  0.00  0.00    +0.000 A 
ATOM      6  C   UNL     1       7.913   5.426  18.879  0.00  0.00    +0.000 A 
ATOM      7  C   UNL     1       7.003   5.137  17.861  0.00  0.00    +0.000 A 
ENDBRANCH   1   2
BRANCH   1   8
ATOM      8  C   UNL     1       6.171   5.052  14.594  0.00  0.00    +0.000 A 
ATOM      9  C   UNL     1       7.391   5.501  14.030  0.00  0.00    +0.000 A 
ATOM     10  C   UNL     1       7.888   4.942  12.848  0.00  0.00    +0.000 A 
ATOM     11  C   UNL     1       7.183   3.931  12.200  0.00  0.00    +0.000 A 
ATOM     12  C   UNL     1       5.984   3.463  12.739  0.00  0.00    +0.000 A 
ATOM     13  C   UNL     1       5.482   4.012  13.925  0.00  0.00    +0.000 A 
ENDBRANCH   1   8
BRANCH   1  14
ATOM     14  O   UNL     1       4.943   6.938  15.401  0.00  0.00    +0.000 OA
ATOM     15  H   UNL     1       5.052   7.646  16.084  0.00  0.00    +0.000 HD
ENDBRANCH   1  14
BRANCH   1  16
ATOM     16  C   UNL     1       4.495   4.749  16.381  0.00  0.00    +0.000 C 
BRANCH  16  17
ATOM     17  O   UNL     1       3.537   5.381  17.206  0.00  0.00    +0.000 OA
BRANCH  17  23
ATOM     18  C   UNL     1       1.766   2.561  21.780  0.00  0.00    +0.000 C 
ATOM     19  N   UNL     1       1.856   3.136  20.417  0.00  0.00    +0.000 N 
ATOM     20  C   UNL     1       0.644   2.702  19.673  0.00  0.00    +0.000 C 
ATOM     21  C   UNL     1       1.933   4.623  20.527  0.00  0.00    +0.000 C 
ATOM     22  C   UNL     1       2.181   5.313  19.168  0.00  0.00    +0.000 C 
ATOM     23  C   UNL     1       3.454   4.775  18.491  0.00  0.00    +0.000 C 
ATOM     24  C   UNL     1       3.364   3.235  18.401  0.00  0.00    +0.000 C 
ATOM     25  C   UNL     1       3.097   2.614  19.782  0.00  0.00    +0.000 C 
ENDBRANCH  17  23
ENDBRANCH  16  17
ENDBRANCH   1  16
TORSDOF 6
ENDMDL
MODEL 4
REMARK VINA RESULT:      -7.8      1.044      4.284
REMARK  Name = 
REMARK  8 active torsions:
REMARK  status: ('A' for Active; 'I' for Inactive)
REMARK    1  A    between atoms: C_1  and  N_2
REMARK    2  A    between atoms: N_2  and  C_3
REMARK    3  A    between atoms: C_6  and  O_7
REMARK    4  A    between atoms: O_7  and  C_8
REMARK    5  A    between atoms: C_8  and  C_9
REMARK    6  A    between atoms: C_9  and  O_10
REMARK    7  A    between atoms: C_9  and  C_11
REMARK    8  A    between atoms: C_9  and  C_17
REMARK                            x       y       z     vdW  Elec       q    Type
REMARK                         _______ _______ _______ _____ _____    ______ ____
ROOT
ATOM      1  C   UNL     1       5.881   4.671  16.094  0.00  0.00    +0.000 C 
ENDROOT
BRANCH   1   2
ATOM      2  C   UNL     1       6.344   4.537  14.627  0.00  0.00    +0.000 A 
ATOM      3  C   UNL     1       7.450   5.237  14.091  0.00  0.00    +0.000 A 
ATOM      4  C   UNL     1       7.821   5.069  12.750  0.00  0.00    +0.000 A 
ATOM      5  C   UNL     1       7.105   4.208  11.919  0.00  0.00    +0.000 A 
ATOM      6  C   UNL     1       6.026   3.493  12.430  0.00  0.00    +0.000 A 
ATOM      7  C   UNL     1       5.651   3.653  13.763  0.00  0.00    +0.000 A 
ENDBRANCH   1   2
BRANCH   1   8
ATOM      8  C   UNL     1       6.776   5.552  17.001  0.00  0.00    +0.000 A 
ATOM      9  C   UNL     1       7.339   5.031  18.193  0.00  0.00    +0.000 A 
ATOM     10  C   UNL     1       8.063   5.848  19.066  0.00  0.00    +0.000 A 
ATOM     11  C   UNL     1       8.239   7.199  18.778  0.00  0.00    +0.000 A 
ATOM     12  C   UNL     1       7.706   7.736  17.607  0.00  0.00    +0.000 A 
ATOM     13  C   UNL     1       6.984   6.924  16.723  0.00  0.00    +0.000 A 
ENDBRANCH   1   8
BRANCH   1  14
ATOM     14  O   UNL     1       5.853   3.373  16.655  0.00  0.00    +0.000 OA
ATOM     15  H   UNL     1       5.325   2.768  16.076  0.00  0.00    +0.000 HD
ENDBRANCH   1  14
BRANCH   1  16
ATOM     16  C   UNL     1       4.462   5.319  16.176  0.00  0.00    +0.000 C 
BRANCH  16  17
ATOM     17  O   UNL     1       4.322   6.172  17.296  0.00  0.00    +0.000 OA
BRANCH  17  23
ATOM     18  C   UNL     1       1.079   3.037  20.710  0.00  0.00    +0.000 C 
ATOM     19  N   UNL     1       2.179   3.498  19.830  0.00  0.00    +0.000 N 
ATOM     20  C   UNL     1       3.161   2.385  19.733  0.00  0.00    +0.000 C 
ATOM     21  C   UNL     1       1.611   3.852  18.496  0.00  0.00    +0.000 C 
ATOM     22  C   UNL     1       2.654   4.485  17.550  0.00  0.00    +0.000 C 
ATOM     23  C   UNL     1       3.304   5.727  18.184  0.00  0.00    +0.000 C 
ATOM     24  C   UNL     1       3.870   5.347  19.571  0.00  0.00    +0.000 C 
ATOM     25  C   UNL     1       2.788   4.704  20.454  0.00  0.00    +0.000 C 
ENDBRANCH  17  23
ENDBRANCH  16  17
ENDBRANCH   1  16
TORSDOF 6
ENDMDL
MODEL 5
REMARK VINA RESULT:      -7.7      1.007      4.182
REMARK  Name = 
REMARK  8 active torsions:
REMARK  status: ('A' for Active; 'I' for Inactive)
REMARK    1  A    between atoms: C_1  and  N_2
REMARK    2  A    between atoms: N_2  and  C_3
REMARK    3  A    between atoms: C_6  and  O_7
REMARK    4  A    between atoms: O_7  and  C_8
REMARK    5  A    between atoms: C_8  and  C_9
REMARK    6  A    between atoms: C_9  and  O_10
REMARK    7  A    between atoms: C_9  and  C_11
REMARK    8  A    between atoms: C_9  and  C_17
REMARK                            x       y       z     vdW  Elec       q    Type
REMARK                         _______ _______ _______ _____ _____    ______ ____
ROOT
ATOM      1  C   UNL     1       5.828   4.521  16.020  0.00  0.00    +0.000 C 
ENDROOT
BRANCH   1   2
ATOM      2  C   UNL     1       6.349   4.496  14.567  0.00  0.00    +0.000 A 
ATOM      3  C   UNL     1       7.443   5.272  14.117  0.00  0.00    +0.000 A 
ATOM      4  C   UNL     1       7.870   5.201  12.785  0.00  0.00    +0.000 A 
ATOM      5  C   UNL     1       7.222   4.364  11.876  0.00  0.00    +0.000 A 
ATOM      6  C   UNL     1       6.156   3.577  12.301  0.00  0.00    +0.000 A 
ATOM      7  C   UNL     1       5.726   3.640  13.626  0.00  0.00    +0.000 A 
ENDBRANCH   1   2
BRANCH   1   8
ATOM      8  C   UNL     1       6.594   5.454  16.991  0.00  0.00    +0.000 A 
ATOM      9  C   UNL     1       6.816   6.816  16.667  0.00  0.00    +0.000 A 
ATOM     10  C   UNL     1       7.592   7.637  17.491  0.00  0.00    +0.000 A 
ATOM     11  C   UNL     1       8.169   7.122  18.649  0.00  0.00    +0.000 A 
ATOM     12  C   UNL     1       7.959   5.787  18.997  0.00  0.00    +0.000 A 
ATOM     13  C   UNL     1       7.177   4.960  18.182  0.00  0.00    +0.000 A 
ENDBRANCH   1   8
BRANCH   1  14
ATOM     14  O   UNL     1       5.920   3.206  16.532  0.00  0.00    +0.000 OA
ATOM     15  H   UNL     1       6.861   3.001  16.763  0.00  0.00    +0.000 HD
ENDBRANCH   1  14
BRANCH   1  16
ATOM     16  C   UNL     1       4.345   5.013  16.075  0.00  0.00    +0.000 C 
BRANCH  16  17
ATOM     17  O   UNL     1       4.130   5.965  17.097  0.00  0.00    +0.000 OA
BRANCH  17  23
ATOM     18  C   UNL     1       1.216   3.036  20.962  0.00  0.00    +0.000 C 
ATOM     19  N   UNL     1       2.279   3.493  20.036  0.00  0.00    +0.000 N 
ATOM     20  C   UNL     1       3.418   2.545  20.168  0.00  0.00    +0.000 C 
ATOM     21  C   UNL     1       1.733   3.510  18.647  0.00  0.00    +0.000 C 
ATOM     22  C   UNL     1       2.717   4.115  17.623  0.00  0.00    +0.000 C 
ATOM     23  C   UNL     1       3.145   5.537  18.030  0.00  0.00    +0.000 C 
ATOM     24  C   UNL     1       3.691   5.503  19.476  0.00  0.00    +0.000 C 
ATOM     25  C   UNL     1       2.673   4.872  20.438  0.00  0.00    +0.000 C 
ENDBRANCH  17  23
ENDBRANCH  16  17
ENDBRANCH   1  16
TORSDOF 6
ENDMDL
MODEL 6
REMARK VINA RESULT:      -7.7      0.674      1.463
REMARK  Name = 
REMARK  8 active torsions:
REMARK  status: ('A' for Active; 'I' for Inactive)
REMARK    1  A    between atoms: C_1  and  N_2
REMARK    2  A    between atoms: N_2  and  C_3
REMARK    3  A    between atoms: C_6  and  O_7
REMARK    4  A    between atoms: O_7  and  C_8
REMARK    5  A    between atoms: C_8  and  C_9
REMARK    6  A    between atoms: C_9  and  O_10
REMARK    7  A    between atoms: C_9  and  C_11
REMARK    8  A    between atoms: C_9  and  C_17
REMARK                            x       y       z     vdW  Elec       q    Type
REMARK                         _______ _______ _______ _____ _____    ______ ____
ROOT
ATOM      1  C   UNL     1       5.565   5.292  15.908  0.00  0.00    +0.000 C 
ENDROOT
BRANCH   1   2
ATOM      2  C   UNL     1       6.545   5.868  16.953  0.00  0.00    +0.000 A 
ATOM      3  C   UNL     1       6.927   7.230  16.996  0.00  0.00    +0.000 A 
ATOM      4  C   UNL     1       7.820   7.691  17.973  0.00  0.00    +0.000 A 
ATOM      5  C   UNL     1       8.350   6.814  18.920  0.00  0.00    +0.000 A 
ATOM      6  C   UNL     1       7.973   5.474  18.908  0.00  0.00    +0.000 A 
ATOM      7  C   UNL     1       7.084   5.008  17.941  0.00  0.00    +0.000 A 
ENDBRANCH   1   2
BRANCH   1   8
ATOM      8  C   UNL     1       6.205   4.814  14.580  0.00  0.00    +0.000 A 
ATOM      9  C   UNL     1       7.380   5.427  14.078  0.00  0.00    +0.000 A 
ATOM     10  C   UNL     1       7.905   5.069  12.832  0.00  0.00    +0.000 A 
ATOM     11  C   UNL     1       7.272   4.100  12.057  0.00  0.00    +0.000 A 
ATOM     12  C   UNL     1       6.120   3.473  12.532  0.00  0.00    +0.000 A 
ATOM     13  C   UNL     1       5.591   3.820  13.781  0.00  0.00    +0.000 A 
ENDBRANCH   1   8
BRANCH   1  14
ATOM     14  O   UNL     1       4.633   6.306  15.590  0.00  0.00    +0.000 OA
ATOM     15  H   UNL     1       5.011   6.906  14.899  0.00  0.00    +0.000 HD
ENDBRANCH   1  14
BRANCH   1  16
ATOM     16  C   UNL     1       4.820   4.038  16.470  0.00  0.00    +0.000 C 
BRANCH  16  17
ATOM     17  O   UNL     1       3.416   4.137  16.331  0.00  0.00    +0.000 OA
BRANCH  17  23
ATOM     18  C   UNL     1       2.066   2.596  21.604  0.00  0.00    +0.000 C 
ATOM     19  N   UNL     1       2.808   2.833  20.343  0.00  0.00    +0.000 N 
ATOM     20  C   UNL     1       4.188   2.313  20.538  0.00  0.00    +0.000 C 
ATOM     21  C   UNL     1       2.104   2.128  19.231  0.00  0.00    +0.000 C 
ATOM     22  C   UNL     1       2.714   2.433  17.846  0.00  0.00    +0.000 C 
ATOM     23  C   UNL     1       2.740   3.947  17.567  0.00  0.00    +0.000 C 
ATOM     24  C   UNL     1       3.456   4.662  18.736  0.00  0.00    +0.000 C 
ATOM     25  C   UNL     1       2.814   4.299  20.084  0.00  0.00    +0.000 C 
ENDBRANCH  17  23
ENDBRANCH  16  17
ENDBRANCH   1  16
TORSDOF 6
ENDMDL
MODEL 7
REMARK VINA RESULT:      -7.6      0.848      4.094
REMARK  Name = 
REMARK  8 active torsions:
REMARK  status: ('A' for Active; 'I' for Inactive)
REMARK    1  A    between atoms: C_1  and  N_2
REMARK    2  A    between atoms: N_2  and  C_3
REMARK    3  A    between atoms: C_6  and  O_7
REMARK    4  A    between atoms: O_7  and  C_8
REMARK    5  A    between atoms: C_8  and  C_9
REMARK    6  A    between atoms: C_9  and  O_10
REMARK    7  A    between atoms: C_9  and  C_11
REMARK    8  A    between atoms: C_9  and  C_17
REMARK                            x       y       z     vdW  Elec       q    Type
REMARK                         _______ _______ _______ _____ _____    ______ ____
ROOT
ATOM      1  C   UNL     1       5.921   4.506  16.152  0.00  0.00    +0.000 C 
ENDROOT
BRANCH   1   2
ATOM      2  C   UNL     1       6.313   4.410  14.661  0.00  0.00    +0.000 A 
ATOM      3  C   UNL     1       5.623   3.606  13.723  0.00  0.00    +0.000 A 
ATOM      4  C   UNL     1       6.028   3.565  12.383  0.00  0.00    +0.000 A 
ATOM      5  C   UNL     1       7.121   4.315  11.948  0.00  0.00    +0.000 A 
ATOM      6  C   UNL     1       7.803   5.127  12.849  0.00  0.00    +0.000 A 
ATOM      7  C   UNL     1       7.405   5.176  14.185  0.00  0.00    +0.000 A 
ENDBRANCH   1   2
BRANCH   1   8
ATOM      8  C   UNL     1       6.784   5.463  17.011  0.00  0.00    +0.000 A 
ATOM      9  C   UNL     1       7.427   5.004  18.187  0.00  0.00    +0.000 A 
ATOM     10  C   UNL     1       8.124   5.885  19.020  0.00  0.00    +0.000 A 
ATOM     11  C   UNL     1       8.191   7.240  18.707  0.00  0.00    +0.000 A 
ATOM     12  C   UNL     1       7.575   7.718  17.550  0.00  0.00    +0.000 A 
ATOM     13  C   UNL     1       6.881   6.842  16.706  0.00  0.00    +0.000 A 
ENDBRANCH   1   8
BRANCH   1  14
ATOM     14  O   UNL     1       6.037   3.212  16.710  0.00  0.00    +0.000 OA
ATOM     15  H   UNL     1       5.328   2.624  16.345  0.00  0.00    +0.000 HD
ENDBRANCH   1  14
BRANCH   1  16
ATOM     16  C   UNL     1       4.457   5.028  16.313  0.00  0.00    +0.000 C 
BRANCH  16  17
ATOM     17  O   UNL     1       3.509   3.979  16.333  0.00  0.00    +0.000 OA
BRANCH  17  23
ATOM     18  C   UNL     1       1.745   2.960  21.611  0.00  0.00    +0.000 C 
ATOM     19  N   UNL     1       2.565   3.020  20.377  0.00  0.00    +0.000 N 
ATOM     20  C   UNL     1       3.856   2.341  20.672  0.00  0.00    +0.000 C 
ATOM     21  C   UNL     1       1.823   2.341  19.274  0.00  0.00    +0.000 C 
ATOM     22  C   UNL     1       2.526   2.478  17.906  0.00  0.00    +0.000 C 
ATOM     23  C   UNL     1       2.762   3.955  17.543  0.00  0.00    +0.000 C 
ATOM     24  C   UNL     1       3.514   4.646  18.703  0.00  0.00    +0.000 C 
ATOM     25  C   UNL     1       2.773   4.454  20.036  0.00  0.00    +0.000 C 
ENDBRANCH  17  23
ENDBRANCH  16  17
ENDBRANCH   1  16
TORSDOF 6
ENDMDL
MODEL 8
REMARK VINA RESULT:      -7.5      1.011      4.134
REMARK  Name = 
REMARK  8 active torsions:
REMARK  status: ('A' for Active; 'I' for Inactive)
REMARK    1  A    between atoms: C_1  and  N_2
REMARK    2  A    between atoms: N_2  and  C_3
REMARK    3  A    between atoms: C_6  and  O_7
REMARK    4  A    between atoms: O_7  and  C_8
REMARK    5  A    between atoms: C_8  and  C_9
REMARK    6  A    between atoms: C_9  and  O_10
REMARK    7  A    between atoms: C_9  and  C_11
REMARK    8  A    between atoms: C_9  and  C_17
REMARK                            x       y       z     vdW  Elec       q    Type
REMARK                         _______ _______ _______ _____ _____    ______ ____
ROOT
ATOM      1  C   UNL     1       5.746   4.586  16.134  0.00  0.00    +0.000 C 
ENDROOT
BRANCH   1   2
ATOM      2  C   UNL     1       6.245   4.491  14.676  0.00  0.00    +0.000 A 
ATOM      3  C   UNL     1       5.604   3.716  13.681  0.00  0.00    +0.000 A 
ATOM      4  C   UNL     1       6.106   3.674  12.373  0.00  0.00    +0.000 A 
ATOM      5  C   UNL     1       7.249   4.397  12.029  0.00  0.00    +0.000 A 
ATOM      6  C   UNL     1       7.885   5.181  12.986  0.00  0.00    +0.000 A 
ATOM      7  C   UNL     1       7.391   5.230  14.290  0.00  0.00    +0.000 A 
ENDBRANCH   1   2
BRANCH   1   8
ATOM      8  C   UNL     1       6.558   5.526  17.060  0.00  0.00    +0.000 A 
ATOM      9  C   UNL     1       6.762   6.886  16.718  0.00  0.00    +0.000 A 
ATOM     10  C   UNL     1       7.577   7.712  17.498  0.00  0.00    +0.000 A 
ATOM     11  C   UNL     1       8.211   7.205  18.629  0.00  0.00    +0.000 A 
ATOM     12  C   UNL     1       8.020   5.872  18.995  0.00  0.00    +0.000 A 
ATOM     13  C   UNL     1       7.200   5.039  18.224  0.00  0.00    +0.000 A 
ENDBRANCH   1   8
BRANCH   1  14
ATOM     14  O   UNL     1       5.801   3.288  16.691  0.00  0.00    +0.000 OA
ATOM     15  H   UNL     1       6.744   3.030  16.850  0.00  0.00    +0.000 HD
ENDBRANCH   1  14
BRANCH   1  16
ATOM     16  C   UNL     1       4.282   5.130  16.191  0.00  0.00    +0.000 C 
BRANCH  16  17
ATOM     17  O   UNL     1       4.100   6.081  17.221  0.00  0.00    +0.000 OA
BRANCH  17  23
ATOM     18  C   UNL     1       1.076   3.073  20.937  0.00  0.00    +0.000 C 
ATOM     19  N   UNL     1       2.131   3.510  19.992  0.00  0.00    +0.000 N 
ATOM     20  C   UNL     1       3.147   2.425  19.932  0.00  0.00    +0.000 C 
ATOM     21  C   UNL     1       1.509   3.758  18.659  0.00  0.00    +0.000 C 
ATOM     22  C   UNL     1       2.499   4.362  17.639  0.00  0.00    +0.000 C 
ATOM     23  C   UNL     1       3.127   5.663  18.170  0.00  0.00    +0.000 C 
ATOM     24  C   UNL     1       3.749   5.391  19.558  0.00  0.00    +0.000 C 
ATOM     25  C   UNL     1       2.719   4.773  20.517  0.00  0.00    +0.000 C 
ENDBRANCH  17  23
ENDBRANCH  16  17
ENDBRANCH   1  16
TORSDOF 6
ENDMDL
MODEL 9
REMARK VINA RESULT:      -7.5      4.014      6.156
REMARK  Name = 
REMARK  8 active torsions:
REMARK  status: ('A' for Active; 'I' for Inactive)
REMARK    1  A    between atoms: C_1  and  N_2
REMARK    2  A    between atoms: N_2  and  C_3
REMARK    3  A    between atoms: C_6  and  O_7
REMARK    4  A    between atoms: O_7  and  C_8
REMARK    5  A    between atoms: C_8  and  C_9
REMARK    6  A    between atoms: C_9  and  O_10
REMARK    7  A    between atoms: C_9  and  C_11
REMARK    8  A    between atoms: C_9  and  C_17
REMARK                            x       y       z     vdW  Elec       q    Type
REMARK                         _______ _______ _______ _____ _____    ______ ____
ROOT
ATOM      1  C   UNL     1       3.573   5.553  18.738  0.00  0.00    +0.000 C 
ENDROOT
BRANCH   1   2
ATOM      2  C   UNL     1       2.590   4.428  19.130  0.00  0.00    +0.000 A 
ATOM      3  C   UNL     1       1.663   3.854  18.228  0.00  0.00    +0.000 A 
ATOM      4  C   UNL     1       0.799   2.833  18.646  0.00  0.00    +0.000 A 
ATOM      5  C   UNL     1       0.837   2.365  19.960  0.00  0.00    +0.000 A 
ATOM      6  C   UNL     1       1.754   2.901  20.858  0.00  0.00    +0.000 A 
ATOM      7  C   UNL     1       2.619   3.917  20.450  0.00  0.00    +0.000 A 
ENDBRANCH   1   2
BRANCH   1   8
ATOM      8  C   UNL     1       4.342   5.339  17.410  0.00  0.00    +0.000 A 
ATOM      9  C   UNL     1       4.882   4.071  17.080  0.00  0.00    +0.000 A 
ATOM     10  C   UNL     1       5.662   3.896  15.933  0.00  0.00    +0.000 A 
ATOM     11  C   UNL     1       5.927   4.976  15.094  0.00  0.00    +0.000 A 
ATOM     12  C   UNL     1       5.400   6.232  15.389  0.00  0.00    +0.000 A 
ATOM     13  C   UNL     1       4.611   6.416  16.532  0.00  0.00    +0.000 A 
ENDBRANCH   1   8
BRANCH   1  14
ATOM     14  O   UNL     1       4.532   5.664  19.772  0.00  0.00    +0.000 OA
ATOM     15  H   UNL     1       4.301   6.423  20.364  0.00  0.00    +0.000 HD
ENDBRANCH   1  14
BRANCH   1  16
ATOM     16  C   UNL     1       2.825   6.913  18.556  0.00  0.00    +0.000 C 
BRANCH  16  17
ATOM     17  O   UNL     1       1.958   7.201  19.636  0.00  0.00    +0.000 OA
BRANCH  17  23
ATOM     18  C   UNL     1      -0.018  12.501  19.702  0.00  0.00    +0.000 C 
ATOM     19  N   UNL     1       0.096  11.034  19.528  0.00  0.00    +0.000 N 
ATOM     20  C   UNL     1      -1.199  10.552  18.978  0.00  0.00    +0.000 C 
ATOM     21  C   UNL     1       1.231  10.747  18.601  0.00  0.00    +0.000 C 
ATOM     22  C   UNL     1       1.530   9.238  18.469  0.00  0.00    +0.000 C 
ATOM     23  C   UNL     1       1.807   8.600  19.842  0.00  0.00    +0.000 C 
ATOM     24  C   UNL     1       0.632   8.922  20.793  0.00  0.00    +0.000 C 
ATOM     25  C   UNL     1       0.374  10.436  20.863  0.00  0.00    +0.000 C 
ENDBRANCH  17  23
ENDBRANCH  16  17
ENDBRANCH   1  16
TORSDOF 6
ENDMDL
