MODEL 1
REMARK VINA RESULT:      -9.2      0.000      0.000
REMARK  Name = 
REMARK  9 active torsions:
REMARK  status: ('A' for Active; 'I' for Inactive)
REMARK    1  A    between atoms: C_1  and  C_2
REMARK    2  A    between atoms: C_2  and  C_3
REMARK    3  A    between atoms: C_2  and  O_4
REMARK    4  A    between atoms: C_2  and  C_31
REMARK    5  A    between atoms: O_4  and  C_5
REMARK    6  A    between atoms: N_14  and  C_15
REMARK    7  A    between atoms: C_18  and  O_19
REMARK    8  A    between atoms: O_19  and  C_20
REMARK    9  A    between atoms: C_20  and  C_21
REMARK                            x       y       z     vdW  Elec       q    Type
REMARK                         _______ _______ _______ _____ _____    ______ ____
ROOT
ATOM      1  C   UNL     1       3.967   4.205  17.598  0.00  0.00    +0.000 A 
ATOM      2  C   UNL     1       4.312   2.915  17.142  0.00  0.00    +0.000 A 
ATOM      3  C   UNL     1       3.742   1.799  17.710  0.00  0.00    +0.000 A 
ATOM      4  C   UNL     1       2.870   1.985  18.773  0.00  0.00    +0.000 A 
ATOM      5  C   UNL     1       2.536   3.245  19.265  0.00  0.00    +0.000 A 
ATOM      6  N   UNL     1       1.731   3.209  20.322  0.00  0.00    +0.000 NA
ATOM      7  C   UNL     1       1.382   4.371  20.863  0.00  0.00    +0.000 A 
ATOM      8  N   UNL     1       1.721   5.570  20.411  0.00  0.00    +0.000 NA
ATOM      9  C   UNL     1       2.512   5.628  19.330  0.00  0.00    +0.000 A 
ATOM     10  N   UNL     1       2.783   6.949  18.845  0.00  0.00    +0.000 N 
ATOM     11  C   UNL     1       3.038   4.431  18.686  0.00  0.00    +0.000 A 
ATOM     12  H   UNL     1       2.814   6.882  17.858  0.00  0.00    +0.000 HD
ENDROOT
BRANCH  10  13
ATOM     13  C   UNL     1       2.023   8.129  19.137  0.00  0.00    +0.000 A 
ATOM     14  C   UNL     1       1.726   9.070  18.162  0.00  0.00    +0.000 A 
ATOM     15  C   UNL     1       1.011  10.238  18.464  0.00  0.00    +0.000 A 
ATOM     16  C   UNL     1       0.549  10.501  19.762  0.00  0.00    +0.000 A 
ATOM     17  C   UNL     1       0.755   9.521  20.734  0.00  0.00    +0.000 A 
ATOM     18 CL   UNL     1       0.091   9.615  22.332  0.00  0.00    +0.000 Cl
ATOM     19  C   UNL     1       1.477   8.342  20.424  0.00  0.00    +0.000 A 
BRANCH  16  20
ATOM     20  O   UNL     1      -0.129  11.691  19.862  0.00  0.00    +0.000 OA
BRANCH  20  21
ATOM     21  C   UNL     1      -0.574  12.320  18.653  0.00  0.00    +0.000 C 
BRANCH  21  22
ATOM     22  C   UNL     1      -2.020  11.948  18.347  0.00  0.00    +0.000 A 
ATOM     23  C   UNL     1      -3.029  12.210  19.272  0.00  0.00    +0.000 A 
ATOM     24  C   UNL     1      -4.357  11.914  18.941  0.00  0.00    +0.000 A 
ATOM     25  C   UNL     1      -4.634  11.369  17.696  0.00  0.00    +0.000 A 
ATOM     26  C   UNL     1      -3.578  11.145  16.827  0.00  0.00    +0.000 A 
ATOM     27  N   UNL     1      -2.285  11.419  17.124  0.00  0.00    +0.000 NA
ENDBRANCH  21  22
ENDBRANCH  20  21
ENDBRANCH  16  20
ENDBRANCH  10  13
BRANCH   1  28
ATOM     28  O   UNL     1       4.793   5.139  17.064  0.00  0.00    +0.000 OA
BRANCH  28  30
ATOM     29  C   UNL     1       6.131   7.050  17.516  0.00  0.00    +0.000 C 
ATOM     30  C   UNL     1       6.033   5.524  17.661  0.00  0.00    +0.000 C 
ATOM     31  C   UNL     1       6.170   5.321  19.194  0.00  0.00    +0.000 C 
BRANCH  30  32
ATOM     32  C   UNL     1       7.118   4.926  16.698  0.00  0.00    +0.000 C 
ATOM     33  N   UNL     1       7.034   5.285  15.362  0.00  0.00    +0.000 N 
ATOM     34  O   UNL     1       8.025   4.188  17.063  0.00  0.00    +0.000 OA
ATOM     35  H   UNL     1       6.437   4.635  14.845  0.00  0.00    +0.000 HD
ATOM     36  H   UNL     1       7.921   5.257  14.876  0.00  0.00    +0.000 HD
ENDBRANCH  30  32
ENDBRANCH  28  30
ENDBRANCH   1  28
TORSDOF 7
ENDMDL
MODEL 2
REMARK VINA RESULT:      -9.0      0.778      1.024
REMARK  Name = 
REMARK  9 active torsions:
REMARK  status: ('A' for Active; 'I' for Inactive)
REMARK    1  A    between atoms: C_1  and  C_2
REMARK    2  A    between atoms: C_2  and  C_3
REMARK    3  A    between atoms: C_2  and  O_4
REMARK    4  A    between atoms: C_2  and  C_31
REMARK    5  A    between atoms: O_4  and  C_5
REMARK    6  A    between atoms: N_14  and  C_15
REMARK    7  A    between atoms: C_18  and  O_19
REMARK    8  A    between atoms: O_19  and  C_20
REMARK    9  A    between atoms: C_20  and  C_21
REMARK                            x       y       z     vdW  Elec       q    Type
REMARK                         _______ _______ _______ _____ _____    ______ ____
ROOT
ATOM      1  C   UNL     1       3.835   4.199  17.618  0.00  0.00    +0.000 A 
ATOM      2  C   UNL     1       4.178   2.907  17.167  0.00  0.00    +0.000 A 
ATOM      3  C   UNL     1       3.691   1.792  17.812  0.00  0.00    +0.000 A 
ATOM      4  C   UNL     1       2.906   1.985  18.940  0.00  0.00    +0.000 A 
ATOM      5  C   UNL     1       2.579   3.250  19.425  0.00  0.00    +0.000 A 
ATOM      6  N   UNL     1       1.867   3.223  20.547  0.00  0.00    +0.000 NA
ATOM      7  C   UNL     1       1.532   4.390  21.085  0.00  0.00    +0.000 A 
ATOM      8  N   UNL     1       1.796   5.584  20.575  0.00  0.00    +0.000 NA
ATOM      9  C   UNL     1       2.492   5.632  19.429  0.00  0.00    +0.000 A 
ATOM     10  N   UNL     1       2.683   6.945  18.888  0.00  0.00    +0.000 N 
ATOM     11  C   UNL     1       2.996   4.432  18.775  0.00  0.00    +0.000 A 
ATOM     12  H   UNL     1       2.632   6.851  17.905  0.00  0.00    +0.000 HD
ENDROOT
BRANCH  10  13
ATOM     13  C   UNL     1       1.916   8.113  19.213  0.00  0.00    +0.000 A 
ATOM     14  C   UNL     1       1.543   9.037  18.248  0.00  0.00    +0.000 A 
ATOM     15  C   UNL     1       0.823  10.194  18.580  0.00  0.00    +0.000 A 
ATOM     16  C   UNL     1       0.431  10.461  19.900  0.00  0.00    +0.000 A 
ATOM     17  C   UNL     1       0.714   9.495  20.868  0.00  0.00    +0.000 A 
ATOM     18 CL   UNL     1       0.141   9.593  22.501  0.00  0.00    +0.000 Cl
ATOM     19  C   UNL     1       1.441   8.329  20.528  0.00  0.00    +0.000 A 
BRANCH  16  20
ATOM     20  O   UNL     1      -0.265  11.638  20.029  0.00  0.00    +0.000 OA
BRANCH  20  21
ATOM     21  C   UNL     1      -0.688  12.307  18.833  0.00  0.00    +0.000 C 
BRANCH  21  22
ATOM     22  C   UNL     1      -2.135  11.961  18.501  0.00  0.00    +0.000 A 
ATOM     23  C   UNL     1      -2.443  11.231  17.354  0.00  0.00    +0.000 A 
ATOM     24  C   UNL     1      -3.774  10.875  17.104  0.00  0.00    +0.000 A 
ATOM     25  C   UNL     1      -4.753  11.257  18.009  0.00  0.00    +0.000 A 
ATOM     26  C   UNL     1      -4.367  11.974  19.130  0.00  0.00    +0.000 A 
ATOM     27  N   UNL     1      -3.089  12.334  19.394  0.00  0.00    +0.000 NA
ENDBRANCH  21  22
ENDBRANCH  20  21
ENDBRANCH  16  20
ENDBRANCH  10  13
BRANCH   1  28
ATOM     28  O   UNL     1       4.587   5.139  16.991  0.00  0.00    +0.000 OA
BRANCH  28  30
ATOM     29  C   UNL     1       5.821   7.127  17.406  0.00  0.00    +0.000 C 
ATOM     30  C   UNL     1       5.848   5.593  17.484  0.00  0.00    +0.000 C 
ATOM     31  C   UNL     1       6.152   5.336  18.985  0.00  0.00    +0.000 C 
BRANCH  30  32
ATOM     32  C   UNL     1       6.872   5.122  16.392  0.00  0.00    +0.000 C 
ATOM     33  N   UNL     1       7.862   4.243  16.801  0.00  0.00    +0.000 N 
ATOM     34  O   UNL     1       6.831   5.472  15.219  0.00  0.00    +0.000 OA
ATOM     35  H   UNL     1       8.686   4.750  17.136  0.00  0.00    +0.000 HD
ATOM     36  H   UNL     1       8.213   3.650  16.060  0.00  0.00    +0.000 HD
ENDBRANCH  30  32
ENDBRANCH  28  30
ENDBRANCH   1  28
TORSDOF 7
ENDMDL
MODEL 3
REMARK VINA RESULT:      -9.0      2.158      2.615
REMARK  Name = 
REMARK  9 active torsions:
REMARK  status: ('A' for Active; 'I' for Inactive)
REMARK    1  A    between atoms: C_1  and  C_2
REMARK    2  A    between atoms: C_2  and  C_3
REMARK    3  A    between atoms: C_2  and  O_4
REMARK    4  A    between atoms: C_2  and  C_31
REMARK    5  A    between atoms: O_4  and  C_5
REMARK    6  A    between atoms: N_14  and  C_15
REMARK    7  A    between atoms: C_18  and  O_19
REMARK    8  A    between atoms: O_19  and  C_20
REMARK    9  A    between atoms: C_20  and  C_21
REMARK                            x       y       z     vdW  Elec       q    Type
REMARK                         _______ _______ _______ _____ _____    ______ ____
ROOT
ATOM      1  C   UNL     1       3.827   4.197  17.633  0.00  0.00    +0.000 A 
ATOM      2  C   UNL     1       4.164   2.930  17.111  0.00  0.00    +0.000 A 
ATOM      3  C   UNL     1       3.688   1.783  17.704  0.00  0.00    +0.000 A 
ATOM      4  C   UNL     1       2.921   1.916  18.853  0.00  0.00    +0.000 A 
ATOM      5  C   UNL     1       2.600   3.153  19.408  0.00  0.00    +0.000 A 
ATOM      6  N   UNL     1       1.906   3.067  20.538  0.00  0.00    +0.000 NA
ATOM      7  C   UNL     1       1.578   4.204  21.141  0.00  0.00    +0.000 A 
ATOM      8  N   UNL     1       1.833   5.424  20.688  0.00  0.00    +0.000 NA
ATOM      9  C   UNL     1       2.511   5.532  19.536  0.00  0.00    +0.000 A 
ATOM     10  N   UNL     1       2.692   6.872  19.061  0.00  0.00    +0.000 N 
ATOM     11  C   UNL     1       3.006   4.368  18.813  0.00  0.00    +0.000 A 
ATOM     12  H   UNL     1       2.626   6.828  18.074  0.00  0.00    +0.000 HD
ENDROOT
BRANCH  10  13
ATOM     13  C   UNL     1       1.929   8.019  19.457  0.00  0.00    +0.000 A 
ATOM     14  C   UNL     1       1.570   9.009  18.553  0.00  0.00    +0.000 A 
ATOM     15  C   UNL     1       0.854  10.145  18.957  0.00  0.00    +0.000 A 
ATOM     16  C   UNL     1       0.453  10.326  20.289  0.00  0.00    +0.000 A 
ATOM     17  C   UNL     1       0.722   9.295  21.192  0.00  0.00    +0.000 A 
ATOM     18 CL   UNL     1       0.137   9.287  22.823  0.00  0.00    +0.000 Cl
ATOM     19  C   UNL     1       1.445   8.150  20.780  0.00  0.00    +0.000 A 
BRANCH  16  20
ATOM     20  O   UNL     1      -0.238  11.495  20.491  0.00  0.00    +0.000 OA
BRANCH  20  21
ATOM     21  C   UNL     1       0.260  12.412  21.476  0.00  0.00    +0.000 C 
BRANCH  21  22
ATOM     22  C   UNL     1      -0.863  12.895  22.385  0.00  0.00    +0.000 A 
ATOM     23  C   UNL     1      -2.024  12.138  22.541  0.00  0.00    +0.000 A 
ATOM     24  C   UNL     1      -3.014  12.575  23.429  0.00  0.00    +0.000 A 
ATOM     25  C   UNL     1      -2.812  13.751  24.136  0.00  0.00    +0.000 A 
ATOM     26  C   UNL     1      -1.629  14.443  23.933  0.00  0.00    +0.000 A 
ATOM     27  N   UNL     1      -0.657  14.045  23.078  0.00  0.00    +0.000 NA
ENDBRANCH  21  22
ENDBRANCH  20  21
ENDBRANCH  16  20
ENDBRANCH  10  13
BRANCH   1  28
ATOM     28  O   UNL     1       4.568   5.169  17.043  0.00  0.00    +0.000 OA
BRANCH  28  30
ATOM     29  C   UNL     1       5.889   7.101  17.451  0.00  0.00    +0.000 C 
ATOM     30  C   UNL     1       5.857   5.567  17.512  0.00  0.00    +0.000 C 
ATOM     31  C   UNL     1       6.184   5.281  19.003  0.00  0.00    +0.000 C 
BRANCH  30  32
ATOM     32  C   UNL     1       6.837   5.069  16.392  0.00  0.00    +0.000 C 
ATOM     33  N   UNL     1       6.535   5.433  15.090  0.00  0.00    +0.000 N 
ATOM     34  O   UNL     1       7.842   4.403  16.609  0.00  0.00    +0.000 OA
ATOM     35  H   UNL     1       5.923   4.741  14.649  0.00  0.00    +0.000 HD
ATOM     36  H   UNL     1       7.343   5.482  14.482  0.00  0.00    +0.000 HD
ENDBRANCH  30  32
ENDBRANCH  28  30
ENDBRANCH   1  28
TORSDOF 7
ENDMDL
MODEL 4
REMARK VINA RESULT:      -8.9      0.960      1.331
REMARK  Name = 
REMARK  9 active torsions:
REMARK  status: ('A' for Active; 'I' for Inactive)
REMARK    1  A    between atoms: C_1  and  C_2
REMARK    2  A    between atoms: C_2  and  C_3
REMARK    3  A    between atoms: C_2  and  O_4
REMARK    4  A    between atoms: C_2  and  C_31
REMARK    5  A    between atoms: O_4  and  C_5
REMARK    6  A    between atoms: N_14  and  C_15
REMARK    7  A    between atoms: C_18  and  O_19
REMARK    8  A    between atoms: O_19  and  C_20
REMARK    9  A    between atoms: C_20  and  C_21
REMARK                            x       y       z     vdW  Elec       q    Type
REMARK                         _______ _______ _______ _____ _____    ______ ____
ROOT
ATOM      1  C   UNL     1       4.233   3.846  18.321  0.00  0.00    +0.000 A 
ATOM      2  C   UNL     1       4.643   2.578  17.855  0.00  0.00    +0.000 A 
ATOM      3  C   UNL     1       3.858   1.469  18.074  0.00  0.00    +0.000 A 
ATOM      4  C   UNL     1       2.692   1.632  18.808  0.00  0.00    +0.000 A 
ATOM      5  C   UNL     1       2.280   2.866  19.307  0.00  0.00    +0.000 A 
ATOM      6  N   UNL     1       1.168   2.804  20.032  0.00  0.00    +0.000 NA
ATOM      7  C   UNL     1       0.720   3.937  20.561  0.00  0.00    +0.000 A 
ATOM      8  N   UNL     1       1.253   5.138  20.386  0.00  0.00    +0.000 NA
ATOM      9  C   UNL     1       2.361   5.225  19.637  0.00  0.00    +0.000 A 
ATOM     10  N   UNL     1       2.847   6.557  19.423  0.00  0.00    +0.000 N 
ATOM     11  C   UNL     1       3.008   4.052  19.065  0.00  0.00    +0.000 A 
ATOM     12  H   UNL     1       3.202   6.578  18.500  0.00  0.00    +0.000 HD
ENDROOT
BRANCH  10  13
ATOM     13  C   UNL     1       2.096   7.767  19.586  0.00  0.00    +0.000 A 
ATOM     14  C   UNL     1       1.882   8.645  18.533  0.00  0.00    +0.000 A 
ATOM     15  C   UNL     1       1.176   9.843  18.710  0.00  0.00    +0.000 A 
ATOM     16  C   UNL     1       0.638  10.202  19.955  0.00  0.00    +0.000 A 
ATOM     17  C   UNL     1       0.761   9.286  21.002  0.00  0.00    +0.000 A 
ATOM     18 CL   UNL     1      -0.001   9.501  22.544  0.00  0.00    +0.000 Cl
ATOM     19  C   UNL     1       1.475   8.077  20.818  0.00  0.00    +0.000 A 
BRANCH  16  20
ATOM     20  O   UNL     1      -0.019  11.408  19.932  0.00  0.00    +0.000 OA
BRANCH  20  21
ATOM     21  C   UNL     1      -0.395  11.948  18.658  0.00  0.00    +0.000 C 
BRANCH  21  22
ATOM     22  C   UNL     1      -1.809  11.524  18.284  0.00  0.00    +0.000 A 
ATOM     23  C   UNL     1      -2.020  10.503  17.358  0.00  0.00    +0.000 A 
ATOM     24  C   UNL     1      -3.328  10.091  17.077  0.00  0.00    +0.000 A 
ATOM     25  C   UNL     1      -4.383  10.709  17.732  0.00  0.00    +0.000 A 
ATOM     26  C   UNL     1      -4.093  11.710  18.645  0.00  0.00    +0.000 A 
ATOM     27  N   UNL     1      -2.838  12.130  18.932  0.00  0.00    +0.000 NA
ENDBRANCH  21  22
ENDBRANCH  20  21
ENDBRANCH  16  20
ENDBRANCH  10  13
BRANCH   1  28
ATOM     28  O   UNL     1       5.238   4.748  18.198  0.00  0.00    +0.000 OA
BRANCH  28  30
ATOM     29  C   UNL     1       5.065   4.561  15.835  0.00  0.00    +0.000 C 
ATOM     30  C   UNL     1       5.501   5.471  16.993  0.00  0.00    +0.000 C 
ATOM     31  C   UNL     1       4.667   6.757  16.746  0.00  0.00    +0.000 C 
BRANCH  30  32
ATOM     32  C   UNL     1       7.068   5.536  16.927  0.00  0.00    +0.000 C 
ATOM     33  N   UNL     1       7.632   6.774  16.665  0.00  0.00    +0.000 N 
ATOM     34  O   UNL     1       7.801   4.571  17.107  0.00  0.00    +0.000 OA
ATOM     35  H   UNL     1       7.735   6.923  15.658  0.00  0.00    +0.000 HD
ATOM     36  H   UNL     1       8.567   6.883  17.035  0.00  0.00    +0.000 HD
ENDBRANCH  30  32
ENDBRANCH  28  30
ENDBRANCH   1  28
TORSDOF 7
ENDMDL
MODEL 5
REMARK VINA RESULT:      -8.9      1.271      1.677
REMARK  Name = 
REMARK  9 active torsions:
REMARK  status: ('A' for Active; 'I' for Inactive)
REMARK    1  A    between atoms: C_1  and  C_2
REMARK    2  A    between atoms: C_2  and  C_3
REMARK    3  A    between atoms: C_2  and  O_4
REMARK    4  A    between atoms: C_2  and  C_31
REMARK    5  A    between atoms: O_4  and  C_5
REMARK    6  A    between atoms: N_14  and  C_15
REMARK    7  A    between atoms: C_18  and  O_19
REMARK    8  A    between atoms: O_19  and  C_20
REMARK    9  A    between atoms: C_20  and  C_21
REMARK                            x       y       z     vdW  Elec       q    Type
REMARK                         _______ _______ _______ _____ _____    ______ ____
ROOT
ATOM      1  C   UNL     1       3.882   4.180  17.603  0.00  0.00    +0.000 A 
ATOM      2  C   UNL     1       4.204   2.886  17.142  0.00  0.00    +0.000 A 
ATOM      3  C   UNL     1       3.621   1.778  17.715  0.00  0.00    +0.000 A 
ATOM      4  C   UNL     1       2.762   1.976  18.785  0.00  0.00    +0.000 A 
ATOM      5  C   UNL     1       2.452   3.241  19.281  0.00  0.00    +0.000 A 
ATOM      6  N   UNL     1       1.656   3.217  20.345  0.00  0.00    +0.000 NA
ATOM      7  C   UNL     1       1.330   4.383  20.891  0.00  0.00    +0.000 A 
ATOM      8  N   UNL     1       1.683   5.577  20.437  0.00  0.00    +0.000 NA
ATOM      9  C   UNL     1       2.466   5.624  19.349  0.00  0.00    +0.000 A 
ATOM     10  N   UNL     1       2.753   6.941  18.863  0.00  0.00    +0.000 N 
ATOM     11  C   UNL     1       2.967   4.420  18.699  0.00  0.00    +0.000 A 
ATOM     12  H   UNL     1       2.774   6.874  17.876  0.00  0.00    +0.000 HD
ENDROOT
BRANCH  10  13
ATOM     13  C   UNL     1       2.013   8.132  19.163  0.00  0.00    +0.000 A 
ATOM     14  C   UNL     1       1.664   9.047  18.179  0.00  0.00    +0.000 A 
ATOM     15  C   UNL     1       0.972  10.226  18.487  0.00  0.00    +0.000 A 
ATOM     16  C   UNL     1       0.584  10.529  19.800  0.00  0.00    +0.000 A 
ATOM     17  C   UNL     1       0.842   9.575  20.788  0.00  0.00    +0.000 A 
ATOM     18 CL   UNL     1       0.269   9.719  22.417  0.00  0.00    +0.000 Cl
ATOM     19  C   UNL     1       1.542   8.385  20.472  0.00  0.00    +0.000 A 
BRANCH  16  20
ATOM     20  O   UNL     1      -0.084  11.724  19.905  0.00  0.00    +0.000 OA
BRANCH  20  21
ATOM     21  C   UNL     1      -1.390  11.821  19.320  0.00  0.00    +0.000 C 
BRANCH  21  22
ATOM     22  C   UNL     1      -2.421  12.239  20.360  0.00  0.00    +0.000 A 
ATOM     23  C   UNL     1      -3.715  12.588  19.975  0.00  0.00    +0.000 A 
ATOM     24  C   UNL     1      -4.661  12.910  20.956  0.00  0.00    +0.000 A 
ATOM     25  C   UNL     1      -4.285  12.870  22.291  0.00  0.00    +0.000 A 
ATOM     26  C   UNL     1      -2.983  12.507  22.595  0.00  0.00    +0.000 A 
ATOM     27  N   UNL     1      -2.049  12.194  21.666  0.00  0.00    +0.000 NA
ENDBRANCH  21  22
ENDBRANCH  20  21
ENDBRANCH  16  20
ENDBRANCH  10  13
BRANCH   1  28
ATOM     28  O   UNL     1       4.719   5.102  17.062  0.00  0.00    +0.000 OA
BRANCH  28  30
ATOM     29  C   UNL     1       6.164   6.953  17.425  0.00  0.00    +0.000 C 
ATOM     30  C   UNL     1       5.985   5.441  17.629  0.00  0.00    +0.000 C 
ATOM     31  C   UNL     1       6.133   5.288  19.167  0.00  0.00    +0.000 C 
BRANCH  30  32
ATOM     32  C   UNL     1       7.023   4.750  16.676  0.00  0.00    +0.000 C 
ATOM     33  N   UNL     1       6.736   4.768  15.321  0.00  0.00    +0.000 N 
ATOM     34  O   UNL     1       8.059   4.221  17.061  0.00  0.00    +0.000 OA
ATOM     35  H   UNL     1       6.178   3.954  15.054  0.00  0.00    +0.000 HD
ATOM     36  H   UNL     1       7.555   4.720  14.729  0.00  0.00    +0.000 HD
ENDBRANCH  30  32
ENDBRANCH  28  30
ENDBRANCH   1  28
TORSDOF 7
ENDMDL
MODEL 6
REMARK VINA RESULT:      -8.8      2.523      3.096
REMARK  Name = 
REMARK  9 active torsions:
REMARK  status: ('A' for Active; 'I' for Inactive)
REMARK    1  A    between atoms: C_1  and  C_2
REMARK    2  A    between atoms: C_2  and  C_3
REMARK    3  A    between atoms: C_2  and  O_4
REMARK    4  A    between atoms: C_2  and  C_31
REMARK    5  A    between atoms: O_4  and  C_5
REMARK    6  A    between atoms: N_14  and  C_15
REMARK    7  A    between atoms: C_18  and  O_19
REMARK    8  A    between atoms: O_19  and  C_20
REMARK    9  A    between atoms: C_20  and  C_21
REMARK                            x       y       z     vdW  Elec       q    Type
REMARK                         _______ _______ _______ _____ _____    ______ ____
ROOT
ATOM      1  C   UNL     1       3.700   4.311  17.603  0.00  0.00    +0.000 A 
ATOM      2  C   UNL     1       4.014   3.078  16.993  0.00  0.00    +0.000 A 
ATOM      3  C   UNL     1       3.543   1.899  17.524  0.00  0.00    +0.000 A 
ATOM      4  C   UNL     1       2.806   1.963  18.698  0.00  0.00    +0.000 A 
ATOM      5  C   UNL     1       2.510   3.164  19.338  0.00  0.00    +0.000 A 
ATOM      6  N   UNL     1       1.844   3.010  20.478  0.00  0.00    +0.000 NA
ATOM      7  C   UNL     1       1.541   4.108  21.161  0.00  0.00    +0.000 A 
ATOM      8  N   UNL     1       1.794   5.353  20.781  0.00  0.00    +0.000 NA
ATOM      9  C   UNL     1       2.443   5.530  19.621  0.00  0.00    +0.000 A 
ATOM     10  N   UNL     1       2.623   6.896  19.228  0.00  0.00    +0.000 N 
ATOM     11  C   UNL     1       2.910   4.412  18.812  0.00  0.00    +0.000 A 
ATOM     12  H   UNL     1       2.532   6.916  18.243  0.00  0.00    +0.000 HD
ENDROOT
BRANCH  10  13
ATOM     13  C   UNL     1       1.880   8.021  19.716  0.00  0.00    +0.000 A 
ATOM     14  C   UNL     1       1.531   8.145  21.054  0.00  0.00    +0.000 A 
ATOM     15  C   UNL     1       0.774   9.231  21.516  0.00  0.00    +0.000 A 
ATOM     16  C   UNL     1       0.350  10.251  20.653  0.00  0.00    +0.000 A 
ATOM     17  C   UNL     1       0.773  10.193  19.323  0.00  0.00    +0.000 A 
ATOM     18 CL   UNL     1       0.485  11.462  18.179  0.00  0.00    +0.000 Cl
ATOM     19  C   UNL     1       1.538   9.094  18.861  0.00  0.00    +0.000 A 
BRANCH  16  20
ATOM     20  O   UNL     1      -0.378  11.228  21.287  0.00  0.00    +0.000 OA
BRANCH  20  21
ATOM     21  C   UNL     1      -0.818  10.978  22.629  0.00  0.00    +0.000 C 
BRANCH  21  22
ATOM     22  C   UNL     1      -1.573  12.179  23.185  0.00  0.00    +0.000 A 
ATOM     23  C   UNL     1      -2.932  12.086  23.481  0.00  0.00    +0.000 A 
ATOM     24  C   UNL     1      -3.589  13.185  24.048  0.00  0.00    +0.000 A 
ATOM     25  C   UNL     1      -2.866  14.340  24.304  0.00  0.00    +0.000 A 
ATOM     26  C   UNL     1      -1.516  14.354  23.991  0.00  0.00    +0.000 A 
ATOM     27  N   UNL     1      -0.859  13.306  23.439  0.00  0.00    +0.000 NA
ENDBRANCH  21  22
ENDBRANCH  20  21
ENDBRANCH  16  20
ENDBRANCH  10  13
BRANCH   1  28
ATOM     28  O   UNL     1       4.434   5.314  17.058  0.00  0.00    +0.000 OA
BRANCH  28  30
ATOM     29  C   UNL     1       5.811   7.199  17.502  0.00  0.00    +0.000 C 
ATOM     30  C   UNL     1       5.743   5.664  17.510  0.00  0.00    +0.000 C 
ATOM     31  C   UNL     1       6.098   5.317  18.981  0.00  0.00    +0.000 C 
BRANCH  30  32
ATOM     32  C   UNL     1       6.683   5.184  16.349  0.00  0.00    +0.000 C 
ATOM     33  N   UNL     1       7.696   4.302  16.689  0.00  0.00    +0.000 N 
ATOM     34  O   UNL     1       6.559   5.529  15.180  0.00  0.00    +0.000 OA
ATOM     35  H   UNL     1       8.544   4.805  16.962  0.00  0.00    +0.000 HD
ATOM     36  H   UNL     1       7.990   3.703  15.928  0.00  0.00    +0.000 HD
ENDBRANCH  30  32
ENDBRANCH  28  30
ENDBRANCH   1  28
TORSDOF 7
ENDMDL
MODEL 7
REMARK VINA RESULT:      -8.7      1.726      2.576
REMARK  Name = 
REMARK  9 active torsions:
REMARK  status: ('A' for Active; 'I' for Inactive)
REMARK    1  A    between atoms: C_1  and  C_2
REMARK    2  A    between atoms: C_2  and  C_3
REMARK    3  A    between atoms: C_2  and  O_4
REMARK    4  A    between atoms: C_2  and  C_31
REMARK    5  A    between atoms: O_4  and  C_5
REMARK    6  A    between atoms: N_14  and  C_15
REMARK    7  A    between atoms: C_18  and  O_19
REMARK    8  A    between atoms: O_19  and  C_20
REMARK    9  A    between atoms: C_20  and  C_21
REMARK                            x       y       z     vdW  Elec       q    Type
REMARK                         _______ _______ _______ _____ _____    ______ ____
ROOT
ATOM      1  C   UNL     1       3.755   4.111  17.649  0.00  0.00    +0.000 A 
ATOM      2  C   UNL     1       4.048   2.803  17.208  0.00  0.00    +0.000 A 
ATOM      3  C   UNL     1       3.465   1.715  17.818  0.00  0.00    +0.000 A 
ATOM      4  C   UNL     1       2.632   1.948  18.903  0.00  0.00    +0.000 A 
ATOM      5  C   UNL     1       2.351   3.227  19.378  0.00  0.00    +0.000 A 
ATOM      6  N   UNL     1       1.579   3.236  20.460  0.00  0.00    +0.000 NA
ATOM      7  C   UNL     1       1.281   4.417  20.988  0.00  0.00    +0.000 A 
ATOM      8  N   UNL     1       1.639   5.597  20.500  0.00  0.00    +0.000 NA
ATOM      9  C   UNL     1       2.398   5.610  19.395  0.00  0.00    +0.000 A 
ATOM     10  N   UNL     1       2.691   6.913  18.874  0.00  0.00    +0.000 N 
ATOM     11  C   UNL     1       2.868   4.386  18.760  0.00  0.00    +0.000 A 
ATOM     12  H   UNL     1       2.689   6.825  17.888  0.00  0.00    +0.000 HD
ENDROOT
BRANCH  10  13
ATOM     13  C   UNL     1       1.975   8.120  19.165  0.00  0.00    +0.000 A 
ATOM     14  C   UNL     1       1.646   9.035  18.174  0.00  0.00    +0.000 A 
ATOM     15  C   UNL     1       0.976  10.229  18.473  0.00  0.00    +0.000 A 
ATOM     16  C   UNL     1       0.591  10.548  19.784  0.00  0.00    +0.000 A 
ATOM     17  C   UNL     1       0.828   9.596  20.778  0.00  0.00    +0.000 A 
ATOM     18 CL   UNL     1       0.254   9.761  22.405  0.00  0.00    +0.000 Cl
ATOM     19  C   UNL     1       1.505   8.390  20.471  0.00  0.00    +0.000 A 
BRANCH  16  20
ATOM     20  O   UNL     1      -0.053  11.757  19.879  0.00  0.00    +0.000 OA
BRANCH  20  21
ATOM     21  C   UNL     1      -0.339  12.467  18.667  0.00  0.00    +0.000 C 
BRANCH  21  22
ATOM     22  C   UNL     1       0.396  13.802  18.633  0.00  0.00    +0.000 A 
ATOM     23  C   UNL     1      -0.292  14.995  18.853  0.00  0.00    +0.000 A 
ATOM     24  C   UNL     1       0.417  16.201  18.876  0.00  0.00    +0.000 A 
ATOM     25  C   UNL     1       1.791  16.178  18.684  0.00  0.00    +0.000 A 
ATOM     26  C   UNL     1       2.404  14.953  18.481  0.00  0.00    +0.000 A 
ATOM     27  N   UNL     1       1.741  13.772  18.450  0.00  0.00    +0.000 NA
ENDBRANCH  21  22
ENDBRANCH  20  21
ENDBRANCH  16  20
ENDBRANCH  10  13
BRANCH   1  28
ATOM     28  O   UNL     1       4.591   5.009  17.070  0.00  0.00    +0.000 OA
BRANCH  28  30
ATOM     29  C   UNL     1       6.018   6.887  17.355  0.00  0.00    +0.000 C 
ATOM     30  C   UNL     1       5.849   5.386  17.631  0.00  0.00    +0.000 C 
ATOM     31  C   UNL     1       5.983   5.309  19.176  0.00  0.00    +0.000 C 
BRANCH  30  32
ATOM     32  C   UNL     1       6.901   4.658  16.723  0.00  0.00    +0.000 C 
ATOM     33  N   UNL     1       8.077   4.250  17.331  0.00  0.00    +0.000 N 
ATOM     34  O   UNL     1       6.731   4.422  15.533  0.00  0.00    +0.000 OA
ATOM     35  H   UNL     1       8.784   4.989  17.294  0.00  0.00    +0.000 HD
ATOM     36  H   UNL     1       8.516   3.456  16.882  0.00  0.00    +0.000 HD
ENDBRANCH  30  32
ENDBRANCH  28  30
ENDBRANCH   1  28
TORSDOF 7
ENDMDL
MODEL 8
REMARK VINA RESULT:      -8.6      0.984      1.206
REMARK  Name = 
REMARK  9 active torsions:
REMARK  status: ('A' for Active; 'I' for Inactive)
REMARK    1  A    between atoms: C_1  and  C_2
REMARK    2  A    between atoms: C_2  and  C_3
REMARK    3  A    between atoms: C_2  and  O_4
REMARK    4  A    between atoms: C_2  and  C_31
REMARK    5  A    between atoms: O_4  and  C_5
REMARK    6  A    between atoms: N_14  and  C_15
REMARK    7  A    between atoms: C_18  and  O_19
REMARK    8  A    between atoms: O_19  and  C_20
REMARK    9  A    between atoms: C_20  and  C_21
REMARK                            x       y       z     vdW  Elec       q    Type
REMARK                         _______ _______ _______ _____ _____    ______ ____
ROOT
ATOM      1  C   UNL     1       4.175   3.986  18.280  0.00  0.00    +0.000 A 
ATOM      2  C   UNL     1       4.587   2.750  17.740  0.00  0.00    +0.000 A 
ATOM      3  C   UNL     1       3.812   1.625  17.903  0.00  0.00    +0.000 A 
ATOM      4  C   UNL     1       2.652   1.739  18.657  0.00  0.00    +0.000 A 
ATOM      5  C   UNL     1       2.238   2.940  19.228  0.00  0.00    +0.000 A 
ATOM      6  N   UNL     1       1.134   2.830  19.959  0.00  0.00    +0.000 NA
ATOM      7  C   UNL     1       0.684   3.929  20.555  0.00  0.00    +0.000 A 
ATOM      8  N   UNL     1       1.207   5.142  20.443  0.00  0.00    +0.000 NA
ATOM      9  C   UNL     1       2.308   5.278  19.689  0.00  0.00    +0.000 A 
ATOM     10  N   UNL     1       2.784   6.622  19.545  0.00  0.00    +0.000 N 
ATOM     11  C   UNL     1       2.956   4.142  19.046  0.00  0.00    +0.000 A 
ATOM     12  H   UNL     1       3.129   6.698  18.621  0.00  0.00    +0.000 HD
ENDROOT
BRANCH  10  13
ATOM     13  C   UNL     1       2.027   7.817  19.783  0.00  0.00    +0.000 A 
ATOM     14  C   UNL     1       1.733   8.714  18.766  0.00  0.00    +0.000 A 
ATOM     15  C   UNL     1       1.022   9.896  19.014  0.00  0.00    +0.000 A 
ATOM     16  C   UNL     1       0.560  10.220  20.299  0.00  0.00    +0.000 A 
ATOM     17  C   UNL     1       0.763   9.283  21.315  0.00  0.00    +0.000 A 
ATOM     18 CL   UNL     1       0.098   9.452  22.906  0.00  0.00    +0.000 Cl
ATOM     19  C   UNL     1       1.481   8.090  21.059  0.00  0.00    +0.000 A 
BRANCH  16  20
ATOM     20  O   UNL     1      -0.115  11.415  20.345  0.00  0.00    +0.000 OA
BRANCH  20  21
ATOM     21  C   UNL     1      -0.617  11.955  19.115  0.00  0.00    +0.000 C 
BRANCH  21  22
ATOM     22  C   UNL     1      -2.140  11.982  19.116  0.00  0.00    +0.000 A 
ATOM     23  C   UNL     1      -2.837  12.590  20.159  0.00  0.00    +0.000 A 
ATOM     24  C   UNL     1      -4.235  12.654  20.105  0.00  0.00    +0.000 A 
ATOM     25  C   UNL     1      -4.891  12.113  19.010  0.00  0.00    +0.000 A 
ATOM     26  C   UNL     1      -4.129  11.534  18.008  0.00  0.00    +0.000 A 
ATOM     27  N   UNL     1      -2.777  11.455  18.038  0.00  0.00    +0.000 NA
ENDBRANCH  21  22
ENDBRANCH  20  21
ENDBRANCH  16  20
ENDBRANCH  10  13
BRANCH   1  28
ATOM     28  O   UNL     1       5.173   4.901  18.197  0.00  0.00    +0.000 OA
BRANCH  28  30
ATOM     29  C   UNL     1       5.098   4.671  15.833  0.00  0.00    +0.000 C 
ATOM     30  C   UNL     1       5.507   5.592  16.992  0.00  0.00    +0.000 C 
ATOM     31  C   UNL     1       4.719   6.894  16.684  0.00  0.00    +0.000 C 
BRANCH  30  32
ATOM     32  C   UNL     1       7.076   5.615  16.992  0.00  0.00    +0.000 C 
ATOM     33  N   UNL     1       7.718   4.522  16.435  0.00  0.00    +0.000 N 
ATOM     34  O   UNL     1       7.747   6.540  17.436  0.00  0.00    +0.000 OA
ATOM     35  H   UNL     1       7.881   3.796  17.137  0.00  0.00    +0.000 HD
ATOM     36  H   UNL     1       8.638   4.731  16.068  0.00  0.00    +0.000 HD
ENDBRANCH  30  32
ENDBRANCH  28  30
ENDBRANCH   1  28
TORSDOF 7
ENDMDL
MODEL 9
REMARK VINA RESULT:      -8.6      1.899      2.756
REMARK  Name = 
REMARK  9 active torsions:
REMARK  status: ('A' for Active; 'I' for Inactive)
REMARK    1  A    between atoms: C_1  and  C_2
REMARK    2  A    between atoms: C_2  and  C_3
REMARK    3  A    between atoms: C_2  and  O_4
REMARK    4  A    between atoms: C_2  and  C_31
REMARK    5  A    between atoms: O_4  and  C_5
REMARK    6  A    between atoms: N_14  and  C_15
REMARK    7  A    between atoms: C_18  and  O_19
REMARK    8  A    between atoms: O_19  and  C_20
REMARK    9  A    between atoms: C_20  and  C_21
REMARK                            x       y       z     vdW  Elec       q    Type
REMARK                         _______ _______ _______ _____ _____    ______ ____
ROOT
ATOM      1  C   UNL     1       4.191   3.893  18.228  0.00  0.00    +0.000 A 
ATOM      2  C   UNL     1       4.585   2.623  17.757  0.00  0.00    +0.000 A 
ATOM      3  C   UNL     1       3.794   1.519  17.987  0.00  0.00    +0.000 A 
ATOM      4  C   UNL     1       2.640   1.692  18.738  0.00  0.00    +0.000 A 
ATOM      5  C   UNL     1       2.245   2.930  19.241  0.00  0.00    +0.000 A 
ATOM      6  N   UNL     1       1.142   2.876  19.982  0.00  0.00    +0.000 NA
ATOM      7  C   UNL     1       0.711   4.013  20.516  0.00  0.00    +0.000 A 
ATOM      8  N   UNL     1       1.250   5.210  20.333  0.00  0.00    +0.000 NA
ATOM      9  C   UNL     1       2.348   5.288  19.569  0.00  0.00    +0.000 A 
ATOM     10  N   UNL     1       2.842   6.615  19.348  0.00  0.00    +0.000 N 
ATOM     11  C   UNL     1       2.978   4.109  18.989  0.00  0.00    +0.000 A 
ATOM     12  H   UNL     1       3.184   6.634  18.419  0.00  0.00    +0.000 HD
ENDROOT
BRANCH  10  13
ATOM     13  C   UNL     1       2.102   7.832  19.520  0.00  0.00    +0.000 A 
ATOM     14  C   UNL     1       1.806   8.668  18.453  0.00  0.00    +0.000 A 
ATOM     15  C   UNL     1       1.113   9.873  18.637  0.00  0.00    +0.000 A 
ATOM     16  C   UNL     1       0.671  10.280  19.904  0.00  0.00    +0.000 A 
ATOM     17  C   UNL     1       0.875   9.406  20.973  0.00  0.00    +0.000 A 
ATOM     18 CL   UNL     1       0.233   9.681  22.560  0.00  0.00    +0.000 Cl
ATOM     19  C   UNL     1       1.576   8.190  20.783  0.00  0.00    +0.000 A 
BRANCH  16  20
ATOM     20  O   UNL     1       0.011  11.484  19.885  0.00  0.00    +0.000 OA
BRANCH  20  21
ATOM     21  C   UNL     1      -0.137  12.153  18.625  0.00  0.00    +0.000 C 
BRANCH  21  22
ATOM     22  C   UNL     1       0.666  13.448  18.600  0.00  0.00    +0.000 A 
ATOM     23  C   UNL     1       0.100  14.641  19.049  0.00  0.00    +0.000 A 
ATOM     24  C   UNL     1       0.879  15.804  19.072  0.00  0.00    +0.000 A 
ATOM     25  C   UNL     1       2.198  15.739  18.649  0.00  0.00    +0.000 A 
ATOM     26  C   UNL     1       2.691  14.515  18.224  0.00  0.00    +0.000 A 
ATOM     27  N   UNL     1       1.958  13.377  18.189  0.00  0.00    +0.000 NA
ENDBRANCH  21  22
ENDBRANCH  20  21
ENDBRANCH  16  20
ENDBRANCH  10  13
BRANCH   1  28
ATOM     28  O   UNL     1       5.202   4.788  18.090  0.00  0.00    +0.000 OA
BRANCH  28  30
ATOM     29  C   UNL     1       5.107   4.511  15.732  0.00  0.00    +0.000 C 
ATOM     30  C   UNL     1       5.481   5.474  16.868  0.00  0.00    +0.000 C 
ATOM     31  C   UNL     1       4.619   6.725  16.548  0.00  0.00    +0.000 C 
BRANCH  30  32
ATOM     32  C   UNL     1       7.047   5.582  16.846  0.00  0.00    +0.000 C 
ATOM     33  N   UNL     1       7.758   4.416  17.076  0.00  0.00    +0.000 N 
ATOM     34  O   UNL     1       7.658   6.621  16.624  0.00  0.00    +0.000 OA
ATOM     35  H   UNL     1       7.933   4.285  18.076  0.00  0.00    +0.000 HD
ATOM     36  H   UNL     1       8.677   4.408  16.654  0.00  0.00    +0.000 HD
ENDBRANCH  30  32
ENDBRANCH  28  30
ENDBRANCH   1  28
TORSDOF 7
ENDMDL
