MODEL 1
REMARK VINA RESULT:      -8.1      0.000      0.000
REMARK  Name = 
REMARK  7 active torsions:
REMARK  status: ('A' for Active; 'I' for Inactive)
REMARK    1  A    between atoms: C_1  and  C_2
REMARK    2  A    between atoms: C_5  and  C_6
REMARK    3  A    between atoms: C_9  and  C_10
REMARK    4  A    between atoms: C_10  and  C_11
REMARK    5  A    between atoms: C_11  and  C_12
REMARK    6  A    between atoms: N_14  and  C_15
REMARK    7  A    between atoms: C_16  and  C_17
REMARK                            x       y       z     vdW  Elec       q    Type
REMARK                         _______ _______ _______ _____ _____    ______ ____
ROOT
ATOM      1  C   UNL     1       1.791   9.612  17.971  0.00  0.00    +0.000 C 
ENDROOT
BRANCH   1   2
ATOM      2  C   UNL     1       2.317   8.226  18.134  0.00  0.00    +0.000 A 
ATOM      3  C   UNL     1       3.429   7.667  17.553  0.00  0.00    +0.000 A 
ATOM      4  N   UNL     1       3.460   6.369  17.986  0.00  0.00    +0.000 N 
ATOM      5  C   UNL     1       4.426   5.401  17.526  0.00  0.00    +0.000 C 
ATOM      6  C   UNL     1       2.393   6.170  18.847  0.00  0.00    +0.000 A 
ATOM      7  N   UNL     1       1.677   7.287  18.911  0.00  0.00    +0.000 NA
BRANCH   6   8
ATOM      8  C   UNL     1       2.062   4.916  19.554  0.00  0.00    +0.000 A 
ATOM      9  C   UNL     1       1.395   3.851  18.930  0.00  0.00    +0.000 A 
ATOM     10  C   UNL     1       1.052   2.692  19.632  0.00  0.00    +0.000 A 
ATOM     11  C   UNL     1       1.415   2.555  20.966  0.00  0.00    +0.000 A 
ATOM     12  C   UNL     1       2.125   3.576  21.594  0.00  0.00    +0.000 A 
ATOM     13  C   UNL     1       2.443   4.747  20.895  0.00  0.00    +0.000 A 
ENDBRANCH   6   8
ENDBRANCH   1   2
BRANCH   1  14
ATOM     14  C   UNL     1       0.914  10.062  19.138  0.00  0.00    +0.000 C 
BRANCH  14  23
ATOM     15  C   UNL     1      -2.957   9.760  15.226  0.00  0.00    +0.000 C 
ATOM     16  C   UNL     1      -3.204  10.513  16.500  0.00  0.00    +0.000 A 
ATOM     17  N   UNL     1      -4.351  11.111  16.690  0.00  0.00    +0.000 NA
ATOM     18  C   UNL     1      -4.541  11.792  17.879  0.00  0.00    +0.000 A 
ATOM     19  C   UNL     1      -3.620  11.889  18.859  0.00  0.00    +0.000 A 
ATOM     20  C   UNL     1      -3.847  12.630  20.138  0.00  0.00    +0.000 C 
ATOM     21  N   UNL     1      -2.391  11.259  18.657  0.00  0.00    +0.000 N 
ATOM     22  N   UNL     1      -1.284  11.179  19.434  0.00  0.00    +0.000 NA
ATOM     23  C   UNL     1      -0.456  10.437  18.688  0.00  0.00    +0.000 A 
ATOM     24  N   UNL     1      -0.959  10.046  17.473  0.00  0.00    +0.000 NA
ATOM     25  C   UNL     1      -2.163  10.569  17.492  0.00  0.00    +0.000 A 
ENDBRANCH  14  23
ENDBRANCH   1  14
TORSDOF 4
ENDMDL
MODEL 2
REMARK VINA RESULT:      -7.9      2.505      3.362
REMARK  Name = 
REMARK  7 active torsions:
REMARK  status: ('A' for Active; 'I' for Inactive)
REMARK    1  A    between atoms: C_1  and  C_2
REMARK    2  A    between atoms: C_5  and  C_6
REMARK    3  A    between atoms: C_9  and  C_10
REMARK    4  A    between atoms: C_10  and  C_11
REMARK    5  A    between atoms: C_11  and  C_12
REMARK    6  A    between atoms: N_14  and  C_15
REMARK    7  A    between atoms: C_16  and  C_17
REMARK                            x       y       z     vdW  Elec       q    Type
REMARK                         _______ _______ _______ _____ _____    ______ ____
ROOT
ATOM      1  C   UNL     1       2.325   9.474  17.754  0.00  0.00    +0.000 C 
ENDROOT
BRANCH   1   2
ATOM      2  C   UNL     1       2.738   8.059  17.987  0.00  0.00    +0.000 A 
ATOM      3  C   UNL     1       3.829   7.400  17.477  0.00  0.00    +0.000 A 
ATOM      4  N   UNL     1       3.743   6.119  17.953  0.00  0.00    +0.000 N 
ATOM      5  C   UNL     1       4.653   5.067  17.569  0.00  0.00    +0.000 C 
ATOM      6  C   UNL     1       2.629   6.031  18.771  0.00  0.00    +0.000 A 
ATOM      7  N   UNL     1       1.996   7.199  18.765  0.00  0.00    +0.000 NA
BRANCH   6   8
ATOM      8  C   UNL     1       2.174   4.831  19.503  0.00  0.00    +0.000 A 
ATOM      9  C   UNL     1       1.420   3.816  18.895  0.00  0.00    +0.000 A 
ATOM     10  C   UNL     1       0.963   2.712  19.620  0.00  0.00    +0.000 A 
ATOM     11  C   UNL     1       1.295   2.577  20.962  0.00  0.00    +0.000 A 
ATOM     12  C   UNL     1       2.088   3.543  21.575  0.00  0.00    +0.000 A 
ATOM     13  C   UNL     1       2.521   4.663  20.853  0.00  0.00    +0.000 A 
ENDBRANCH   6   8
ENDBRANCH   1   2
BRANCH   1  14
ATOM     14  C   UNL     1       0.814   9.681  17.854  0.00  0.00    +0.000 C 
BRANCH  14  23
ATOM     15  C   UNL     1      -0.456   9.686  23.217  0.00  0.00    +0.000 C 
ATOM     16  C   UNL     1      -0.399  10.966  22.435  0.00  0.00    +0.000 A 
ATOM     17  N   UNL     1      -0.656  12.102  23.030  0.00  0.00    +0.000 NA
ATOM     18  C   UNL     1      -0.589  13.260  22.276  0.00  0.00    +0.000 A 
ATOM     19  C   UNL     1      -0.283  13.300  20.963  0.00  0.00    +0.000 A 
ATOM     20  C   UNL     1      -0.215  14.565  20.168  0.00  0.00    +0.000 C 
ATOM     21  N   UNL     1      -0.015  12.089  20.324  0.00  0.00    +0.000 N 
ATOM     22  N   UNL     1       0.311  11.804  19.040  0.00  0.00    +0.000 NA
ATOM     23  C   UNL     1       0.443  10.472  19.061  0.00  0.00    +0.000 A 
ATOM     24  N   UNL     1       0.208   9.882  20.277  0.00  0.00    +0.000 NA
ATOM     25  C   UNL     1      -0.067  10.917  21.037  0.00  0.00    +0.000 A 
ENDBRANCH  14  23
ENDBRANCH   1  14
TORSDOF 4
ENDMDL
MODEL 3
REMARK VINA RESULT:      -7.8      7.572     11.164
REMARK  Name = 
REMARK  7 active torsions:
REMARK  status: ('A' for Active; 'I' for Inactive)
REMARK    1  A    between atoms: C_1  and  C_2
REMARK    2  A    between atoms: C_5  and  C_6
REMARK    3  A    between atoms: C_9  and  C_10
REMARK    4  A    between atoms: C_10  and  C_11
REMARK    5  A    between atoms: C_11  and  C_12
REMARK    6  A    between atoms: N_14  and  C_15
REMARK    7  A    between atoms: C_16  and  C_17
REMARK                            x       y       z     vdW  Elec       q    Type
REMARK                         _______ _______ _______ _____ _____    ______ ____
ROOT
ATOM      1  C   UNL     1       7.875   9.224  17.878  0.00  0.00    +0.000 C 
ENDROOT
BRANCH   1   2
ATOM      2  C   UNL     1       8.741  10.345  18.347  0.00  0.00    +0.000 A 
ATOM      3  C   UNL     1       9.566  10.377  19.445  0.00  0.00    +0.000 A 
ATOM      4  N   UNL     1      10.108  11.634  19.464  0.00  0.00    +0.000 N 
ATOM      5  C   UNL     1      10.963  12.115  20.522  0.00  0.00    +0.000 C 
ATOM      6  C   UNL     1       9.636  12.330  18.363  0.00  0.00    +0.000 A 
ATOM      7  N   UNL     1       8.777  11.561  17.702  0.00  0.00    +0.000 NA
BRANCH   6   8
ATOM      8  C   UNL     1       9.982  13.717  17.990  0.00  0.00    +0.000 A 
ATOM      9  C   UNL     1       9.194  14.817  18.360  0.00  0.00    +0.000 A 
ATOM     10  C   UNL     1       9.517  16.116  17.958  0.00  0.00    +0.000 A 
ATOM     11  C   UNL     1      10.668  16.346  17.215  0.00  0.00    +0.000 A 
ATOM     12  C   UNL     1      11.497  15.277  16.881  0.00  0.00    +0.000 A 
ATOM     13  C   UNL     1      11.154  13.974  17.262  0.00  0.00    +0.000 A 
ENDBRANCH   6   8
ENDBRANCH   1   2
BRANCH   1  14
ATOM     14  C   UNL     1       8.334   7.859  18.387  0.00  0.00    +0.000 C 
BRANCH  14  23
ATOM     15  C   UNL     1       6.832   4.741  14.098  0.00  0.00    +0.000 C 
ATOM     16  C   UNL     1       6.215   4.542  15.451  0.00  0.00    +0.000 A 
ATOM     17  N   UNL     1       5.305   3.618  15.621  0.00  0.00    +0.000 NA
ATOM     18  C   UNL     1       4.764   3.463  16.884  0.00  0.00    +0.000 A 
ATOM     19  C   UNL     1       5.104   4.204  17.958  0.00  0.00    +0.000 A 
ATOM     20  C   UNL     1       4.506   4.018  19.315  0.00  0.00    +0.000 C 
ATOM     21  N   UNL     1       6.069   5.196  17.779  0.00  0.00    +0.000 N 
ATOM     22  N   UNL     1       6.609   6.090  18.642  0.00  0.00    +0.000 NA
ATOM     23  C   UNL     1       7.475   6.757  17.869  0.00  0.00    +0.000 A 
ATOM     24  N   UNL     1       7.515   6.355  16.557  0.00  0.00    +0.000 NA
ATOM     25  C   UNL     1       6.635   5.381  16.541  0.00  0.00    +0.000 A 
ENDBRANCH  14  23
ENDBRANCH   1  14
TORSDOF 4
ENDMDL
MODEL 4
REMARK VINA RESULT:      -7.8      0.782      2.113
REMARK  Name = 
REMARK  7 active torsions:
REMARK  status: ('A' for Active; 'I' for Inactive)
REMARK    1  A    between atoms: C_1  and  C_2
REMARK    2  A    between atoms: C_5  and  C_6
REMARK    3  A    between atoms: C_9  and  C_10
REMARK    4  A    between atoms: C_10  and  C_11
REMARK    5  A    between atoms: C_11  and  C_12
REMARK    6  A    between atoms: N_14  and  C_15
REMARK    7  A    between atoms: C_16  and  C_17
REMARK                            x       y       z     vdW  Elec       q    Type
REMARK                         _______ _______ _______ _____ _____    ______ ____
ROOT
ATOM      1  C   UNL     1       1.877   9.642  17.949  0.00  0.00    +0.000 C 
ENDROOT
BRANCH   1   2
ATOM      2  C   UNL     1       2.430   8.256  17.963  0.00  0.00    +0.000 A 
ATOM      3  C   UNL     1       3.649   7.825  17.501  0.00  0.00    +0.000 A 
ATOM      4  N   UNL     1       3.663   6.471  17.704  0.00  0.00    +0.000 N 
ATOM      5  C   UNL     1       4.736   5.613  17.262  0.00  0.00    +0.000 C 
ATOM      6  C   UNL     1       2.475   6.108  18.318  0.00  0.00    +0.000 A 
ATOM      7  N   UNL     1       1.709   7.186  18.445  0.00  0.00    +0.000 NA
BRANCH   6   8
ATOM      8  C   UNL     1       2.085   4.745  18.731  0.00  0.00    +0.000 A 
ATOM      9  C   UNL     1       2.196   3.637  17.878  0.00  0.00    +0.000 A 
ATOM     10  C   UNL     1       1.778   2.364  18.276  0.00  0.00    +0.000 A 
ATOM     11  C   UNL     1       1.285   2.165  19.560  0.00  0.00    +0.000 A 
ATOM     12  C   UNL     1       1.216   3.238  20.445  0.00  0.00    +0.000 A 
ATOM     13  C   UNL     1       1.610   4.518  20.033  0.00  0.00    +0.000 A 
ENDBRANCH   6   8
ENDBRANCH   1   2
BRANCH   1  14
ATOM     14  C   UNL     1       0.928   9.920  19.113  0.00  0.00    +0.000 C 
BRANCH  14  23
ATOM     15  C   UNL     1      -3.759  12.630  20.145  0.00  0.00    +0.000 C 
ATOM     16  C   UNL     1      -3.554  11.908  18.846  0.00  0.00    +0.000 A 
ATOM     17  N   UNL     1      -4.500  11.916  17.942  0.00  0.00    +0.000 NA
ATOM     18  C   UNL     1      -4.271  11.242  16.756  0.00  0.00    +0.000 A 
ATOM     19  C   UNL     1      -3.140  10.568  16.466  0.00  0.00    +0.000 A 
ATOM     20  C   UNL     1      -2.913   9.848  15.176  0.00  0.00    +0.000 C 
ATOM     21  N   UNL     1      -2.132  10.551  17.431  0.00  0.00    +0.000 N 
ATOM     22  N   UNL     1      -0.908   9.971  17.441  0.00  0.00    +0.000 NA
ATOM     23  C   UNL     1      -0.426  10.324  18.639  0.00  0.00    +0.000 A 
ATOM     24  N   UNL     1      -1.272  11.085  19.406  0.00  0.00    +0.000 NA
ATOM     25  C   UNL     1      -2.317  11.211  18.621  0.00  0.00    +0.000 A 
ENDBRANCH  14  23
ENDBRANCH   1  14
TORSDOF 4
ENDMDL
MODEL 5
REMARK VINA RESULT:      -7.6      7.609     11.221
REMARK  Name = 
REMARK  7 active torsions:
REMARK  status: ('A' for Active; 'I' for Inactive)
REMARK    1  A    between atoms: C_1  and  C_2
REMARK    2  A    between atoms: C_5  and  C_6
REMARK    3  A    between atoms: C_9  and  C_10
REMARK    4  A    between atoms: C_10  and  C_11
REMARK    5  A    between atoms: C_11  and  C_12
REMARK    6  A    between atoms: N_14  and  C_15
REMARK    7  A    between atoms: C_16  and  C_17
REMARK                            x       y       z     vdW  Elec       q    Type
REMARK                         _______ _______ _______ _____ _____    ______ ____
ROOT
ATOM      1  C   UNL     1       8.148   9.129  17.675  0.00  0.00    +0.000 C 
ENDROOT
BRANCH   1   2
ATOM      2  C   UNL     1       8.789  10.310  18.323  0.00  0.00    +0.000 A 
ATOM      3  C   UNL     1       9.410  10.374  19.546  0.00  0.00    +0.000 A 
ATOM      4  N   UNL     1       9.793  11.679  19.699  0.00  0.00    +0.000 N 
ATOM      5  C   UNL     1      10.399  12.194  20.903  0.00  0.00    +0.000 C 
ATOM      6  C   UNL     1       9.435  12.377  18.556  0.00  0.00    +0.000 A 
ATOM      7  N   UNL     1       8.793  11.555  17.734  0.00  0.00    +0.000 NA
BRANCH   6   8
ATOM      8  C   UNL     1       9.678  13.810  18.294  0.00  0.00    +0.000 A 
ATOM      9  C   UNL     1      10.887  14.286  17.765  0.00  0.00    +0.000 A 
ATOM     10  C   UNL     1      11.110  15.652  17.567  0.00  0.00    +0.000 A 
ATOM     11  C   UNL     1      10.104  16.567  17.850  0.00  0.00    +0.000 A 
ATOM     12  C   UNL     1       8.876  16.116  18.325  0.00  0.00    +0.000 A 
ATOM     13  C   UNL     1       8.665  14.749  18.548  0.00  0.00    +0.000 A 
ENDBRANCH   6   8
ENDBRANCH   1   2
BRANCH   1  14
ATOM     14  C   UNL     1       8.272   7.851  18.503  0.00  0.00    +0.000 C 
BRANCH  14  23
ATOM     15  C   UNL     1       4.503   3.920  19.352  0.00  0.00    +0.000 C 
ATOM     16  C   UNL     1       5.102   4.136  17.993  0.00  0.00    +0.000 A 
ATOM     17  N   UNL     1       4.729   3.382  16.992  0.00  0.00    +0.000 NA
ATOM     18  C   UNL     1       5.301   3.615  15.754  0.00  0.00    +0.000 A 
ATOM     19  C   UNL     1       6.225   4.565  15.506  0.00  0.00    +0.000 A 
ATOM     20  C   UNL     1       6.828   4.801  14.158  0.00  0.00    +0.000 C 
ATOM     21  N   UNL     1       6.631   5.367  16.573  0.00  0.00    +0.000 N 
ATOM     22  N   UNL     1       7.525   6.382  16.645  0.00  0.00    +0.000 NA
ATOM     23  C   UNL     1       7.458   6.741  17.933  0.00  0.00    +0.000 A 
ATOM     24  N   UNL     1       6.584   6.009  18.697  0.00  0.00    +0.000 NA
ATOM     25  C   UNL     1       6.085   5.172  17.818  0.00  0.00    +0.000 A 
ENDBRANCH  14  23
ENDBRANCH   1  14
TORSDOF 4
ENDMDL
MODEL 6
REMARK VINA RESULT:      -7.6      1.594      8.415
REMARK  Name = 
REMARK  7 active torsions:
REMARK  status: ('A' for Active; 'I' for Inactive)
REMARK    1  A    between atoms: C_1  and  C_2
REMARK    2  A    between atoms: C_5  and  C_6
REMARK    3  A    between atoms: C_9  and  C_10
REMARK    4  A    between atoms: C_10  and  C_11
REMARK    5  A    between atoms: C_11  and  C_12
REMARK    6  A    between atoms: N_14  and  C_15
REMARK    7  A    between atoms: C_16  and  C_17
REMARK                            x       y       z     vdW  Elec       q    Type
REMARK                         _______ _______ _______ _____ _____    ______ ____
ROOT
ATOM      1  C   UNL     1       2.043   8.628  18.137  0.00  0.00    +0.000 C 
ENDROOT
BRANCH   1   2
ATOM      2  C   UNL     1       1.053   9.739  18.245  0.00  0.00    +0.000 A 
ATOM      3  C   UNL     1       1.237  10.989  18.784  0.00  0.00    +0.000 A 
ATOM      4  N   UNL     1       0.026  11.618  18.682  0.00  0.00    +0.000 N 
ATOM      5  C   UNL     1      -0.238  12.929  19.225  0.00  0.00    +0.000 C 
ATOM      6  C   UNL     1      -0.861  10.760  18.051  0.00  0.00    +0.000 A 
ATOM      7  N   UNL     1      -0.249   9.604  17.817  0.00  0.00    +0.000 NA
BRANCH   6   8
ATOM      8  C   UNL     1      -2.273  11.046  17.724  0.00  0.00    +0.000 A 
ATOM      9  C   UNL     1      -3.192  11.499  18.682  0.00  0.00    +0.000 A 
ATOM     10  C   UNL     1      -4.534  11.720  18.359  0.00  0.00    +0.000 A 
ATOM     11  C   UNL     1      -4.973  11.538  17.054  0.00  0.00    +0.000 A 
ATOM     12  C   UNL     1      -4.068  11.141  16.073  0.00  0.00    +0.000 A 
ATOM     13  C   UNL     1      -2.730  10.894  16.406  0.00  0.00    +0.000 A 
ENDBRANCH   6   8
ENDBRANCH   1   2
BRANCH   1  14
ATOM     14  C   UNL     1       2.234   7.866  19.447  0.00  0.00    +0.000 C 
BRANCH  14  23
ATOM     15  C   UNL     1       4.809   4.031  16.439  0.00  0.00    +0.000 C 
ATOM     16  C   UNL     1       3.939   3.647  17.600  0.00  0.00    +0.000 A 
ATOM     17  N   UNL     1       3.785   2.385  17.907  0.00  0.00    +0.000 NA
ATOM     18  C   UNL     1       2.979   2.072  18.986  0.00  0.00    +0.000 A 
ATOM     19  C   UNL     1       2.333   2.980  19.746  0.00  0.00    +0.000 A 
ATOM     20  C   UNL     1       1.467   2.619  20.911  0.00  0.00    +0.000 C 
ATOM     21  N   UNL     1       2.489   4.327  19.418  0.00  0.00    +0.000 N 
ATOM     22  N   UNL     1       1.978   5.452  19.973  0.00  0.00    +0.000 NA
ATOM     23  C   UNL     1       2.504   6.420  19.211  0.00  0.00    +0.000 A 
ATOM     24  N   UNL     1       3.312   5.984  18.191  0.00  0.00    +0.000 NA
ATOM     25  C   UNL     1       3.284   4.681  18.355  0.00  0.00    +0.000 A 
ENDBRANCH  14  23
ENDBRANCH   1  14
TORSDOF 4
ENDMDL
MODEL 7
REMARK VINA RESULT:      -7.5      1.812      8.092
REMARK  Name = 
REMARK  7 active torsions:
REMARK  status: ('A' for Active; 'I' for Inactive)
REMARK    1  A    between atoms: C_1  and  C_2
REMARK    2  A    between atoms: C_5  and  C_6
REMARK    3  A    between atoms: C_9  and  C_10
REMARK    4  A    between atoms: C_10  and  C_11
REMARK    5  A    between atoms: C_11  and  C_12
REMARK    6  A    between atoms: N_14  and  C_15
REMARK    7  A    between atoms: C_16  and  C_17
REMARK                            x       y       z     vdW  Elec       q    Type
REMARK                         _______ _______ _______ _____ _____    ______ ____
ROOT
ATOM      1  C   UNL     1       1.260   9.320  21.328  0.00  0.00    +0.000 C 
ENDROOT
BRANCH   1   2
ATOM      2  C   UNL     1       0.591  10.216  20.341  0.00  0.00    +0.000 A 
ATOM      3  C   UNL     1       0.947  11.491  19.975  0.00  0.00    +0.000 A 
ATOM      4  N   UNL     1       0.000  11.896  19.074  0.00  0.00    +0.000 N 
ATOM      5  C   UNL     1      -0.047  13.225  18.514  0.00  0.00    +0.000 C 
ATOM      6  C   UNL     1      -0.891  10.853  18.877  0.00  0.00    +0.000 A 
ATOM      7  N   UNL     1      -0.554   9.844  19.673  0.00  0.00    +0.000 NA
BRANCH   6   8
ATOM      8  C   UNL     1      -2.056  10.857  17.971  0.00  0.00    +0.000 A 
ATOM      9  C   UNL     1      -2.062  10.173  16.746  0.00  0.00    +0.000 A 
ATOM     10  C   UNL     1      -3.161  10.228  15.883  0.00  0.00    +0.000 A 
ATOM     11  C   UNL     1      -4.299  10.932  16.254  0.00  0.00    +0.000 A 
ATOM     12  C   UNL     1      -4.340  11.575  17.489  0.00  0.00    +0.000 A 
ATOM     13  C   UNL     1      -3.226  11.540  18.339  0.00  0.00    +0.000 A 
ENDBRANCH   6   8
ENDBRANCH   1   2
BRANCH   1  14
ATOM     14  C   UNL     1       0.697   7.900  21.326  0.00  0.00    +0.000 C 
BRANCH  14  23
ATOM     15  C   UNL     1       2.683   2.774  20.925  0.00  0.00    +0.000 C 
ATOM     16  C   UNL     1       3.120   3.848  19.973  0.00  0.00    +0.000 A 
ATOM     17  N   UNL     1       3.987   3.570  19.034  0.00  0.00    +0.000 NA
ATOM     18  C   UNL     1       4.361   4.587  18.174  0.00  0.00    +0.000 A 
ATOM     19  C   UNL     1       3.899   5.852  18.239  0.00  0.00    +0.000 A 
ATOM     20  C   UNL     1       4.317   6.935  17.296  0.00  0.00    +0.000 C 
ATOM     21  N   UNL     1       2.980   6.154  19.244  0.00  0.00    +0.000 N 
ATOM     22  N   UNL     1       2.349   7.308  19.567  0.00  0.00    +0.000 NA
ATOM     23  C   UNL     1       1.598   6.948  20.616  0.00  0.00    +0.000 A 
ATOM     24  N   UNL     1       1.718   5.635  20.995  0.00  0.00    +0.000 NA
ATOM     25  C   UNL     1       2.578   5.173  20.117  0.00  0.00    +0.000 A 
ENDBRANCH  14  23
ENDBRANCH   1  14
TORSDOF 4
ENDMDL
MODEL 8
REMARK VINA RESULT:      -7.5      1.602      8.509
REMARK  Name = 
REMARK  7 active torsions:
REMARK  status: ('A' for Active; 'I' for Inactive)
REMARK    1  A    between atoms: C_1  and  C_2
REMARK    2  A    between atoms: C_5  and  C_6
REMARK    3  A    between atoms: C_9  and  C_10
REMARK    4  A    between atoms: C_10  and  C_11
REMARK    5  A    between atoms: C_11  and  C_12
REMARK    6  A    between atoms: N_14  and  C_15
REMARK    7  A    between atoms: C_16  and  C_17
REMARK                            x       y       z     vdW  Elec       q    Type
REMARK                         _______ _______ _______ _____ _____    ______ ____
ROOT
ATOM      1  C   UNL     1       2.019   8.677  18.246  0.00  0.00    +0.000 C 
ENDROOT
BRANCH   1   2
ATOM      2  C   UNL     1       1.022   9.786  18.301  0.00  0.00    +0.000 A 
ATOM      3  C   UNL     1       1.191  11.055  18.797  0.00  0.00    +0.000 A 
ATOM      4  N   UNL     1      -0.022  11.674  18.655  0.00  0.00    +0.000 N 
ATOM      5  C   UNL     1      -0.299  13.001  19.147  0.00  0.00    +0.000 C 
ATOM      6  C   UNL     1      -0.895  10.788  18.044  0.00  0.00    +0.000 A 
ATOM      7  N   UNL     1      -0.273   9.629  17.859  0.00  0.00    +0.000 NA
BRANCH   6   8
ATOM      8  C   UNL     1      -2.303  11.054  17.687  0.00  0.00    +0.000 A 
ATOM      9  C   UNL     1      -2.809  10.834  16.397  0.00  0.00    +0.000 A 
ATOM     10  C   UNL     1      -4.134  11.135  16.071  0.00  0.00    +0.000 A 
ATOM     11  C   UNL     1      -4.996  11.618  17.047  0.00  0.00    +0.000 A 
ATOM     12  C   UNL     1      -4.533  11.794  18.349  0.00  0.00    +0.000 A 
ATOM     13  C   UNL     1      -3.197  11.517  18.665  0.00  0.00    +0.000 A 
ENDBRANCH   6   8
ENDBRANCH   1   2
BRANCH   1  14
ATOM     14  C   UNL     1       2.130   7.907  19.560  0.00  0.00    +0.000 C 
BRANCH  14  23
ATOM     15  C   UNL     1       1.440   2.689  21.196  0.00  0.00    +0.000 C 
ATOM     16  C   UNL     1       2.263   3.016  19.985  0.00  0.00    +0.000 A 
ATOM     17  N   UNL     1       2.830   2.053  19.305  0.00  0.00    +0.000 NA
ATOM     18  C   UNL     1       3.578   2.396  18.193  0.00  0.00    +0.000 A 
ATOM     19  C   UNL     1       3.771   3.658  17.761  0.00  0.00    +0.000 A 
ATOM     20  C   UNL     1       4.582   4.006  16.555  0.00  0.00    +0.000 C 
ATOM     21  N   UNL     1       3.174   4.689  18.488  0.00  0.00    +0.000 N 
ATOM     22  N   UNL     1       3.184   6.033  18.316  0.00  0.00    +0.000 NA
ATOM     23  C   UNL     1       2.426   6.464  19.332  0.00  0.00    +0.000 A 
ATOM     24  N   UNL     1       1.940   5.480  20.156  0.00  0.00    +0.000 NA
ATOM     25  C   UNL     1       2.419   4.392  19.597  0.00  0.00    +0.000 A 
ENDBRANCH  14  23
ENDBRANCH   1  14
TORSDOF 4
ENDMDL
MODEL 9
REMARK VINA RESULT:      -7.5      1.594      8.610
REMARK  Name = 
REMARK  7 active torsions:
REMARK  status: ('A' for Active; 'I' for Inactive)
REMARK    1  A    between atoms: C_1  and  C_2
REMARK    2  A    between atoms: C_5  and  C_6
REMARK    3  A    between atoms: C_9  and  C_10
REMARK    4  A    between atoms: C_10  and  C_11
REMARK    5  A    between atoms: C_11  and  C_12
REMARK    6  A    between atoms: N_14  and  C_15
REMARK    7  A    between atoms: C_16  and  C_17
REMARK                            x       y       z     vdW  Elec       q    Type
REMARK                         _______ _______ _______ _____ _____    ______ ____
ROOT
ATOM      1  C   UNL     1       1.677   8.937  19.386  0.00  0.00    +0.000 C 
ENDROOT
BRANCH   1   2
ATOM      2  C   UNL     1       0.775  10.059  18.994  0.00  0.00    +0.000 A 
ATOM      3  C   UNL     1       1.064  11.400  18.935  0.00  0.00    +0.000 A 
ATOM      4  N   UNL     1      -0.100  12.014  18.561  0.00  0.00    +0.000 N 
ATOM      5  C   UNL     1      -0.252  13.447  18.477  0.00  0.00    +0.000 C 
ATOM      6  C   UNL     1      -1.065  11.039  18.363  0.00  0.00    +0.000 A 
ATOM      7  N   UNL     1      -0.545   9.853  18.659  0.00  0.00    +0.000 NA
BRANCH   6   8
ATOM      8  C   UNL     1      -2.461  11.263  17.936  0.00  0.00    +0.000 A 
ATOM      9  C   UNL     1      -3.444  11.766  18.802  0.00  0.00    +0.000 A 
ATOM     10  C   UNL     1      -4.769  11.927  18.388  0.00  0.00    +0.000 A 
ATOM     11  C   UNL     1      -5.127  11.635  17.079  0.00  0.00    +0.000 A 
ATOM     12  C   UNL     1      -4.159  11.186  16.184  0.00  0.00    +0.000 A 
ATOM     13  C   UNL     1      -2.838  10.999  16.610  0.00  0.00    +0.000 A 
ENDBRANCH   6   8
ENDBRANCH   1   2
BRANCH   1  14
ATOM     14  C   UNL     1       2.175   8.123  18.194  0.00  0.00    +0.000 C 
BRANCH  14  23
ATOM     15  C   UNL     1       6.382   4.565  18.059  0.00  0.00    +0.000 C 
ATOM     16  C   UNL     1       5.127   4.249  18.819  0.00  0.00    +0.000 A 
ATOM     17  N   UNL     1       5.024   3.113  19.459  0.00  0.00    +0.000 NA
ATOM     18  C   UNL     1       3.853   2.861  20.151  0.00  0.00    +0.000 A 
ATOM     19  C   UNL     1       2.802   3.705  20.208  0.00  0.00    +0.000 A 
ATOM     20  C   UNL     1       1.546   3.412  20.965  0.00  0.00    +0.000 C 
ATOM     21  N   UNL     1       2.906   4.915  19.521  0.00  0.00    +0.000 N 
ATOM     22  N   UNL     1       2.040   5.947  19.384  0.00  0.00    +0.000 NA
ATOM     23  C   UNL     1       2.724   6.804  18.615  0.00  0.00    +0.000 A 
ATOM     24  N   UNL     1       3.973   6.378  18.238  0.00  0.00    +0.000 NA
ATOM     25  C   UNL     1       4.053   5.206  18.824  0.00  0.00    +0.000 A 
ENDBRANCH  14  23
ENDBRANCH   1  14
TORSDOF 4
ENDMDL
