MODEL 1
REMARK VINA RESULT:      -7.9      0.000      0.000
REMARK  Name = 
REMARK  4 active torsions:
REMARK  status: ('A' for Active; 'I' for Inactive)
REMARK    1  A    between atoms: C_2  and  C_3
REMARK    2  A    between atoms: C_2  and  C_17
REMARK    3  A    between atoms: C_3  and  N_4
REMARK    4  A    between atoms: C_5  and  C_6
REMARK                            x       y       z     vdW  Elec       q    Type
REMARK                         _______ _______ _______ _____ _____    ______ ____
ROOT
ATOM      1  N   UNL     1       3.385   5.656  18.178  0.00  0.00    +0.000 N 
ATOM      2  C   UNL     1       4.138   5.152  17.116  0.00  0.00    +0.000 A 
ATOM      3  N   UNL     1       3.796   3.898  16.866  0.00  0.00    +0.000 NA
ATOM      4  C   UNL     1       2.826   3.575  17.769  0.00  0.00    +0.000 A 
ATOM      5  C   UNL     1       2.141   2.357  17.913  0.00  0.00    +0.000 A 
ATOM      6  C   UNL     1       1.197   2.225  18.933  0.00  0.00    +0.000 A 
ATOM      7  C   UNL     1       0.931   3.292  19.784  0.00  0.00    +0.000 A 
ATOM      8  C   UNL     1       1.584   4.523  19.633  0.00  0.00    +0.000 A 
ATOM      9  C   UNL     1       2.548   4.646  18.617  0.00  0.00    +0.000 A 
ENDROOT
BRANCH   2  10
ATOM     10  C   UNL     1       5.195   5.917  16.367  0.00  0.00    +0.000 C 
ATOM     11  F   UNL     1       4.711   7.009  15.716  0.00  0.00    +0.000 F 
ATOM     12  F   UNL     1       6.164   6.381  17.200  0.00  0.00    +0.000 F 
ATOM     13  F   UNL     1       5.808   5.156  15.425  0.00  0.00    +0.000 F 
ENDBRANCH   2  10
BRANCH   1  14
ATOM     14  C   UNL     1       3.534   7.017  18.689  0.00  0.00    +0.000 C 
BRANCH  14  16
ATOM     15  O   UNL     1       2.370   8.421  17.152  0.00  0.00    +0.000 OA
ATOM     16  C   UNL     1       2.493   8.034  18.312  0.00  0.00    +0.000 C 
BRANCH  16  17
ATOM     17  C   UNL     1       1.596   8.601  19.364  0.00  0.00    +0.000 A 
ATOM     18  C   UNL     1       0.821   9.749  19.154  0.00  0.00    +0.000 A 
ATOM     19  C   UNL     1       0.093  10.306  20.214  0.00  0.00    +0.000 A 
ATOM     20  C   UNL     1       0.127   9.713  21.470  0.00  0.00    +0.000 A 
ATOM     21 BR   UNL     1      -0.816  10.503  22.905  0.00  0.00    +0.000 Br
ATOM     22  C   UNL     1       0.869   8.554  21.683  0.00  0.00    +0.000 A 
ATOM     23  C   UNL     1       1.606   8.000  20.632  0.00  0.00    +0.000 A 
ENDBRANCH  16  17
ENDBRANCH  14  16
ENDBRANCH   1  14
TORSDOF 4
ENDMDL
MODEL 2
REMARK VINA RESULT:      -7.9      2.924      4.653
REMARK  Name = 
REMARK  4 active torsions:
REMARK  status: ('A' for Active; 'I' for Inactive)
REMARK    1  A    between atoms: C_2  and  C_3
REMARK    2  A    between atoms: C_2  and  C_17
REMARK    3  A    between atoms: C_3  and  N_4
REMARK    4  A    between atoms: C_5  and  C_6
REMARK                            x       y       z     vdW  Elec       q    Type
REMARK                         _______ _______ _______ _____ _____    ______ ____
ROOT
ATOM      1  N   UNL     1       4.670   4.484  17.926  0.00  0.00    +0.000 N 
ATOM      2  C   UNL     1       5.017   3.634  18.976  0.00  0.00    +0.000 A 
ATOM      3  N   UNL     1       6.137   4.046  19.549  0.00  0.00    +0.000 NA
ATOM      4  C   UNL     1       6.531   5.161  18.869  0.00  0.00    +0.000 A 
ATOM      5  C   UNL     1       7.660   5.965  19.094  0.00  0.00    +0.000 A 
ATOM      6  C   UNL     1       7.897   7.055  18.255  0.00  0.00    +0.000 A 
ATOM      7  C   UNL     1       7.016   7.345  17.218  0.00  0.00    +0.000 A 
ATOM      8  C   UNL     1       5.868   6.570  17.000  0.00  0.00    +0.000 A 
ATOM      9  C   UNL     1       5.643   5.462  17.837  0.00  0.00    +0.000 A 
ENDROOT
BRANCH   2  10
ATOM     10  C   UNL     1       4.240   2.415  19.395  0.00  0.00    +0.000 C 
ATOM     11  F   UNL     1       3.826   1.653  18.347  0.00  0.00    +0.000 F 
ATOM     12  F   UNL     1       4.983   1.592  20.182  0.00  0.00    +0.000 F 
ATOM     13  F   UNL     1       3.122   2.734  20.095  0.00  0.00    +0.000 F 
ENDBRANCH   2  10
BRANCH   1  14
ATOM     14  C   UNL     1       3.479   4.290  17.100  0.00  0.00    +0.000 C 
BRANCH  14  16
ATOM     15  O   UNL     1       1.124   4.017  17.357  0.00  0.00    +0.000 OA
ATOM     16  C   UNL     1       2.140   4.620  17.698  0.00  0.00    +0.000 C 
BRANCH  16  17
ATOM     17  C   UNL     1       2.030   5.708  18.716  0.00  0.00    +0.000 A 
ATOM     18  C   UNL     1       1.661   5.461  20.044  0.00  0.00    +0.000 A 
ATOM     19  C   UNL     1       1.456   6.532  20.925  0.00  0.00    +0.000 A 
ATOM     20  C   UNL     1       1.631   7.839  20.485  0.00  0.00    +0.000 A 
ATOM     21 BR   UNL     1       1.300   9.277  21.665  0.00  0.00    +0.000 Br
ATOM     22  C   UNL     1       2.028   8.095  19.176  0.00  0.00    +0.000 A 
ATOM     23  C   UNL     1       2.224   7.031  18.290  0.00  0.00    +0.000 A 
ENDBRANCH  16  17
ENDBRANCH  14  16
ENDBRANCH   1  14
TORSDOF 4
ENDMDL
MODEL 3
REMARK VINA RESULT:      -7.7      4.415      6.979
REMARK  Name = 
REMARK  4 active torsions:
REMARK  status: ('A' for Active; 'I' for Inactive)
REMARK    1  A    between atoms: C_2  and  C_3
REMARK    2  A    between atoms: C_2  and  C_17
REMARK    3  A    between atoms: C_3  and  N_4
REMARK    4  A    between atoms: C_5  and  C_6
REMARK                            x       y       z     vdW  Elec       q    Type
REMARK                         _______ _______ _______ _____ _____    ______ ____
ROOT
ATOM      1  N   UNL     1       2.910   4.678  19.224  0.00  0.00    +0.000 N 
ATOM      2  C   UNL     1       2.276   4.328  20.417  0.00  0.00    +0.000 A 
ATOM      3  N   UNL     1       1.660   5.378  20.934  0.00  0.00    +0.000 NA
ATOM      4  C   UNL     1       1.896   6.421  20.087  0.00  0.00    +0.000 A 
ATOM      5  C   UNL     1       1.456   7.750  20.197  0.00  0.00    +0.000 A 
ATOM      6  C   UNL     1       1.841   8.676  19.226  0.00  0.00    +0.000 A 
ATOM      7  C   UNL     1       2.639   8.281  18.158  0.00  0.00    +0.000 A 
ATOM      8  C   UNL     1       3.061   6.951  18.019  0.00  0.00    +0.000 A 
ATOM      9  C   UNL     1       2.686   6.026  19.008  0.00  0.00    +0.000 A 
ENDROOT
BRANCH   2  10
ATOM     10  C   UNL     1       2.296   2.956  21.036  0.00  0.00    +0.000 C 
ATOM     11  F   UNL     1       3.551   2.502  21.297  0.00  0.00    +0.000 F 
ATOM     12  F   UNL     1       1.639   2.933  22.226  0.00  0.00    +0.000 F 
ATOM     13  F   UNL     1       1.714   2.024  20.240  0.00  0.00    +0.000 F 
ENDBRANCH   2  10
BRANCH   1  14
ATOM     14  C   UNL     1       3.675   3.730  18.417  0.00  0.00    +0.000 C 
BRANCH  14  16
ATOM     15  O   UNL     1       5.928   3.923  19.176  0.00  0.00    +0.000 OA
ATOM     16  C   UNL     1       5.146   3.982  18.230  0.00  0.00    +0.000 C 
BRANCH  16  17
ATOM     17  C   UNL     1       5.672   4.324  16.874  0.00  0.00    +0.000 A 
ATOM     18  C   UNL     1       4.903   4.186  15.711  0.00  0.00    +0.000 A 
ATOM     19  C   UNL     1       5.486   4.405  14.456  0.00  0.00    +0.000 A 
ATOM     20  C   UNL     1       6.824   4.772  14.363  0.00  0.00    +0.000 A 
ATOM     21 BR   UNL     1       7.614   5.013  12.664  0.00  0.00    +0.000 Br
ATOM     22  C   UNL     1       7.589   4.943  15.513  0.00  0.00    +0.000 A 
ATOM     23  C   UNL     1       7.016   4.715  16.768  0.00  0.00    +0.000 A 
ENDBRANCH  16  17
ENDBRANCH  14  16
ENDBRANCH   1  14
TORSDOF 4
ENDMDL
MODEL 4
REMARK VINA RESULT:      -7.7      3.892      6.209
REMARK  Name = 
REMARK  4 active torsions:
REMARK  status: ('A' for Active; 'I' for Inactive)
REMARK    1  A    between atoms: C_2  and  C_3
REMARK    2  A    between atoms: C_2  and  C_17
REMARK    3  A    between atoms: C_3  and  N_4
REMARK    4  A    between atoms: C_5  and  C_6
REMARK                            x       y       z     vdW  Elec       q    Type
REMARK                         _______ _______ _______ _____ _____    ______ ____
ROOT
ATOM      1  N   UNL     1       2.140   4.680  18.965  0.00  0.00    +0.000 N 
ATOM      2  C   UNL     1       1.876   4.314  20.286  0.00  0.00    +0.000 A 
ATOM      3  N   UNL     1       1.658   5.390  21.025  0.00  0.00    +0.000 NA
ATOM      4  C   UNL     1       1.787   6.463  20.193  0.00  0.00    +0.000 A 
ATOM      5  C   UNL     1       1.649   7.826  20.501  0.00  0.00    +0.000 A 
ATOM      6  C   UNL     1       1.855   8.775  19.498  0.00  0.00    +0.000 A 
ATOM      7  C   UNL     1       2.180   8.370  18.208  0.00  0.00    +0.000 A 
ATOM      8  C   UNL     1       2.291   7.012  17.878  0.00  0.00    +0.000 A 
ATOM      9  C   UNL     1       2.101   6.061  18.895  0.00  0.00    +0.000 A 
ENDROOT
BRANCH   2  10
ATOM     10  C   UNL     1       1.854   2.901  20.803  0.00  0.00    +0.000 C 
ATOM     11  F   UNL     1       1.349   2.797  22.063  0.00  0.00    +0.000 F 
ATOM     12  F   UNL     1       1.082   2.095  20.027  0.00  0.00    +0.000 F 
ATOM     13  F   UNL     1       3.093   2.350  20.845  0.00  0.00    +0.000 F 
ENDBRANCH   2  10
BRANCH   1  14
ATOM     14  C   UNL     1       2.421   3.711  17.908  0.00  0.00    +0.000 C 
BRANCH  14  16
ATOM     15  O   UNL     1       4.171   2.154  17.463  0.00  0.00    +0.000 OA
ATOM     16  C   UNL     1       3.852   3.324  17.662  0.00  0.00    +0.000 C 
BRANCH  16  17
ATOM     17  C   UNL     1       4.916   4.374  17.671  0.00  0.00    +0.000 A 
ATOM     18  C   UNL     1       5.693   4.647  18.803  0.00  0.00    +0.000 A 
ATOM     19  C   UNL     1       6.591   5.723  18.794  0.00  0.00    +0.000 A 
ATOM     20  C   UNL     1       6.721   6.512  17.656  0.00  0.00    +0.000 A 
ATOM     21 BR   UNL     1       7.895   7.992  17.672  0.00  0.00    +0.000 Br
ATOM     22  C   UNL     1       5.976   6.230  16.514  0.00  0.00    +0.000 A 
ATOM     23  C   UNL     1       5.072   5.165  16.522  0.00  0.00    +0.000 A 
ENDBRANCH  16  17
ENDBRANCH  14  16
ENDBRANCH   1  14
TORSDOF 4
ENDMDL
MODEL 5
REMARK VINA RESULT:      -7.7      0.397      1.329
REMARK  Name = 
REMARK  4 active torsions:
REMARK  status: ('A' for Active; 'I' for Inactive)
REMARK    1  A    between atoms: C_2  and  C_3
REMARK    2  A    between atoms: C_2  and  C_17
REMARK    3  A    between atoms: C_3  and  N_4
REMARK    4  A    between atoms: C_5  and  C_6
REMARK                            x       y       z     vdW  Elec       q    Type
REMARK                         _______ _______ _______ _____ _____    ______ ____
ROOT
ATOM      1  N   UNL     1       3.169   5.663  18.439  0.00  0.00    +0.000 N 
ATOM      2  C   UNL     1       3.948   5.232  17.363  0.00  0.00    +0.000 A 
ATOM      3  N   UNL     1       3.661   3.976  17.064  0.00  0.00    +0.000 NA
ATOM      4  C   UNL     1       2.700   3.578  17.947  0.00  0.00    +0.000 A 
ATOM      5  C   UNL     1       2.066   2.328  18.040  0.00  0.00    +0.000 A 
ATOM      6  C   UNL     1       1.123   2.118  19.047  0.00  0.00    +0.000 A 
ATOM      7  C   UNL     1       0.809   3.140  19.937  0.00  0.00    +0.000 A 
ATOM      8  C   UNL     1       1.410   4.402  19.837  0.00  0.00    +0.000 A 
ATOM      9  C   UNL     1       2.373   4.604  18.833  0.00  0.00    +0.000 A 
ENDROOT
BRANCH   2  10
ATOM     10  C   UNL     1       4.977   6.068  16.651  0.00  0.00    +0.000 C 
ATOM     11  F   UNL     1       5.598   5.409  15.636  0.00  0.00    +0.000 F 
ATOM     12  F   UNL     1       4.423   7.176  16.090  0.00  0.00    +0.000 F 
ATOM     13  F   UNL     1       5.961   6.492  17.484  0.00  0.00    +0.000 F 
ENDBRANCH   2  10
BRANCH   1  14
ATOM     14  C   UNL     1       3.259   7.009  19.002  0.00  0.00    +0.000 C 
BRANCH  14  16
ATOM     15  O   UNL     1       1.856   8.213  17.495  0.00  0.00    +0.000 OA
ATOM     16  C   UNL     1       2.175   7.994  18.662  0.00  0.00    +0.000 C 
BRANCH  16  17
ATOM     17  C   UNL     1       1.477   8.734  19.756  0.00  0.00    +0.000 A 
ATOM     18  C   UNL     1       1.407   8.248  21.068  0.00  0.00    +0.000 A 
ATOM     19  C   UNL     1       0.636   8.922  22.025  0.00  0.00    +0.000 A 
ATOM     20  C   UNL     1      -0.048  10.081  21.677  0.00  0.00    +0.000 A 
ATOM     21 BR   UNL     1      -1.127  10.952  22.961  0.00  0.00    +0.000 Br
ATOM     22  C   UNL     1       0.039  10.591  20.385  0.00  0.00    +0.000 A 
ATOM     23  C   UNL     1       0.798   9.916  19.424  0.00  0.00    +0.000 A 
ENDBRANCH  16  17
ENDBRANCH  14  16
ENDBRANCH   1  14
TORSDOF 4
ENDMDL
MODEL 6
REMARK VINA RESULT:      -7.7      4.358      6.996
REMARK  Name = 
REMARK  4 active torsions:
REMARK  status: ('A' for Active; 'I' for Inactive)
REMARK    1  A    between atoms: C_2  and  C_3
REMARK    2  A    between atoms: C_2  and  C_17
REMARK    3  A    between atoms: C_3  and  N_4
REMARK    4  A    between atoms: C_5  and  C_6
REMARK                            x       y       z     vdW  Elec       q    Type
REMARK                         _______ _______ _______ _____ _____    ______ ____
ROOT
ATOM      1  N   UNL     1       2.819   4.827  19.111  0.00  0.00    +0.000 N 
ATOM      2  C   UNL     1       2.278   4.393  20.322  0.00  0.00    +0.000 A 
ATOM      3  N   UNL     1       1.680   5.398  20.943  0.00  0.00    +0.000 NA
ATOM      4  C   UNL     1       1.836   6.493  20.145  0.00  0.00    +0.000 A 
ATOM      5  C   UNL     1       1.379   7.803  20.364  0.00  0.00    +0.000 A 
ATOM      6  C   UNL     1       1.676   8.793  19.426  0.00  0.00    +0.000 A 
ATOM      7  C   UNL     1       2.404   8.478  18.284  0.00  0.00    +0.000 A 
ATOM      8  C   UNL     1       2.840   7.169  18.036  0.00  0.00    +0.000 A 
ATOM      9  C   UNL     1       2.555   6.179  18.993  0.00  0.00    +0.000 A 
ENDROOT
BRANCH   2  10
ATOM     10  C   UNL     1       2.368   2.989  20.856  0.00  0.00    +0.000 C 
ATOM     11  F   UNL     1       1.805   2.063  20.034  0.00  0.00    +0.000 F 
ATOM     12  F   UNL     1       3.659   2.599  21.025  0.00  0.00    +0.000 F 
ATOM     13  F   UNL     1       1.750   2.856  22.057  0.00  0.00    +0.000 F 
ENDBRANCH   2  10
BRANCH   1  14
ATOM     14  C   UNL     1       3.543   3.946  18.198  0.00  0.00    +0.000 C 
BRANCH  14  16
ATOM     15  O   UNL     1       5.717   3.993  19.178  0.00  0.00    +0.000 OA
ATOM     16  C   UNL     1       5.042   4.048  18.152  0.00  0.00    +0.000 C 
BRANCH  16  17
ATOM     17  C   UNL     1       5.732   4.233  16.840  0.00  0.00    +0.000 A 
ATOM     18  C   UNL     1       7.049   4.700  16.741  0.00  0.00    +0.000 A 
ATOM     19  C   UNL     1       7.604   4.971  15.483  0.00  0.00    +0.000 A 
ATOM     20  C   UNL     1       6.854   4.765  14.331  0.00  0.00    +0.000 A 
ATOM     21 BR   UNL     1       7.593   5.184  12.644  0.00  0.00    +0.000 Br
ATOM     22  C   UNL     1       5.554   4.272  14.415  0.00  0.00    +0.000 A 
ATOM     23  C   UNL     1       4.992   4.010  15.668  0.00  0.00    +0.000 A 
ENDBRANCH  16  17
ENDBRANCH  14  16
ENDBRANCH   1  14
TORSDOF 4
ENDMDL
MODEL 7
REMARK VINA RESULT:      -7.6      2.748      4.922
REMARK  Name = 
REMARK  4 active torsions:
REMARK  status: ('A' for Active; 'I' for Inactive)
REMARK    1  A    between atoms: C_2  and  C_3
REMARK    2  A    between atoms: C_2  and  C_17
REMARK    3  A    between atoms: C_3  and  N_4
REMARK    4  A    between atoms: C_5  and  C_6
REMARK                            x       y       z     vdW  Elec       q    Type
REMARK                         _______ _______ _______ _____ _____    ______ ____
ROOT
ATOM      1  N   UNL     1       6.014   4.452  16.572  0.00  0.00    +0.000 N 
ATOM      2  C   UNL     1       6.978   5.406  16.898  0.00  0.00    +0.000 A 
ATOM      3  N   UNL     1       7.621   5.798  15.810  0.00  0.00    +0.000 NA
ATOM      4  C   UNL     1       7.086   5.095  14.771  0.00  0.00    +0.000 A 
ATOM      5  C   UNL     1       7.429   5.155  13.410  0.00  0.00    +0.000 A 
ATOM      6  C   UNL     1       6.772   4.319  12.506  0.00  0.00    +0.000 A 
ATOM      7  C   UNL     1       5.781   3.450  12.949  0.00  0.00    +0.000 A 
ATOM      8  C   UNL     1       5.405   3.402  14.299  0.00  0.00    +0.000 A 
ATOM      9  C   UNL     1       6.083   4.232  15.209  0.00  0.00    +0.000 A 
ENDROOT
BRANCH   2  10
ATOM     10  C   UNL     1       7.259   5.912  18.287  0.00  0.00    +0.000 C 
ATOM     11  F   UNL     1       8.132   5.131  18.979  0.00  0.00    +0.000 F 
ATOM     12  F   UNL     1       7.810   7.155  18.267  0.00  0.00    +0.000 F 
ATOM     13  F   UNL     1       6.135   5.985  19.044  0.00  0.00    +0.000 F 
ENDBRANCH   2  10
BRANCH   1  14
ATOM     14  C   UNL     1       5.140   3.828  17.564  0.00  0.00    +0.000 C 
BRANCH  14  16
ATOM     15  O   UNL     1       2.907   3.604  16.755  0.00  0.00    +0.000 OA
ATOM     16  C   UNL     1       3.675   4.167  17.532  0.00  0.00    +0.000 C 
BRANCH  16  17
ATOM     17  C   UNL     1       3.138   5.217  18.450  0.00  0.00    +0.000 A 
ATOM     18  C   UNL     1       2.613   4.916  19.712  0.00  0.00    +0.000 A 
ATOM     19  C   UNL     1       2.012   5.924  20.480  0.00  0.00    +0.000 A 
ATOM     20  C   UNL     1       1.949   7.225  19.995  0.00  0.00    +0.000 A 
ATOM     21 BR   UNL     1       1.090   8.564  21.014  0.00  0.00    +0.000 Br
ATOM     22  C   UNL     1       2.497   7.542  18.755  0.00  0.00    +0.000 A 
ATOM     23  C   UNL     1       3.087   6.539  17.981  0.00  0.00    +0.000 A 
ENDBRANCH  16  17
ENDBRANCH  14  16
ENDBRANCH   1  14
TORSDOF 4
ENDMDL
MODEL 8
REMARK VINA RESULT:      -7.6      2.766      4.841
REMARK  Name = 
REMARK  4 active torsions:
REMARK  status: ('A' for Active; 'I' for Inactive)
REMARK    1  A    between atoms: C_2  and  C_3
REMARK    2  A    between atoms: C_2  and  C_17
REMARK    3  A    between atoms: C_3  and  N_4
REMARK    4  A    between atoms: C_5  and  C_6
REMARK                            x       y       z     vdW  Elec       q    Type
REMARK                         _______ _______ _______ _____ _____    ______ ____
ROOT
ATOM      1  N   UNL     1       6.032   4.490  16.563  0.00  0.00    +0.000 N 
ATOM      2  C   UNL     1       6.987   5.461  16.869  0.00  0.00    +0.000 A 
ATOM      3  N   UNL     1       7.618   5.846  15.771  0.00  0.00    +0.000 NA
ATOM      4  C   UNL     1       7.084   5.122  14.745  0.00  0.00    +0.000 A 
ATOM      5  C   UNL     1       7.417   5.167  13.381  0.00  0.00    +0.000 A 
ATOM      6  C   UNL     1       6.763   4.312  12.493  0.00  0.00    +0.000 A 
ATOM      7  C   UNL     1       5.786   3.437  12.955  0.00  0.00    +0.000 A 
ATOM      8  C   UNL     1       5.421   3.402  14.308  0.00  0.00    +0.000 A 
ATOM      9  C   UNL     1       6.094   4.252  15.202  0.00  0.00    +0.000 A 
ENDROOT
BRANCH   2  10
ATOM     10  C   UNL     1       7.272   5.989  18.249  0.00  0.00    +0.000 C 
ATOM     11  F   UNL     1       7.879   7.206  18.245  0.00  0.00    +0.000 F 
ATOM     12  F   UNL     1       6.131   6.146  18.971  0.00  0.00    +0.000 F 
ATOM     13  F   UNL     1       8.083   5.163  18.957  0.00  0.00    +0.000 F 
ENDBRANCH   2  10
BRANCH   1  14
ATOM     14  C   UNL     1       5.172   3.869  17.568  0.00  0.00    +0.000 C 
BRANCH  14  16
ATOM     15  O   UNL     1       2.999   3.399  16.706  0.00  0.00    +0.000 OA
ATOM     16  C   UNL     1       3.688   4.081  17.462  0.00  0.00    +0.000 C 
BRANCH  16  17
ATOM     17  C   UNL     1       3.032   5.149  18.277  0.00  0.00    +0.000 A 
ATOM     18  C   UNL     1       3.054   6.499  17.906  0.00  0.00    +0.000 A 
ATOM     19  C   UNL     1       2.529   7.471  18.768  0.00  0.00    +0.000 A 
ATOM     20  C   UNL     1       1.974   7.095  19.986  0.00  0.00    +0.000 A 
ATOM     21 BR   UNL     1       1.317   8.419  21.164  0.00  0.00    +0.000 Br
ATOM     22  C   UNL     1       1.918   5.753  20.351  0.00  0.00    +0.000 A 
ATOM     23  C   UNL     1       2.450   4.781  19.500  0.00  0.00    +0.000 A 
ENDBRANCH  16  17
ENDBRANCH  14  16
ENDBRANCH   1  14
TORSDOF 4
ENDMDL
MODEL 9
REMARK VINA RESULT:      -7.6      2.206      3.561
REMARK  Name = 
REMARK  4 active torsions:
REMARK  status: ('A' for Active; 'I' for Inactive)
REMARK    1  A    between atoms: C_2  and  C_3
REMARK    2  A    between atoms: C_2  and  C_17
REMARK    3  A    between atoms: C_3  and  N_4
REMARK    4  A    between atoms: C_5  and  C_6
REMARK                            x       y       z     vdW  Elec       q    Type
REMARK                         _______ _______ _______ _____ _____    ______ ____
ROOT
ATOM      1  N   UNL     1       3.709   5.468  18.214  0.00  0.00    +0.000 N 
ATOM      2  C   UNL     1       3.044   4.359  17.690  0.00  0.00    +0.000 A 
ATOM      3  N   UNL     1       3.828   3.712  16.842  0.00  0.00    +0.000 NA
ATOM      4  C   UNL     1       5.004   4.401  16.801  0.00  0.00    +0.000 A 
ATOM      5  C   UNL     1       6.156   4.116  16.050  0.00  0.00    +0.000 A 
ATOM      6  C   UNL     1       7.252   4.976  16.132  0.00  0.00    +0.000 A 
ATOM      7  C   UNL     1       7.205   6.093  16.958  0.00  0.00    +0.000 A 
ATOM      8  C   UNL     1       6.075   6.375  17.738  0.00  0.00    +0.000 A 
ATOM      9  C   UNL     1       4.966   5.516  17.639  0.00  0.00    +0.000 A 
ENDROOT
BRANCH   2  10
ATOM     10  C   UNL     1       1.633   3.957  18.028  0.00  0.00    +0.000 C 
ATOM     11  F   UNL     1       1.278   4.264  19.305  0.00  0.00    +0.000 F 
ATOM     12  F   UNL     1       0.728   4.584  17.230  0.00  0.00    +0.000 F 
ATOM     13  F   UNL     1       1.433   2.622  17.889  0.00  0.00    +0.000 F 
ENDBRANCH   2  10
BRANCH   1  14
ATOM     14  C   UNL     1       3.102   6.382  19.180  0.00  0.00    +0.000 C 
BRANCH  14  16
ATOM     15  O   UNL     1       2.699   8.049  17.522  0.00  0.00    +0.000 OA
ATOM     16  C   UNL     1       2.479   7.649  18.664  0.00  0.00    +0.000 C 
BRANCH  16  17
ATOM     17  C   UNL     1       1.585   8.451  19.553  0.00  0.00    +0.000 A 
ATOM     18  C   UNL     1       0.946   9.619  19.122  0.00  0.00    +0.000 A 
ATOM     19  C   UNL     1       0.218  10.397  20.032  0.00  0.00    +0.000 A 
ATOM     20  C   UNL     1       0.119  10.003  21.362  0.00  0.00    +0.000 A 
ATOM     21 BR   UNL     1      -0.820  11.086  22.592  0.00  0.00    +0.000 Br
ATOM     22  C   UNL     1       0.724   8.827  21.795  0.00  0.00    +0.000 A 
ATOM     23  C   UNL     1       1.460   8.053  20.893  0.00  0.00    +0.000 A 
ENDBRANCH  16  17
ENDBRANCH  14  16
ENDBRANCH   1  14
TORSDOF 4
ENDMDL
