MODEL 1
REMARK VINA RESULT:      -7.2      0.000      0.000
REMARK  Name = 
REMARK  6 active torsions:
REMARK  status: ('A' for Active; 'I' for Inactive)
REMARK    1  A    between atoms: C_1  and  C_2
REMARK    2  A    between atoms: C_2  and  C_4
REMARK    3  A    between atoms: C_5  and  C_6
REMARK    4  A    between atoms: N_15  and  C_16
REMARK    5  A    between atoms: C_16  and  C_17
REMARK    6  A    between atoms: C_23  and  C_24
REMARK                            x       y       z     vdW  Elec       q    Type
REMARK                         _______ _______ _______ _____ _____    ______ ____
ROOT
ATOM      1  C   UNL     1       2.830   4.598  18.564  0.00  0.00    +0.000 C 
ATOM      2  C   UNL     1       3.121   5.707  19.583  0.00  0.00    +0.000 C 
ATOM      3  N   UNL     1       4.533   5.969  19.734  0.00  0.00    +0.000 N 
ATOM      4  C   UNL     1       5.562   5.167  19.374  0.00  0.00    +0.000 C 
ATOM      5  O   UNL     1       6.706   5.539  19.611  0.00  0.00    +0.000 OA
ATOM      6  N   UNL     1       5.235   4.031  18.666  0.00  0.00    +0.000 N 
ATOM      7  C   UNL     1       3.870   3.468  18.726  0.00  0.00    +0.000 C 
ATOM      8  C   UNL     1       3.596   2.320  17.741  0.00  0.00    +0.000 C 
ATOM      9  H   UNL     1       4.823   6.828  20.183  0.00  0.00    +0.000 HD
ENDROOT
BRANCH   2  10
ATOM     10  C   UNL     1       2.405   7.024  19.294  0.00  0.00    +0.000 A 
ATOM     11  C   UNL     1       1.731   7.697  20.325  0.00  0.00    +0.000 A 
ATOM     12  C   UNL     1       1.128   8.937  20.095  0.00  0.00    +0.000 A 
ATOM     13  C   UNL     1       1.189   9.523  18.832  0.00  0.00    +0.000 A 
ATOM     14  C   UNL     1       1.849   8.867  17.797  0.00  0.00    +0.000 A 
ATOM     15  C   UNL     1       2.453   7.626  18.025  0.00  0.00    +0.000 A 
ENDBRANCH   2  10
BRANCH   1  17
ATOM     16  C   UNL     1       0.876   3.790  20.119  0.00  0.00    +0.000 C 
ATOM     17  C   UNL     1       1.400   4.088  18.732  0.00  0.00    +0.000 C 
ATOM     18  O   UNL     1       0.689   3.887  17.746  0.00  0.00    +0.000 OA
ENDBRANCH   1  17
BRANCH   6  19
ATOM     19  C   UNL     1       6.266   3.515  17.761  0.00  0.00    +0.000 C 
BRANCH  19  20
ATOM     20  C   UNL     1       6.330   4.093  16.367  0.00  0.00    +0.000 A 
ATOM     21  C   UNL     1       7.329   5.030  16.035  0.00  0.00    +0.000 A 
ATOM     22  C   UNL     1       7.513   5.446  14.716  0.00  0.00    +0.000 A 
ATOM     23  C   UNL     1       6.715   4.928  13.701  0.00  0.00    +0.000 A 
ATOM     24  C   UNL     1       5.720   4.004  14.010  0.00  0.00    +0.000 A 
ATOM     25  C   UNL     1       5.526   3.592  15.333  0.00  0.00    +0.000 A 
ENDBRANCH  19  20
ENDBRANCH   6  19
TORSDOF 4
ENDMDL
MODEL 2
REMARK VINA RESULT:      -7.1      2.728      4.552
REMARK  Name = 
REMARK  6 active torsions:
REMARK  status: ('A' for Active; 'I' for Inactive)
REMARK    1  A    between atoms: C_1  and  C_2
REMARK    2  A    between atoms: C_2  and  C_4
REMARK    3  A    between atoms: C_5  and  C_6
REMARK    4  A    between atoms: N_15  and  C_16
REMARK    5  A    between atoms: C_16  and  C_17
REMARK    6  A    between atoms: C_23  and  C_24
REMARK                            x       y       z     vdW  Elec       q    Type
REMARK                         _______ _______ _______ _____ _____    ______ ____
ROOT
ATOM      1  C   UNL     1       0.796   8.214  20.077  0.00  0.00    +0.000 C 
ATOM      2  C   UNL     1       1.104   9.510  19.318  0.00  0.00    +0.000 C 
ATOM      3  N   UNL     1       1.885   9.285  18.124  0.00  0.00    +0.000 N 
ATOM      4  C   UNL     1       2.621   8.192  17.816  0.00  0.00    +0.000 C 
ATOM      5  O   UNL     1       3.252   8.188  16.765  0.00  0.00    +0.000 OA
ATOM      6  N   UNL     1       2.511   7.118  18.673  0.00  0.00    +0.000 N 
ATOM      7  C   UNL     1       2.042   7.303  20.062  0.00  0.00    +0.000 C 
ATOM      8  C   UNL     1       1.786   6.002  20.839  0.00  0.00    +0.000 C 
ATOM      9  H   UNL     1       1.935  10.019  17.430  0.00  0.00    +0.000 HD
ENDROOT
BRANCH   2  10
ATOM     10  C   UNL     1      -0.132  10.328  18.950  0.00  0.00    +0.000 A 
ATOM     11  C   UNL     1      -0.919   9.953  17.849  0.00  0.00    +0.000 A 
ATOM     12  C   UNL     1      -2.090  10.648  17.538  0.00  0.00    +0.000 A 
ATOM     13  C   UNL     1      -2.494  11.728  18.321  0.00  0.00    +0.000 A 
ATOM     14  C   UNL     1      -1.723  12.117  19.413  0.00  0.00    +0.000 A 
ATOM     15  C   UNL     1      -0.550  11.422  19.726  0.00  0.00    +0.000 A 
ENDBRANCH   2  10
BRANCH   1  17
ATOM     16  C   UNL     1       1.268   9.270  22.433  0.00  0.00    +0.000 C 
ATOM     17  C   UNL     1       0.337   8.531  21.499  0.00  0.00    +0.000 C 
ATOM     18  O   UNL     1      -0.769   8.159  21.895  0.00  0.00    +0.000 OA
ENDBRANCH   1  17
BRANCH   6  19
ATOM     19  C   UNL     1       2.748   5.796  18.085  0.00  0.00    +0.000 C 
BRANCH  19  20
ATOM     20  C   UNL     1       4.177   5.314  17.994  0.00  0.00    +0.000 A 
ATOM     21  C   UNL     1       4.705   4.899  16.756  0.00  0.00    +0.000 A 
ATOM     22  C   UNL     1       6.064   4.614  16.615  0.00  0.00    +0.000 A 
ATOM     23  C   UNL     1       6.924   4.750  17.701  0.00  0.00    +0.000 A 
ATOM     24  C   UNL     1       6.419   5.156  18.933  0.00  0.00    +0.000 A 
ATOM     25  C   UNL     1       5.056   5.433  19.081  0.00  0.00    +0.000 A 
ENDBRANCH  19  20
ENDBRANCH   6  19
TORSDOF 4
ENDMDL
MODEL 3
REMARK VINA RESULT:      -6.9      2.822      4.591
REMARK  Name = 
REMARK  6 active torsions:
REMARK  status: ('A' for Active; 'I' for Inactive)
REMARK    1  A    between atoms: C_1  and  C_2
REMARK    2  A    between atoms: C_2  and  C_4
REMARK    3  A    between atoms: C_5  and  C_6
REMARK    4  A    between atoms: N_15  and  C_16
REMARK    5  A    between atoms: C_16  and  C_17
REMARK    6  A    between atoms: C_23  and  C_24
REMARK                            x       y       z     vdW  Elec       q    Type
REMARK                         _______ _______ _______ _____ _____    ______ ____
ROOT
ATOM      1  C   UNL     1       0.718   8.294  20.098  0.00  0.00    +0.000 C 
ATOM      2  C   UNL     1       0.961   9.613  19.355  0.00  0.00    +0.000 C 
ATOM      3  N   UNL     1       1.752   9.442  18.159  0.00  0.00    +0.000 N 
ATOM      4  C   UNL     1       2.542   8.391  17.838  0.00  0.00    +0.000 C 
ATOM      5  O   UNL     1       3.173   8.431  16.787  0.00  0.00    +0.000 OA
ATOM      6  N   UNL     1       2.486   7.302  18.681  0.00  0.00    +0.000 N 
ATOM      7  C   UNL     1       2.009   7.446  20.072  0.00  0.00    +0.000 C 
ATOM      8  C   UNL     1       1.817   6.124  20.833  0.00  0.00    +0.000 C 
ATOM      9  H   UNL     1       1.766  10.187  17.474  0.00  0.00    +0.000 HD
ENDROOT
BRANCH   2  10
ATOM     10  C   UNL     1      -0.314  10.372  18.996  0.00  0.00    +0.000 A 
ATOM     11  C   UNL     1      -1.078   9.976  17.887  0.00  0.00    +0.000 A 
ATOM     12  C   UNL     1      -2.283  10.616  17.583  0.00  0.00    +0.000 A 
ATOM     13  C   UNL     1      -2.743  11.660  18.383  0.00  0.00    +0.000 A 
ATOM     14  C   UNL     1      -1.996  12.070  19.484  0.00  0.00    +0.000 A 
ATOM     15  C   UNL     1      -0.790  11.431  19.789  0.00  0.00    +0.000 A 
ENDBRANCH   2  10
BRANCH   1  17
ATOM     16  C   UNL     1       1.144   9.328  22.472  0.00  0.00    +0.000 C 
ATOM     17  C   UNL     1       0.244   8.569  21.523  0.00  0.00    +0.000 C 
ATOM     18  O   UNL     1      -0.848   8.149  21.909  0.00  0.00    +0.000 OA
ENDBRANCH   1  17
BRANCH   6  19
ATOM     19  C   UNL     1       2.789   6.002  18.077  0.00  0.00    +0.000 C 
BRANCH  19  20
ATOM     20  C   UNL     1       4.243   5.635  17.891  0.00  0.00    +0.000 A 
ATOM     21  C   UNL     1       5.087   5.503  19.011  0.00  0.00    +0.000 A 
ATOM     22  C   UNL     1       6.383   5.000  18.878  0.00  0.00    +0.000 A 
ATOM     23  C   UNL     1       6.857   4.609  17.630  0.00  0.00    +0.000 A 
ATOM     24  C   UNL     1       6.038   4.736  16.511  0.00  0.00    +0.000 A 
ATOM     25  C   UNL     1       4.742   5.249  16.639  0.00  0.00    +0.000 A 
ENDBRANCH  19  20
ENDBRANCH   6  19
TORSDOF 4
ENDMDL
MODEL 4
REMARK VINA RESULT:      -6.8      0.642      1.347
REMARK  Name = 
REMARK  6 active torsions:
REMARK  status: ('A' for Active; 'I' for Inactive)
REMARK    1  A    between atoms: C_1  and  C_2
REMARK    2  A    between atoms: C_2  and  C_4
REMARK    3  A    between atoms: C_5  and  C_6
REMARK    4  A    between atoms: N_15  and  C_16
REMARK    5  A    between atoms: C_16  and  C_17
REMARK    6  A    between atoms: C_23  and  C_24
REMARK                            x       y       z     vdW  Elec       q    Type
REMARK                         _______ _______ _______ _____ _____    ______ ____
ROOT
ATOM      1  C   UNL     1       2.852   4.714  18.533  0.00  0.00    +0.000 C 
ATOM      2  C   UNL     1       3.124   5.702  19.674  0.00  0.00    +0.000 C 
ATOM      3  N   UNL     1       4.533   5.958  19.865  0.00  0.00    +0.000 N 
ATOM      4  C   UNL     1       5.572   5.213  19.424  0.00  0.00    +0.000 C 
ATOM      5  O   UNL     1       6.711   5.566  19.711  0.00  0.00    +0.000 OA
ATOM      6  N   UNL     1       5.262   4.162  18.587  0.00  0.00    +0.000 N 
ATOM      7  C   UNL     1       3.902   3.583  18.572  0.00  0.00    +0.000 C 
ATOM      8  C   UNL     1       3.648   2.553  17.460  0.00  0.00    +0.000 C 
ATOM      9  H   UNL     1       4.811   6.763  20.412  0.00  0.00    +0.000 HD
ENDROOT
BRANCH   2  10
ATOM     10  C   UNL     1       2.397   7.036  19.532  0.00  0.00    +0.000 A 
ATOM     11  C   UNL     1       2.388   7.704  18.297  0.00  0.00    +0.000 A 
ATOM     12  C   UNL     1       1.671   8.891  18.131  0.00  0.00    +0.000 A 
ATOM     13  C   UNL     1       0.952   9.432  19.196  0.00  0.00    +0.000 A 
ATOM     14  C   UNL     1       0.954   8.786  20.430  0.00  0.00    +0.000 A 
ATOM     15  C   UNL     1       1.671   7.597  20.598  0.00  0.00    +0.000 A 
ENDBRANCH   2  10
BRANCH   1  17
ATOM     16  C   UNL     1       0.881   3.755  19.977  0.00  0.00    +0.000 C 
ATOM     17  C   UNL     1       1.427   4.175  18.630  0.00  0.00    +0.000 C 
ATOM     18  O   UNL     1       0.736   4.049  17.617  0.00  0.00    +0.000 OA
ENDBRANCH   1  17
BRANCH   6  19
ATOM     19  C   UNL     1       6.304   3.763  17.638  0.00  0.00    +0.000 C 
BRANCH  19  20
ATOM     20  C   UNL     1       6.211   4.295  16.227  0.00  0.00    +0.000 A 
ATOM     21  C   UNL     1       6.448   3.442  15.132  0.00  0.00    +0.000 A 
ATOM     22  C   UNL     1       6.200   3.865  13.825  0.00  0.00    +0.000 A 
ATOM     23  C   UNL     1       5.701   5.142  13.586  0.00  0.00    +0.000 A 
ATOM     24  C   UNL     1       5.464   6.001  14.656  0.00  0.00    +0.000 A 
ATOM     25  C   UNL     1       5.720   5.583  15.967  0.00  0.00    +0.000 A 
ENDBRANCH  19  20
ENDBRANCH   6  19
TORSDOF 4
ENDMDL
MODEL 5
REMARK VINA RESULT:      -6.7      3.108      4.941
REMARK  Name = 
REMARK  6 active torsions:
REMARK  status: ('A' for Active; 'I' for Inactive)
REMARK    1  A    between atoms: C_1  and  C_2
REMARK    2  A    between atoms: C_2  and  C_4
REMARK    3  A    between atoms: C_5  and  C_6
REMARK    4  A    between atoms: N_15  and  C_16
REMARK    5  A    between atoms: C_16  and  C_17
REMARK    6  A    between atoms: C_23  and  C_24
REMARK                            x       y       z     vdW  Elec       q    Type
REMARK                         _______ _______ _______ _____ _____    ______ ____
ROOT
ATOM      1  C   UNL     1       0.507   8.514  20.371  0.00  0.00    +0.000 C 
ATOM      2  C   UNL     1       0.628   9.876  19.676  0.00  0.00    +0.000 C 
ATOM      3  N   UNL     1       1.375   9.808  18.443  0.00  0.00    +0.000 N 
ATOM      4  C   UNL     1       2.219   8.828  18.044  0.00  0.00    +0.000 C 
ATOM      5  O   UNL     1       2.799   8.954  16.971  0.00  0.00    +0.000 OA
ATOM      6  N   UNL     1       2.274   7.704  18.841  0.00  0.00    +0.000 N 
ATOM      7  C   UNL     1       1.849   7.759  20.255  0.00  0.00    +0.000 C 
ATOM      8  C   UNL     1       1.781   6.398  20.966  0.00  0.00    +0.000 C 
ATOM      9  H   UNL     1       1.309  10.578  17.790  0.00  0.00    +0.000 HD
ENDROOT
BRANCH   2  10
ATOM     10  C   UNL     1      -0.710  10.558  19.403  0.00  0.00    +0.000 A 
ATOM     11  C   UNL     1      -1.120  11.642  20.195  0.00  0.00    +0.000 A 
ATOM     12  C   UNL     1      -2.308  12.323  19.917  0.00  0.00    +0.000 A 
ATOM     13  C   UNL     1      -3.107  11.930  18.844  0.00  0.00    +0.000 A 
ATOM     14  C   UNL     1      -2.719  10.853  18.050  0.00  0.00    +0.000 A 
ATOM     15  C   UNL     1      -1.529  10.171  18.327  0.00  0.00    +0.000 A 
ENDBRANCH   2  10
BRANCH   1  17
ATOM     16  C   UNL     1       0.978   9.456  22.775  0.00  0.00    +0.000 C 
ATOM     17  C   UNL     1       0.078   8.698  21.825  0.00  0.00    +0.000 C 
ATOM     18  O   UNL     1      -0.976   8.207  22.232  0.00  0.00    +0.000 OA
ENDBRANCH   1  17
BRANCH   6  19
ATOM     19  C   UNL     1       2.637   6.453  18.170  0.00  0.00    +0.000 C 
BRANCH  19  20
ATOM     20  C   UNL     1       4.099   6.076  18.131  0.00  0.00    +0.000 A 
ATOM     21  C   UNL     1       4.920   6.535  17.082  0.00  0.00    +0.000 A 
ATOM     22  C   UNL     1       6.302   6.344  17.115  0.00  0.00    +0.000 A 
ATOM     23  C   UNL     1       6.893   5.703  18.199  0.00  0.00    +0.000 A 
ATOM     24  C   UNL     1       6.098   5.238  19.244  0.00  0.00    +0.000 A 
ATOM     25  C   UNL     1       4.711   5.420  19.209  0.00  0.00    +0.000 A 
ENDBRANCH  19  20
ENDBRANCH   6  19
TORSDOF 4
ENDMDL
MODEL 6
REMARK VINA RESULT:      -6.4      2.743      4.244
REMARK  Name = 
REMARK  6 active torsions:
REMARK  status: ('A' for Active; 'I' for Inactive)
REMARK    1  A    between atoms: C_1  and  C_2
REMARK    2  A    between atoms: C_2  and  C_4
REMARK    3  A    between atoms: C_5  and  C_6
REMARK    4  A    between atoms: N_15  and  C_16
REMARK    5  A    between atoms: C_16  and  C_17
REMARK    6  A    between atoms: C_23  and  C_24
REMARK                            x       y       z     vdW  Elec       q    Type
REMARK                         _______ _______ _______ _____ _____    ______ ____
ROOT
ATOM      1  C   UNL     1       1.111   8.228  19.978  0.00  0.00    +0.000 C 
ATOM      2  C   UNL     1       1.357   9.492  19.144  0.00  0.00    +0.000 C 
ATOM      3  N   UNL     1       2.078   9.221  17.922  0.00  0.00    +0.000 N 
ATOM      4  C   UNL     1       2.816   8.126  17.627  0.00  0.00    +0.000 C 
ATOM      5  O   UNL     1       3.392   8.081  16.545  0.00  0.00    +0.000 OA
ATOM      6  N   UNL     1       2.770   7.092  18.537  0.00  0.00    +0.000 N 
ATOM      7  C   UNL     1       2.371   7.336  19.939  0.00  0.00    +0.000 C 
ATOM      8  C   UNL     1       2.177   6.070  20.788  0.00  0.00    +0.000 C 
ATOM      9  H   UNL     1       2.079   9.923  17.192  0.00  0.00    +0.000 HD
ENDROOT
BRANCH   2  10
ATOM     10  C   UNL     1       0.089  10.272  18.803  0.00  0.00    +0.000 A 
ATOM     11  C   UNL     1      -0.163  11.506  19.422  0.00  0.00    +0.000 A 
ATOM     12  C   UNL     1      -1.282  12.266  19.074  0.00  0.00    +0.000 A 
ATOM     13  C   UNL     1      -2.168  11.805  18.102  0.00  0.00    +0.000 A 
ATOM     14  C   UNL     1      -1.937  10.580  17.481  0.00  0.00    +0.000 A 
ATOM     15  C   UNL     1      -0.816   9.818  17.829  0.00  0.00    +0.000 A 
ENDBRANCH   2  10
BRANCH   1  17
ATOM     16  C   UNL     1      -0.707   8.410  21.861  0.00  0.00    +0.000 C 
ATOM     17  C   UNL     1       0.721   8.605  21.405  0.00  0.00    +0.000 C 
ATOM     18  O   UNL     1       1.553   9.096  22.171  0.00  0.00    +0.000 OA
ENDBRANCH   1  17
BRANCH   6  19
ATOM     19  C   UNL     1       2.999   5.748  18.000  0.00  0.00    +0.000 C 
BRANCH  19  20
ATOM     20  C   UNL     1       4.412   5.377  17.616  0.00  0.00    +0.000 A 
ATOM     21  C   UNL     1       5.465   5.559  18.533  0.00  0.00    +0.000 A 
ATOM     22  C   UNL     1       6.743   5.066  18.265  0.00  0.00    +0.000 A 
ATOM     23  C   UNL     1       6.993   4.374  17.084  0.00  0.00    +0.000 A 
ATOM     24  C   UNL     1       5.965   4.188  16.163  0.00  0.00    +0.000 A 
ATOM     25  C   UNL     1       4.685   4.688  16.424  0.00  0.00    +0.000 A 
ENDBRANCH  19  20
ENDBRANCH   6  19
TORSDOF 4
ENDMDL
MODEL 7
REMARK VINA RESULT:      -6.4      2.292      6.813
REMARK  Name = 
REMARK  6 active torsions:
REMARK  status: ('A' for Active; 'I' for Inactive)
REMARK    1  A    between atoms: C_1  and  C_2
REMARK    2  A    between atoms: C_2  and  C_4
REMARK    3  A    between atoms: C_5  and  C_6
REMARK    4  A    between atoms: N_15  and  C_16
REMARK    5  A    between atoms: C_16  and  C_17
REMARK    6  A    between atoms: C_23  and  C_24
REMARK                            x       y       z     vdW  Elec       q    Type
REMARK                         _______ _______ _______ _____ _____    ______ ____
ROOT
ATOM      1  C   UNL     1       3.097   5.569  19.056  0.00  0.00    +0.000 C 
ATOM      2  C   UNL     1       3.564   5.910  17.636  0.00  0.00    +0.000 C 
ATOM      3  N   UNL     1       3.444   7.317  17.333  0.00  0.00    +0.000 N 
ATOM      4  C   UNL     1       2.694   8.238  17.981  0.00  0.00    +0.000 C 
ATOM      5  O   UNL     1       2.687   9.390  17.561  0.00  0.00    +0.000 OA
ATOM      6  N   UNL     1       2.074   7.819  19.139  0.00  0.00    +0.000 N 
ATOM      7  C   UNL     1       1.828   6.383  19.388  0.00  0.00    +0.000 C 
ATOM      8  C   UNL     1       1.309   6.048  20.796  0.00  0.00    +0.000 C 
ATOM      9  H   UNL     1       3.942   7.687  16.533  0.00  0.00    +0.000 HD
ENDROOT
BRANCH   2  10
ATOM     10  C   UNL     1       4.988   5.458  17.320  0.00  0.00    +0.000 A 
ATOM     11  C   UNL     1       6.039   5.796  18.187  0.00  0.00    +0.000 A 
ATOM     12  C   UNL     1       7.337   5.334  17.950  0.00  0.00    +0.000 A 
ATOM     13  C   UNL     1       7.604   4.529  16.845  0.00  0.00    +0.000 A 
ATOM     14  C   UNL     1       6.574   4.189  15.972  0.00  0.00    +0.000 A 
ATOM     15  C   UNL     1       5.275   4.650  16.207  0.00  0.00    +0.000 A 
ENDBRANCH   2  10
BRANCH   1  17
ATOM     16  C   UNL     1       1.875   3.384  18.268  0.00  0.00    +0.000 C 
ATOM     17  C   UNL     1       2.863   4.065  19.188  0.00  0.00    +0.000 C 
ATOM     18  O   UNL     1       3.446   3.416  20.058  0.00  0.00    +0.000 OA
ENDBRANCH   1  17
BRANCH   6  19
ATOM     19  C   UNL     1       1.813   8.854  20.143  0.00  0.00    +0.000 C 
BRANCH  19  20
ATOM     20  C   UNL     1       0.546   9.664  20.002  0.00  0.00    +0.000 A 
ATOM     21  C   UNL     1       0.127  10.510  21.048  0.00  0.00    +0.000 A 
ATOM     22  C   UNL     1      -0.940  11.393  20.875  0.00  0.00    +0.000 A 
ATOM     23  C   UNL     1      -1.602  11.458  19.652  0.00  0.00    +0.000 A 
ATOM     24  C   UNL     1      -1.205  10.627  18.608  0.00  0.00    +0.000 A 
ATOM     25  C   UNL     1      -0.142   9.734  18.781  0.00  0.00    +0.000 A 
ENDBRANCH  19  20
ENDBRANCH   6  19
TORSDOF 4
ENDMDL
MODEL 8
REMARK VINA RESULT:      -6.3      2.213      6.907
REMARK  Name = 
REMARK  6 active torsions:
REMARK  status: ('A' for Active; 'I' for Inactive)
REMARK    1  A    between atoms: C_1  and  C_2
REMARK    2  A    between atoms: C_2  and  C_4
REMARK    3  A    between atoms: C_5  and  C_6
REMARK    4  A    between atoms: N_15  and  C_16
REMARK    5  A    between atoms: C_16  and  C_17
REMARK    6  A    between atoms: C_23  and  C_24
REMARK                            x       y       z     vdW  Elec       q    Type
REMARK                         _______ _______ _______ _____ _____    ______ ____
ROOT
ATOM      1  C   UNL     1       5.395   5.695  16.619  0.00  0.00    +0.000 C 
ATOM      2  C   UNL     1       6.072   4.391  16.181  0.00  0.00    +0.000 C 
ATOM      3  N   UNL     1       5.238   3.232  16.394  0.00  0.00    +0.000 N 
ATOM      4  C   UNL     1       4.157   3.132  17.201  0.00  0.00    +0.000 C 
ATOM      5  O   UNL     1       3.585   2.051  17.286  0.00  0.00    +0.000 OA
ATOM      6  N   UNL     1       3.720   4.301  17.788  0.00  0.00    +0.000 N 
ATOM      7  C   UNL     1       4.628   5.457  17.938  0.00  0.00    +0.000 C 
ATOM      8  C   UNL     1       3.957   6.750  18.428  0.00  0.00    +0.000 C 
ATOM      9  H   UNL     1       5.477   2.367  15.925  0.00  0.00    +0.000 HD
ENDROOT
BRANCH   2  10
ATOM     10  C   UNL     1       6.551   4.392  14.732  0.00  0.00    +0.000 A 
ATOM     11  C   UNL     1       5.890   3.609  13.773  0.00  0.00    +0.000 A 
ATOM     12  C   UNL     1       6.272   3.649  12.429  0.00  0.00    +0.000 A 
ATOM     13  C   UNL     1       7.321   4.472  12.022  0.00  0.00    +0.000 A 
ATOM     14  C   UNL     1       7.991   5.252  12.961  0.00  0.00    +0.000 A 
ATOM     15  C   UNL     1       7.611   5.213  14.306  0.00  0.00    +0.000 A 
ENDBRANCH   2  10
BRANCH   1  17
ATOM     16  C   UNL     1       7.636   6.600  17.642  0.00  0.00    +0.000 C 
ATOM     17  C   UNL     1       6.431   6.809  16.754  0.00  0.00    +0.000 C 
ATOM     18  O   UNL     1       6.272   7.884  16.171  0.00  0.00    +0.000 OA
ENDBRANCH   1  17
BRANCH   6  19
ATOM     19  C   UNL     1       2.292   4.366  18.113  0.00  0.00    +0.000 C 
BRANCH  19  20
ATOM     20  C   UNL     1       1.858   3.864  19.470  0.00  0.00    +0.000 A 
ATOM     21  C   UNL     1       0.900   2.836  19.571  0.00  0.00    +0.000 A 
ATOM     22  C   UNL     1       0.612   2.241  20.800  0.00  0.00    +0.000 A 
ATOM     23  C   UNL     1       1.281   2.650  21.949  0.00  0.00    +0.000 A 
ATOM     24  C   UNL     1       2.228   3.668  21.871  0.00  0.00    +0.000 A 
ATOM     25  C   UNL     1       2.513   4.273  20.641  0.00  0.00    +0.000 A 
ENDBRANCH  19  20
ENDBRANCH   6  19
TORSDOF 4
ENDMDL
MODEL 9
REMARK VINA RESULT:      -6.3      1.980      6.770
REMARK  Name = 
REMARK  6 active torsions:
REMARK  status: ('A' for Active; 'I' for Inactive)
REMARK    1  A    between atoms: C_1  and  C_2
REMARK    2  A    between atoms: C_2  and  C_4
REMARK    3  A    between atoms: C_5  and  C_6
REMARK    4  A    between atoms: N_15  and  C_16
REMARK    5  A    between atoms: C_16  and  C_17
REMARK    6  A    between atoms: C_23  and  C_24
REMARK                            x       y       z     vdW  Elec       q    Type
REMARK                         _______ _______ _______ _____ _____    ______ ____
ROOT
ATOM      1  C   UNL     1       3.153   4.828  18.910  0.00  0.00    +0.000 C 
ATOM      2  C   UNL     1       3.454   5.391  17.516  0.00  0.00    +0.000 C 
ATOM      3  N   UNL     1       3.385   6.833  17.470  0.00  0.00    +0.000 N 
ATOM      4  C   UNL     1       2.783   7.657  18.358  0.00  0.00    +0.000 C 
ATOM      5  O   UNL     1       2.794   8.864  18.140  0.00  0.00    +0.000 OA
ATOM      6  N   UNL     1       2.291   7.069  19.504  0.00  0.00    +0.000 N 
ATOM      7  C   UNL     1       1.990   5.623  19.543  0.00  0.00    +0.000 C 
ATOM      8  C   UNL     1       1.635   5.071  20.933  0.00  0.00    +0.000 C 
ATOM      9  H   UNL     1       3.799   7.315  16.682  0.00  0.00    +0.000 HD
ENDROOT
BRANCH   2  10
ATOM     10  C   UNL     1       4.795   4.945  16.939  0.00  0.00    +0.000 A 
ATOM     11  C   UNL     1       4.883   4.544  15.596  0.00  0.00    +0.000 A 
ATOM     12  C   UNL     1       6.113   4.197  15.032  0.00  0.00    +0.000 A 
ATOM     13  C   UNL     1       7.276   4.245  15.800  0.00  0.00    +0.000 A 
ATOM     14  C   UNL     1       7.207   4.635  17.135  0.00  0.00    +0.000 A 
ATOM     15  C   UNL     1       5.975   4.983  17.702  0.00  0.00    +0.000 A 
ENDBRANCH   2  10
BRANCH   1  17
ATOM     16  C   UNL     1       3.760   2.345  19.504  0.00  0.00    +0.000 C 
ATOM     17  C   UNL     1       2.843   3.336  18.822  0.00  0.00    +0.000 C 
ATOM     18  O   UNL     1       1.875   2.936  18.173  0.00  0.00    +0.000 OA
ENDBRANCH   1  17
BRANCH   6  19
ATOM     19  C   UNL     1       2.226   7.926  20.692  0.00  0.00    +0.000 C 
BRANCH  19  20
ATOM     20  C   UNL     1       0.998   8.788  20.868  0.00  0.00    +0.000 A 
ATOM     21  C   UNL     1       0.462   9.000  22.154  0.00  0.00    +0.000 A 
ATOM     22  C   UNL     1      -0.562   9.926  22.361  0.00  0.00    +0.000 A 
ATOM     23  C   UNL     1      -1.062  10.666  21.294  0.00  0.00    +0.000 A 
ATOM     24  C   UNL     1      -0.547  10.468  20.015  0.00  0.00    +0.000 A 
ATOM     25  C   UNL     1       0.473   9.533  19.802  0.00  0.00    +0.000 A 
ENDBRANCH  19  20
ENDBRANCH   6  19
TORSDOF 4
ENDMDL
