MODEL 1
REMARK VINA RESULT:      -8.2      0.000      0.000
REMARK  Name = 
REMARK  7 active torsions:
REMARK  status: ('A' for Active; 'I' for Inactive)
REMARK    1  A    between atoms: C_2  and  O_3
REMARK    2  A    between atoms: C_2  and  C_4
REMARK    3  A    between atoms: C_8  and  O_9
REMARK    4  A    between atoms: O_9  and  C_10
REMARK    5  A    between atoms: C_10  and  C_12
REMARK    6  A    between atoms: N_15  and  C_16
REMARK    7  A    between atoms: C_16  and  C_17
REMARK                            x       y       z     vdW  Elec       q    Type
REMARK                         _______ _______ _______ _____ _____    ______ ____
ROOT
ATOM      1  C   UNL     1       7.050   4.908  16.624  0.00  0.00    +0.000 C 
ATOM      2  O   UNL     1       7.957   4.142  16.928  0.00  0.00    +0.000 OA
ENDROOT
BRANCH   1   3
ATOM      3  C   UNL     1       5.929   5.233  17.562  0.00  0.00    +0.000 C 
ATOM      4  C   UNL     1       5.491   6.691  17.447  0.00  0.00    +0.000 C 
ATOM      5  C   UNL     1       4.060   6.670  17.947  0.00  0.00    +0.000 C 
ATOM      6  N   UNL     1       3.600   5.355  17.583  0.00  0.00    +0.000 N 
ATOM      7  C   UNL     1       4.646   4.472  17.358  0.00  0.00    +0.000 C 
ATOM      8  O   UNL     1       4.545   3.281  17.114  0.00  0.00    +0.000 OA
BRANCH   6   9
ATOM      9  C   UNL     1       2.221   4.940  17.755  0.00  0.00    +0.000 C 
BRANCH   9  10
ATOM     10  C   UNL     1       1.984   4.146  19.016  0.00  0.00    +0.000 A 
ATOM     11  C   UNL     1       2.425   4.628  20.257  0.00  0.00    +0.000 A 
ATOM     12  C   UNL     1       2.112   3.949  21.436  0.00  0.00    +0.000 A 
ATOM     13  C   UNL     1       1.350   2.784  21.388  0.00  0.00    +0.000 A 
ATOM     14  C   UNL     1       0.916   2.287  20.161  0.00  0.00    +0.000 A 
ATOM     15  C   UNL     1       1.234   2.961  18.980  0.00  0.00    +0.000 A 
ENDBRANCH   9  10
ENDBRANCH   6   9
ENDBRANCH   1   3
BRANCH   1  16
ATOM     16  O   UNL     1       6.944   5.631  15.440  0.00  0.00    +0.000 OA
BRANCH  16  21
ATOM     17  C   UNL     1       6.295   3.669  12.327  0.00  0.00    +0.000 A 
ATOM     18  C   UNL     1       7.239   4.274  11.485  0.00  0.00    +0.000 A 
ATOM     19  C   UNL     1       8.094   5.254  11.991  0.00  0.00    +0.000 A 
ATOM     20  C   UNL     1       7.985   5.646  13.325  0.00  0.00    +0.000 A 
ATOM     21  C   UNL     1       7.011   5.070  14.145  0.00  0.00    +0.000 A 
ATOM     22  C   UNL     1       6.173   4.072  13.662  0.00  0.00    +0.000 A 
BRANCH  17  24
ATOM     23  O   UNL     1       4.201   2.856  11.527  0.00  0.00    +0.000 OA
ATOM     24  C   UNL     1       5.360   2.627  11.822  0.00  0.00    +0.000 C 
BRANCH  24  25
ATOM     25  O   UNL     1       5.911   1.398  11.769  0.00  0.00    +0.000 OA
ATOM     26  H   UNL     1       5.442   0.716  12.279  0.00  0.00    +0.000 HD
ENDBRANCH  24  25
ENDBRANCH  17  24
ENDBRANCH  16  21
ENDBRANCH   1  16
TORSDOF 7
ENDMDL
MODEL 2
REMARK VINA RESULT:      -8.1      0.180      1.165
REMARK  Name = 
REMARK  7 active torsions:
REMARK  status: ('A' for Active; 'I' for Inactive)
REMARK    1  A    between atoms: C_2  and  O_3
REMARK    2  A    between atoms: C_2  and  C_4
REMARK    3  A    between atoms: C_8  and  O_9
REMARK    4  A    between atoms: O_9  and  C_10
REMARK    5  A    between atoms: C_10  and  C_12
REMARK    6  A    between atoms: N_15  and  C_16
REMARK    7  A    between atoms: C_16  and  C_17
REMARK                            x       y       z     vdW  Elec       q    Type
REMARK                         _______ _______ _______ _____ _____    ______ ____
ROOT
ATOM      1  C   UNL     1       6.924   4.874  16.598  0.00  0.00    +0.000 C 
ATOM      2  O   UNL     1       7.875   4.155  16.882  0.00  0.00    +0.000 OA
ENDROOT
BRANCH   1   3
ATOM      3  C   UNL     1       5.833   5.181  17.574  0.00  0.00    +0.000 C 
ATOM      4  C   UNL     1       5.462   6.662  17.571  0.00  0.00    +0.000 C 
ATOM      5  C   UNL     1       4.038   6.670  18.092  0.00  0.00    +0.000 C 
ATOM      6  N   UNL     1       3.512   5.407  17.642  0.00  0.00    +0.000 N 
ATOM      7  C   UNL     1       4.513   4.496  17.337  0.00  0.00    +0.000 C 
ATOM      8  O   UNL     1       4.353   3.332  17.010  0.00  0.00    +0.000 OA
BRANCH   6   9
ATOM      9  C   UNL     1       2.117   5.044  17.806  0.00  0.00    +0.000 C 
BRANCH   9  10
ATOM     10  C   UNL     1       1.847   4.243  19.056  0.00  0.00    +0.000 A 
ATOM     11  C   UNL     1       1.327   2.943  18.973  0.00  0.00    +0.000 A 
ATOM     12  C   UNL     1       1.180   2.162  20.121  0.00  0.00    +0.000 A 
ATOM     13  C   UNL     1       1.554   2.669  21.363  0.00  0.00    +0.000 A 
ATOM     14  C   UNL     1       2.060   3.963  21.461  0.00  0.00    +0.000 A 
ATOM     15  C   UNL     1       2.202   4.749  20.315  0.00  0.00    +0.000 A 
ENDBRANCH   9  10
ENDBRANCH   6   9
ENDBRANCH   1   3
BRANCH   1  16
ATOM     16  O   UNL     1       6.738   5.556  15.400  0.00  0.00    +0.000 OA
BRANCH  16  21
ATOM     17  C   UNL     1       6.247   3.569  12.274  0.00  0.00    +0.000 A 
ATOM     18  C   UNL     1       7.242   4.158  11.480  0.00  0.00    +0.000 A 
ATOM     19  C   UNL     1       8.076   5.135  12.025  0.00  0.00    +0.000 A 
ATOM     20  C   UNL     1       7.897   5.542  13.346  0.00  0.00    +0.000 A 
ATOM     21  C   UNL     1       6.873   4.982  14.116  0.00  0.00    +0.000 A 
ATOM     22  C   UNL     1       6.054   3.986  13.596  0.00  0.00    +0.000 A 
BRANCH  17  24
ATOM     23  O   UNL     1       5.692   1.402  11.448  0.00  0.00    +0.000 OA
ATOM     24  C   UNL     1       5.332   2.531  11.727  0.00  0.00    +0.000 C 
BRANCH  24  25
ATOM     25  O   UNL     1       4.076   2.981  11.527  0.00  0.00    +0.000 OA
ATOM     26  H   UNL     1       3.500   2.379  11.025  0.00  0.00    +0.000 HD
ENDBRANCH  24  25
ENDBRANCH  17  24
ENDBRANCH  16  21
ENDBRANCH   1  16
TORSDOF 7
ENDMDL
MODEL 3
REMARK VINA RESULT:      -7.6      1.017      1.622
REMARK  Name = 
REMARK  7 active torsions:
REMARK  status: ('A' for Active; 'I' for Inactive)
REMARK    1  A    between atoms: C_2  and  O_3
REMARK    2  A    between atoms: C_2  and  C_4
REMARK    3  A    between atoms: C_8  and  O_9
REMARK    4  A    between atoms: O_9  and  C_10
REMARK    5  A    between atoms: C_10  and  C_12
REMARK    6  A    between atoms: N_15  and  C_16
REMARK    7  A    between atoms: C_16  and  C_17
REMARK                            x       y       z     vdW  Elec       q    Type
REMARK                         _______ _______ _______ _____ _____    ______ ____
ROOT
ATOM      1  C   UNL     1       6.184   5.296  16.713  0.00  0.00    +0.000 C 
ATOM      2  O   UNL     1       7.268   4.796  16.989  0.00  0.00    +0.000 OA
ENDROOT
BRANCH   1   3
ATOM      3  C   UNL     1       5.453   6.195  17.660  0.00  0.00    +0.000 C 
ATOM      4  C   UNL     1       4.425   7.067  16.944  0.00  0.00    +0.000 C 
ATOM      5  C   UNL     1       3.428   7.405  18.034  0.00  0.00    +0.000 C 
ATOM      6  N   UNL     1       3.478   6.255  18.898  0.00  0.00    +0.000 N 
ATOM      7  C   UNL     1       4.641   5.518  18.732  0.00  0.00    +0.000 C 
ATOM      8  O   UNL     1       4.979   4.545  19.386  0.00  0.00    +0.000 OA
BRANCH   6   9
ATOM      9  C   UNL     1       2.573   6.086  20.020  0.00  0.00    +0.000 C 
BRANCH   9  10
ATOM     10  C   UNL     1       1.938   4.719  20.082  0.00  0.00    +0.000 A 
ATOM     11  C   UNL     1       1.395   4.132  18.930  0.00  0.00    +0.000 A 
ATOM     12  C   UNL     1       0.906   2.824  18.961  0.00  0.00    +0.000 A 
ATOM     13  C   UNL     1       0.959   2.088  20.142  0.00  0.00    +0.000 A 
ATOM     14  C   UNL     1       1.484   2.664  21.297  0.00  0.00    +0.000 A 
ATOM     15  C   UNL     1       1.968   3.974  21.270  0.00  0.00    +0.000 A 
ENDBRANCH   9  10
ENDBRANCH   6   9
ENDBRANCH   1   3
BRANCH   1  16
ATOM     16  O   UNL     1       5.507   5.180  15.503  0.00  0.00    +0.000 OA
BRANCH  16  21
ATOM     17  C   UNL     1       6.136   3.325  12.321  0.00  0.00    +0.000 A 
ATOM     18  C   UNL     1       7.296   3.994  11.902  0.00  0.00    +0.000 A 
ATOM     19  C   UNL     1       7.861   4.979  12.714  0.00  0.00    +0.000 A 
ATOM     20  C   UNL     1       7.252   5.314  13.922  0.00  0.00    +0.000 A 
ATOM     21  C   UNL     1       6.071   4.674  14.310  0.00  0.00    +0.000 A 
ATOM     22  C   UNL     1       5.515   3.670  13.526  0.00  0.00    +0.000 A 
BRANCH  17  24
ATOM     23  O   UNL     1       6.073   1.262  11.128  0.00  0.00    +0.000 OA
ATOM     24  C   UNL     1       5.500   2.276  11.479  0.00  0.00    +0.000 C 
BRANCH  24  25
ATOM     25  O   UNL     1       4.241   2.584  11.108  0.00  0.00    +0.000 OA
ATOM     26  H   UNL     1       4.131   3.474  10.730  0.00  0.00    +0.000 HD
ENDBRANCH  24  25
ENDBRANCH  17  24
ENDBRANCH  16  21
ENDBRANCH   1  16
TORSDOF 7
ENDMDL
MODEL 4
REMARK VINA RESULT:      -7.5      0.871      1.131
REMARK  Name = 
REMARK  7 active torsions:
REMARK  status: ('A' for Active; 'I' for Inactive)
REMARK    1  A    between atoms: C_2  and  O_3
REMARK    2  A    between atoms: C_2  and  C_4
REMARK    3  A    between atoms: C_8  and  O_9
REMARK    4  A    between atoms: O_9  and  C_10
REMARK    5  A    between atoms: C_10  and  C_12
REMARK    6  A    between atoms: N_15  and  C_16
REMARK    7  A    between atoms: C_16  and  C_17
REMARK                            x       y       z     vdW  Elec       q    Type
REMARK                         _______ _______ _______ _____ _____    ______ ____
ROOT
ATOM      1  C   UNL     1       6.801   5.057  16.544  0.00  0.00    +0.000 C 
ATOM      2  O   UNL     1       6.977   3.906  16.924  0.00  0.00    +0.000 OA
ENDROOT
BRANCH   1   3
ATOM      3  C   UNL     1       5.971   6.036  17.314  0.00  0.00    +0.000 C 
ATOM      4  C   UNL     1       4.879   6.663  16.452  0.00  0.00    +0.000 C 
ATOM      5  C   UNL     1       3.834   7.092  17.463  0.00  0.00    +0.000 C 
ATOM      6  N   UNL     1       3.975   6.122  18.518  0.00  0.00    +0.000 N 
ATOM      7  C   UNL     1       5.207   5.484  18.488  0.00  0.00    +0.000 C 
ATOM      8  O   UNL     1       5.622   4.679  19.306  0.00  0.00    +0.000 OA
BRANCH   6   9
ATOM      9  C   UNL     1       3.070   6.069  19.651  0.00  0.00    +0.000 C 
BRANCH   9  10
ATOM     10  C   UNL     1       2.338   4.756  19.775  0.00  0.00    +0.000 A 
ATOM     11  C   UNL     1       2.128   4.171  21.032  0.00  0.00    +0.000 A 
ATOM     12  C   UNL     1       1.357   3.014  21.159  0.00  0.00    +0.000 A 
ATOM     13  C   UNL     1       0.785   2.431  20.031  0.00  0.00    +0.000 A 
ATOM     14  C   UNL     1       0.996   2.993  18.774  0.00  0.00    +0.000 A 
ATOM     15  C   UNL     1       1.772   4.148  18.645  0.00  0.00    +0.000 A 
ENDBRANCH   9  10
ENDBRANCH   6   9
ENDBRANCH   1   3
BRANCH   1  16
ATOM     16  O   UNL     1       7.372   5.651  15.423  0.00  0.00    +0.000 OA
BRANCH  16  21
ATOM     17  C   UNL     1       6.358   3.808  12.335  0.00  0.00    +0.000 A 
ATOM     18  C   UNL     1       7.202   4.444  11.412  0.00  0.00    +0.000 A 
ATOM     19  C   UNL     1       8.115   5.403  11.853  0.00  0.00    +0.000 A 
ATOM     20  C   UNL     1       8.163   5.745  13.204  0.00  0.00    +0.000 A 
ATOM     21  C   UNL     1       7.287   5.139  14.109  0.00  0.00    +0.000 A 
ATOM     22  C   UNL     1       6.394   4.161  13.688  0.00  0.00    +0.000 A 
BRANCH  17  24
ATOM     23  O   UNL     1       4.194   3.042  11.690  0.00  0.00    +0.000 OA
ATOM     24  C   UNL     1       5.365   2.787  11.903  0.00  0.00    +0.000 C 
BRANCH  24  25
ATOM     25  O   UNL     1       5.883   1.545  11.816  0.00  0.00    +0.000 OA
ATOM     26  H   UNL     1       6.846   1.510  11.683  0.00  0.00    +0.000 HD
ENDBRANCH  24  25
ENDBRANCH  17  24
ENDBRANCH  16  21
ENDBRANCH   1  16
TORSDOF 7
ENDMDL
MODEL 5
REMARK VINA RESULT:      -7.5      1.063      1.840
REMARK  Name = 
REMARK  7 active torsions:
REMARK  status: ('A' for Active; 'I' for Inactive)
REMARK    1  A    between atoms: C_2  and  O_3
REMARK    2  A    between atoms: C_2  and  C_4
REMARK    3  A    between atoms: C_8  and  O_9
REMARK    4  A    between atoms: O_9  and  C_10
REMARK    5  A    between atoms: C_10  and  C_12
REMARK    6  A    between atoms: N_15  and  C_16
REMARK    7  A    between atoms: C_16  and  C_17
REMARK                            x       y       z     vdW  Elec       q    Type
REMARK                         _______ _______ _______ _____ _____    ______ ____
ROOT
ATOM      1  C   UNL     1       6.685   5.840  16.233  0.00  0.00    +0.000 C 
ATOM      2  O   UNL     1       7.059   6.883  16.756  0.00  0.00    +0.000 OA
ENDROOT
BRANCH   1   3
ATOM      3  C   UNL     1       5.254   5.402  16.255  0.00  0.00    +0.000 C 
ATOM      4  C   UNL     1       5.105   3.955  16.715  0.00  0.00    +0.000 C 
ATOM      5  C   UNL     1       3.687   3.898  17.248  0.00  0.00    +0.000 C 
ATOM      6  N   UNL     1       3.463   5.233  17.739  0.00  0.00    +0.000 N 
ATOM      7  C   UNL     1       4.340   6.154  17.185  0.00  0.00    +0.000 C 
ATOM      8  O   UNL     1       4.324   7.361  17.362  0.00  0.00    +0.000 OA
BRANCH   6   9
ATOM      9  C   UNL     1       2.263   5.602  18.466  0.00  0.00    +0.000 C 
BRANCH   9  10
ATOM     10  C   UNL     1       1.891   4.621  19.551  0.00  0.00    +0.000 A 
ATOM     11  C   UNL     1       0.968   3.595  19.300  0.00  0.00    +0.000 A 
ATOM     12  C   UNL     1       0.706   2.623  20.267  0.00  0.00    +0.000 A 
ATOM     13  C   UNL     1       1.366   2.663  21.493  0.00  0.00    +0.000 A 
ATOM     14  C   UNL     1       2.275   3.684  21.760  0.00  0.00    +0.000 A 
ATOM     15  C   UNL     1       2.535   4.661  20.796  0.00  0.00    +0.000 A 
ENDBRANCH   9  10
ENDBRANCH   6   9
ENDBRANCH   1   3
BRANCH   1  16
ATOM     16  O   UNL     1       7.472   4.958  15.499  0.00  0.00    +0.000 OA
BRANCH  16  21
ATOM     17  C   UNL     1       6.352   3.624  12.194  0.00  0.00    +0.000 A 
ATOM     18  C   UNL     1       7.046   4.507  11.354  0.00  0.00    +0.000 A 
ATOM     19  C   UNL     1       7.905   5.458  11.905  0.00  0.00    +0.000 A 
ATOM     20  C   UNL     1       8.045   5.546  13.289  0.00  0.00    +0.000 A 
ATOM     21  C   UNL     1       7.314   4.693  14.120  0.00  0.00    +0.000 A 
ATOM     22  C   UNL     1       6.478   3.721  13.584  0.00  0.00    +0.000 A 
BRANCH  17  24
ATOM     23  O   UNL     1       5.759   1.464  11.375  0.00  0.00    +0.000 OA
ATOM     24  C   UNL     1       5.420   2.602  11.645  0.00  0.00    +0.000 C 
BRANCH  24  25
ATOM     25  O   UNL     1       4.175   3.076  11.433  0.00  0.00    +0.000 OA
ATOM     26  H   UNL     1       4.095   4.045  11.463  0.00  0.00    +0.000 HD
ENDBRANCH  24  25
ENDBRANCH  17  24
ENDBRANCH  16  21
ENDBRANCH   1  16
TORSDOF 7
ENDMDL
MODEL 6
REMARK VINA RESULT:      -7.4      1.234      1.801
REMARK  Name = 
REMARK  7 active torsions:
REMARK  status: ('A' for Active; 'I' for Inactive)
REMARK    1  A    between atoms: C_2  and  O_3
REMARK    2  A    between atoms: C_2  and  C_4
REMARK    3  A    between atoms: C_8  and  O_9
REMARK    4  A    between atoms: O_9  and  C_10
REMARK    5  A    between atoms: C_10  and  C_12
REMARK    6  A    between atoms: N_15  and  C_16
REMARK    7  A    between atoms: C_16  and  C_17
REMARK                            x       y       z     vdW  Elec       q    Type
REMARK                         _______ _______ _______ _____ _____    ______ ____
ROOT
ATOM      1  C   UNL     1       7.269   6.120  16.435  0.00  0.00    +0.000 C 
ATOM      2  O   UNL     1       7.805   7.221  16.406  0.00  0.00    +0.000 OA
ENDROOT
BRANCH   1   3
ATOM      3  C   UNL     1       6.014   5.861  17.207  0.00  0.00    +0.000 C 
ATOM      4  C   UNL     1       4.861   5.438  16.302  0.00  0.00    +0.000 C 
ATOM      5  C   UNL     1       3.947   4.664  17.232  0.00  0.00    +0.000 C 
ATOM      6  N   UNL     1       4.857   4.089  18.188  0.00  0.00    +0.000 N 
ATOM      7  C   UNL     1       6.074   4.754  18.226  0.00  0.00    +0.000 C 
ATOM      8  O   UNL     1       6.994   4.530  18.995  0.00  0.00    +0.000 OA
BRANCH   6   9
ATOM      9  C   UNL     1       4.424   3.146  19.202  0.00  0.00    +0.000 C 
BRANCH   9  10
ATOM     10  C   UNL     1       2.933   3.153  19.433  0.00  0.00    +0.000 A 
ATOM     11  C   UNL     1       2.100   2.257  18.746  0.00  0.00    +0.000 A 
ATOM     12  C   UNL     1       0.737   2.188  19.038  0.00  0.00    +0.000 A 
ATOM     13  C   UNL     1       0.192   3.009  20.023  0.00  0.00    +0.000 A 
ATOM     14  C   UNL     1       1.005   3.912  20.703  0.00  0.00    +0.000 A 
ATOM     15  C   UNL     1       2.369   3.988  20.408  0.00  0.00    +0.000 A 
ENDBRANCH   9  10
ENDBRANCH   6   9
ENDBRANCH   1   3
BRANCH   1  16
ATOM     16  O   UNL     1       7.671   4.990  15.731  0.00  0.00    +0.000 OA
BRANCH  16  21
ATOM     17  C   UNL     1       6.380   3.830  12.422  0.00  0.00    +0.000 A 
ATOM     18  C   UNL     1       7.090   4.706  11.589  0.00  0.00    +0.000 A 
ATOM     19  C   UNL     1       8.013   5.595  12.143  0.00  0.00    +0.000 A 
ATOM     20  C   UNL     1       8.202   5.627  13.523  0.00  0.00    +0.000 A 
ATOM     21  C   UNL     1       7.456   4.782  14.350  0.00  0.00    +0.000 A 
ATOM     22  C   UNL     1       6.556   3.871  13.810  0.00  0.00    +0.000 A 
BRANCH  17  24
ATOM     23  O   UNL     1       4.232   3.183  11.614  0.00  0.00    +0.000 OA
ATOM     24  C   UNL     1       5.381   2.874  11.871  0.00  0.00    +0.000 C 
BRANCH  24  25
ATOM     25  O   UNL     1       5.864   1.623  11.729  0.00  0.00    +0.000 OA
ATOM     26  H   UNL     1       5.564   1.156  10.931  0.00  0.00    +0.000 HD
ENDBRANCH  24  25
ENDBRANCH  17  24
ENDBRANCH  16  21
ENDBRANCH   1  16
TORSDOF 7
ENDMDL
MODEL 7
REMARK VINA RESULT:      -7.4      4.239      6.812
REMARK  Name = 
REMARK  7 active torsions:
REMARK  status: ('A' for Active; 'I' for Inactive)
REMARK    1  A    between atoms: C_2  and  O_3
REMARK    2  A    between atoms: C_2  and  C_4
REMARK    3  A    between atoms: C_8  and  O_9
REMARK    4  A    between atoms: O_9  and  C_10
REMARK    5  A    between atoms: C_10  and  C_12
REMARK    6  A    between atoms: N_15  and  C_16
REMARK    7  A    between atoms: C_16  and  C_17
REMARK                            x       y       z     vdW  Elec       q    Type
REMARK                         _______ _______ _______ _____ _____    ______ ____
ROOT
ATOM      1  C   UNL     1       7.626   7.152  17.544  0.00  0.00    +0.000 C 
ATOM      2  O   UNL     1       8.008   6.987  16.392  0.00  0.00    +0.000 OA
ENDROOT
BRANCH   1   3
ATOM      3  C   UNL     1       6.324   6.607  18.042  0.00  0.00    +0.000 C 
ATOM      4  C   UNL     1       5.159   6.984  17.130  0.00  0.00    +0.000 C 
ATOM      5  C   UNL     1       4.130   5.905  17.408  0.00  0.00    +0.000 C 
ATOM      6  N   UNL     1       4.933   4.758  17.743  0.00  0.00    +0.000 N 
ATOM      7  C   UNL     1       6.219   5.108  18.131  0.00  0.00    +0.000 C 
ATOM      8  O   UNL     1       7.080   4.347  18.542  0.00  0.00    +0.000 OA
BRANCH   6   9
ATOM      9  C   UNL     1       4.359   3.443  17.957  0.00  0.00    +0.000 C 
BRANCH   9  10
ATOM     10  C   UNL     1       3.139   3.457  18.846  0.00  0.00    +0.000 A 
ATOM     11  C   UNL     1       1.905   2.990  18.372  0.00  0.00    +0.000 A 
ATOM     12  C   UNL     1       0.803   2.900  19.225  0.00  0.00    +0.000 A 
ATOM     13  C   UNL     1       0.925   3.272  20.562  0.00  0.00    +0.000 A 
ATOM     14  C   UNL     1       2.142   3.750  21.043  0.00  0.00    +0.000 A 
ATOM     15  C   UNL     1       3.243   3.847  20.189  0.00  0.00    +0.000 A 
ENDBRANCH   9  10
ENDBRANCH   6   9
ENDBRANCH   1   3
BRANCH   1  16
ATOM     16  O   UNL     1       8.332   7.782  18.563  0.00  0.00    +0.000 OA
BRANCH  16  21
ATOM     17  C   UNL     1       9.668  11.161  19.436  0.00  0.00    +0.000 A 
ATOM     18  C   UNL     1       9.075  11.905  18.405  0.00  0.00    +0.000 A 
ATOM     19  C   UNL     1       8.208  11.279  17.508  0.00  0.00    +0.000 A 
ATOM     20  C   UNL     1       7.960   9.912  17.623  0.00  0.00    +0.000 A 
ATOM     21  C   UNL     1       8.591   9.170  18.625  0.00  0.00    +0.000 A 
ATOM     22  C   UNL     1       9.433   9.786  19.544  0.00  0.00    +0.000 A 
BRANCH  17  24
ATOM     23  O   UNL     1      11.755  12.081  20.133  0.00  0.00    +0.000 OA
ATOM     24  C   UNL     1      10.605  11.789  20.406  0.00  0.00    +0.000 C 
BRANCH  24  25
ATOM     25  O   UNL     1      10.066  11.960  21.631  0.00  0.00    +0.000 OA
ATOM     26  H   UNL     1      10.655  12.377  22.283  0.00  0.00    +0.000 HD
ENDBRANCH  24  25
ENDBRANCH  17  24
ENDBRANCH  16  21
ENDBRANCH   1  16
TORSDOF 7
ENDMDL
MODEL 8
REMARK VINA RESULT:      -7.4      3.079      5.218
REMARK  Name = 
REMARK  7 active torsions:
REMARK  status: ('A' for Active; 'I' for Inactive)
REMARK    1  A    between atoms: C_2  and  O_3
REMARK    2  A    between atoms: C_2  and  C_4
REMARK    3  A    between atoms: C_8  and  O_9
REMARK    4  A    between atoms: O_9  and  C_10
REMARK    5  A    between atoms: C_10  and  C_12
REMARK    6  A    between atoms: N_15  and  C_16
REMARK    7  A    between atoms: C_16  and  C_17
REMARK                            x       y       z     vdW  Elec       q    Type
REMARK                         _______ _______ _______ _____ _____    ______ ____
ROOT
ATOM      1  C   UNL     1       2.635   3.603  17.935  0.00  0.00    +0.000 C 
ATOM      2  O   UNL     1       2.161   2.915  17.039  0.00  0.00    +0.000 OA
ENDROOT
BRANCH   1   3
ATOM      3  C   UNL     1       1.848   4.675  18.622  0.00  0.00    +0.000 C 
ATOM      4  C   UNL     1       1.675   4.392  20.112  0.00  0.00    +0.000 C 
ATOM      5  C   UNL     1       1.442   5.767  20.707  0.00  0.00    +0.000 C 
ATOM      6  N   UNL     1       2.189   6.637  19.836  0.00  0.00    +0.000 N 
ATOM      7  C   UNL     1       2.444   6.057  18.602  0.00  0.00    +0.000 C 
ATOM      8  O   UNL     1       2.986   6.596  17.651  0.00  0.00    +0.000 OA
BRANCH   6   9
ATOM      9  C   UNL     1       2.357   8.052  20.111  0.00  0.00    +0.000 C 
BRANCH   9  10
ATOM     10  C   UNL     1       1.150   8.882  19.753  0.00  0.00    +0.000 A 
ATOM     11  C   UNL     1       0.273   9.334  20.749  0.00  0.00    +0.000 A 
ATOM     12  C   UNL     1      -0.782  10.193  20.433  0.00  0.00    +0.000 A 
ATOM     13  C   UNL     1      -0.969  10.612  19.118  0.00  0.00    +0.000 A 
ATOM     14  C   UNL     1      -0.113  10.161  18.116  0.00  0.00    +0.000 A 
ATOM     15  C   UNL     1       0.939   9.297  18.429  0.00  0.00    +0.000 A 
ENDBRANCH   9  10
ENDBRANCH   6   9
ENDBRANCH   1   3
BRANCH   1  16
ATOM     16  O   UNL     1       3.901   3.469  18.494  0.00  0.00    +0.000 OA
BRANCH  16  21
ATOM     17  C   UNL     1       6.626   4.699  16.253  0.00  0.00    +0.000 A 
ATOM     18  C   UNL     1       7.345   5.466  17.181  0.00  0.00    +0.000 A 
ATOM     19  C   UNL     1       6.945   5.493  18.517  0.00  0.00    +0.000 A 
ATOM     20  C   UNL     1       5.814   4.782  18.917  0.00  0.00    +0.000 A 
ATOM     21  C   UNL     1       5.077   4.057  17.976  0.00  0.00    +0.000 A 
ATOM     22  C   UNL     1       5.482   3.996  16.648  0.00  0.00    +0.000 A 
BRANCH  17  24
ATOM     23  O   UNL     1       7.747   5.473  14.296  0.00  0.00    +0.000 OA
ATOM     24  C   UNL     1       7.016   4.651  14.817  0.00  0.00    +0.000 C 
BRANCH  24  25
ATOM     25  O   UNL     1       6.441   3.635  14.143  0.00  0.00    +0.000 OA
ATOM     26  H   UNL     1       5.925   3.019  14.691  0.00  0.00    +0.000 HD
ENDBRANCH  24  25
ENDBRANCH  17  24
ENDBRANCH  16  21
ENDBRANCH   1  16
TORSDOF 7
ENDMDL
MODEL 9
REMARK VINA RESULT:      -7.3      4.810      7.028
REMARK  Name = 
REMARK  7 active torsions:
REMARK  status: ('A' for Active; 'I' for Inactive)
REMARK    1  A    between atoms: C_2  and  O_3
REMARK    2  A    between atoms: C_2  and  C_4
REMARK    3  A    between atoms: C_8  and  O_9
REMARK    4  A    between atoms: O_9  and  C_10
REMARK    5  A    between atoms: C_10  and  C_12
REMARK    6  A    between atoms: N_15  and  C_16
REMARK    7  A    between atoms: C_16  and  C_17
REMARK                            x       y       z     vdW  Elec       q    Type
REMARK                         _______ _______ _______ _____ _____    ______ ____
ROOT
ATOM      1  C   UNL     1       2.303   6.336  19.558  0.00  0.00    +0.000 C 
ATOM      2  O   UNL     1       1.944   5.846  20.622  0.00  0.00    +0.000 OA
ENDROOT
BRANCH   1   3
ATOM      3  C   UNL     1       2.387   7.815  19.345  0.00  0.00    +0.000 C 
ATOM      4  C   UNL     1       2.417   8.180  17.864  0.00  0.00    +0.000 C 
ATOM      5  C   UNL     1       1.894   9.603  17.840  0.00  0.00    +0.000 C 
ATOM      6  N   UNL     1       0.991   9.643  18.960  0.00  0.00    +0.000 N 
ATOM      7  C   UNL     1       1.239   8.631  19.877  0.00  0.00    +0.000 C 
ATOM      8  O   UNL     1       0.679   8.477  20.950  0.00  0.00    +0.000 OA
BRANCH   6   9
ATOM      9  C   UNL     1       0.152  10.794  19.241  0.00  0.00    +0.000 C 
BRANCH   9  10
ATOM     10  C   UNL     1      -1.209  10.718  18.594  0.00  0.00    +0.000 A 
ATOM     11  C   UNL     1      -2.246  11.566  19.011  0.00  0.00    +0.000 A 
ATOM     12  C   UNL     1      -3.471  11.573  18.341  0.00  0.00    +0.000 A 
ATOM     13  C   UNL     1      -3.672  10.737  17.246  0.00  0.00    +0.000 A 
ATOM     14  C   UNL     1      -2.655   9.880  16.829  0.00  0.00    +0.000 A 
ATOM     15  C   UNL     1      -1.430   9.867  17.502  0.00  0.00    +0.000 A 
ENDBRANCH   9  10
ENDBRANCH   6   9
ENDBRANCH   1   3
BRANCH   1  16
ATOM     16  O   UNL     1       2.743   5.639  18.437  0.00  0.00    +0.000 OA
BRANCH  16  21
ATOM     17  C   UNL     1       6.468   5.363  18.536  0.00  0.00    +0.000 A 
ATOM     18  C   UNL     1       6.661   4.571  17.394  0.00  0.00    +0.000 A 
ATOM     19  C   UNL     1       5.567   4.217  16.603  0.00  0.00    +0.000 A 
ATOM     20  C   UNL     1       4.286   4.628  16.968  0.00  0.00    +0.000 A 
ATOM     21  C   UNL     1       4.098   5.379  18.132  0.00  0.00    +0.000 A 
ATOM     22  C   UNL     1       5.182   5.763  18.913  0.00  0.00    +0.000 A 
BRANCH  17  24
ATOM     23  O   UNL     1       7.866   5.195  20.461  0.00  0.00    +0.000 OA
ATOM     24  C   UNL     1       7.608   5.753  19.410  0.00  0.00    +0.000 C 
BRANCH  24  25
ATOM     25  O   UNL     1       8.296   6.815  18.944  0.00  0.00    +0.000 OA
ATOM     26  H   UNL     1       8.337   7.574  19.550  0.00  0.00    +0.000 HD
ENDBRANCH  24  25
ENDBRANCH  17  24
ENDBRANCH  16  21
ENDBRANCH   1  16
TORSDOF 7
ENDMDL
