MODEL 1
REMARK VINA RESULT:      -9.0      0.000      0.000
REMARK  Name = 
REMARK  5 active torsions:
REMARK  status: ('A' for Active; 'I' for Inactive)
REMARK    1  A    between atoms: C_2  and  C_3
REMARK    2  A    between atoms: C_6  and  N_7
REMARK    3  A    between atoms: N_7  and  C_8
REMARK    4  A    between atoms: N_7  and  C_14
REMARK    5  A    between atoms: N_17  and  C_18
REMARK                            x       y       z     vdW  Elec       q    Type
REMARK                         _______ _______ _______ _____ _____    ______ ____
ROOT
ATOM      1  N   UNL     1       3.106   5.803  19.387  0.00  0.00    +0.000 N 
ENDROOT
BRANCH   1   5
ATOM      2  C   UNL     1       1.008   9.493  18.912  0.00  0.00    +0.000 A 
ATOM      3  C   UNL     1       1.220   8.954  20.185  0.00  0.00    +0.000 A 
ATOM      4  C   UNL     1       1.950   7.758  20.347  0.00  0.00    +0.000 A 
ATOM      5  C   UNL     1       2.520   7.095  19.249  0.00  0.00    +0.000 A 
ATOM      6  C   UNL     1       2.397   7.727  17.999  0.00  0.00    +0.000 A 
ATOM      7  C   UNL     1       1.611   8.875  17.818  0.00  0.00    +0.000 A 
BRANCH   2   9
ATOM      8  N   UNL     1      -0.516  11.584  18.581  0.00  0.00    +0.000 NA
ATOM      9  C   UNL     1       0.165  10.648  18.724  0.00  0.00    +0.000 C 
ENDBRANCH   2   9
ENDBRANCH   1   5
BRANCH   1  10
ATOM     10  C   UNL     1       2.368   4.574  19.526  0.00  0.00    +0.000 A 
ATOM     11  C   UNL     1       1.501   4.079  18.539  0.00  0.00    +0.000 A 
ATOM     12  C   UNL     1       0.919   2.812  18.638  0.00  0.00    +0.000 A 
ATOM     13  C   UNL     1       1.134   2.078  19.784  0.00  0.00    +0.000 A 
ATOM     14  N   UNL     1       1.841   2.543  20.827  0.00  0.00    +0.000 NA
ATOM     15  C   UNL     1       2.410   3.771  20.678  0.00  0.00    +0.000 A 
ENDBRANCH   1  10
BRANCH   1  16
ATOM     16  C   UNL     1       4.464   5.621  18.739  0.00  0.00    +0.000 C 
ATOM     17  C   UNL     1       4.835   6.731  17.742  0.00  0.00    +0.000 C 
ATOM     18  C   UNL     1       4.767   6.346  16.268  0.00  0.00    +0.000 C 
ATOM     19  N   UNL     1       5.305   4.999  16.083  0.00  0.00    +0.000 N 
ATOM     20  C   UNL     1       4.569   3.957  16.809  0.00  0.00    +0.000 C 
ATOM     21  C   UNL     1       4.770   4.186  18.295  0.00  0.00    +0.000 C 
BRANCH  19  22
ATOM     22  C   UNL     1       5.924   4.650  14.886  0.00  0.00    +0.000 A 
ATOM     23  C   UNL     1       7.141   5.260  14.522  0.00  0.00    +0.000 A 
ATOM     24  C   UNL     1       7.748   5.021  13.283  0.00  0.00    +0.000 A 
ATOM     25  C   UNL     1       7.139   4.160  12.384  0.00  0.00    +0.000 A 
ATOM     26  F   UNL     1       7.697   3.954  11.184  0.00  0.00    +0.000 F 
ATOM     27  C   UNL     1       5.954   3.529  12.726  0.00  0.00    +0.000 A 
ATOM     28  F   UNL     1       5.363   2.693  11.861  0.00  0.00    +0.000 F 
ATOM     29  C   UNL     1       5.352   3.766  13.961  0.00  0.00    +0.000 A 
ENDBRANCH  19  22
ENDBRANCH   1  16
TORSDOF 5
ENDMDL
MODEL 2
REMARK VINA RESULT:      -8.9      0.505      1.249
REMARK  Name = 
REMARK  5 active torsions:
REMARK  status: ('A' for Active; 'I' for Inactive)
REMARK    1  A    between atoms: C_2  and  C_3
REMARK    2  A    between atoms: C_6  and  N_7
REMARK    3  A    between atoms: N_7  and  C_8
REMARK    4  A    between atoms: N_7  and  C_14
REMARK    5  A    between atoms: N_17  and  C_18
REMARK                            x       y       z     vdW  Elec       q    Type
REMARK                         _______ _______ _______ _____ _____    ______ ____
ROOT
ATOM      1  N   UNL     1       3.112   5.797  19.394  0.00  0.00    +0.000 N 
ENDROOT
BRANCH   1   5
ATOM      2  C   UNL     1       1.007   9.486  18.954  0.00  0.00    +0.000 A 
ATOM      3  C   UNL     1       1.216   8.933  20.222  0.00  0.00    +0.000 A 
ATOM      4  C   UNL     1       1.949   7.737  20.373  0.00  0.00    +0.000 A 
ATOM      5  C   UNL     1       2.524   7.088  19.269  0.00  0.00    +0.000 A 
ATOM      6  C   UNL     1       2.403   7.734  18.026  0.00  0.00    +0.000 A 
ATOM      7  C   UNL     1       1.614   8.883  17.856  0.00  0.00    +0.000 A 
BRANCH   2   9
ATOM      8  N   UNL     1      -0.521  11.579  18.643  0.00  0.00    +0.000 NA
ATOM      9  C   UNL     1       0.161  10.642  18.778  0.00  0.00    +0.000 C 
ENDBRANCH   2   9
ENDBRANCH   1   5
BRANCH   1  10
ATOM     10  C   UNL     1       2.377   4.567  19.542  0.00  0.00    +0.000 A 
ATOM     11  C   UNL     1       1.490   4.077  18.571  0.00  0.00    +0.000 A 
ATOM     12  C   UNL     1       0.911   2.809  18.675  0.00  0.00    +0.000 A 
ATOM     13  C   UNL     1       1.150   2.069  19.813  0.00  0.00    +0.000 A 
ATOM     14  N   UNL     1       1.878   2.530  20.843  0.00  0.00    +0.000 NA
ATOM     15  C   UNL     1       2.443   3.758  20.689  0.00  0.00    +0.000 A 
ENDBRANCH   1  10
BRANCH   1  16
ATOM     16  C   UNL     1       4.460   5.617  18.724  0.00  0.00    +0.000 C 
ATOM     17  C   UNL     1       4.861   6.782  17.803  0.00  0.00    +0.000 C 
ATOM     18  C   UNL     1       4.771   6.505  16.307  0.00  0.00    +0.000 C 
ATOM     19  N   UNL     1       5.263   5.158  16.023  0.00  0.00    +0.000 N 
ATOM     20  C   UNL     1       4.499   4.091  16.680  0.00  0.00    +0.000 C 
ATOM     21  C   UNL     1       4.716   4.208  18.177  0.00  0.00    +0.000 C 
BRANCH  19  22
ATOM     22  C   UNL     1       5.863   4.874  14.799  0.00  0.00    +0.000 A 
ATOM     23  C   UNL     1       5.298   3.905  13.947  0.00  0.00    +0.000 A 
ATOM     24  C   UNL     1       5.921   3.510  12.757  0.00  0.00    +0.000 A 
ATOM     25  C   UNL     1       7.129   4.087  12.400  0.00  0.00    +0.000 A 
ATOM     26  F   UNL     1       7.747   3.688  11.280  0.00  0.00    +0.000 F 
ATOM     27  C   UNL     1       7.697   5.059  13.208  0.00  0.00    +0.000 A 
ATOM     28  F   UNL     1       8.864   5.621  12.865  0.00  0.00    +0.000 F 
ATOM     29  C   UNL     1       7.074   5.452  14.392  0.00  0.00    +0.000 A 
ENDBRANCH  19  22
ENDBRANCH   1  16
TORSDOF 5
ENDMDL
MODEL 3
REMARK VINA RESULT:      -8.9      4.372      8.177
REMARK  Name = 
REMARK  5 active torsions:
REMARK  status: ('A' for Active; 'I' for Inactive)
REMARK    1  A    between atoms: C_2  and  C_3
REMARK    2  A    between atoms: C_6  and  N_7
REMARK    3  A    between atoms: N_7  and  C_8
REMARK    4  A    between atoms: N_7  and  C_14
REMARK    5  A    between atoms: N_17  and  C_18
REMARK                            x       y       z     vdW  Elec       q    Type
REMARK                         _______ _______ _______ _____ _____    ______ ____
ROOT
ATOM      1  N   UNL     1       3.751   5.107  17.568  0.00  0.00    +0.000 N 
ENDROOT
BRANCH   1   5
ATOM      2  C   UNL     1       6.910   5.231  14.697  0.00  0.00    +0.000 A 
ATOM      3  C   UNL     1       7.119   5.682  16.004  0.00  0.00    +0.000 A 
ATOM      4  C   UNL     1       6.090   5.601  16.966  0.00  0.00    +0.000 A 
ATOM      5  C   UNL     1       4.845   5.033  16.658  0.00  0.00    +0.000 A 
ATOM      6  C   UNL     1       4.707   4.475  15.374  0.00  0.00    +0.000 A 
ATOM      7  C   UNL     1       5.698   4.617  14.390  0.00  0.00    +0.000 A 
BRANCH   2   9
ATOM      8  N   UNL     1       8.719   5.569  12.848  0.00  0.00    +0.000 NA
ATOM      9  C   UNL     1       7.914   5.416  13.677  0.00  0.00    +0.000 C 
ENDBRANCH   2   9
ENDBRANCH   1   5
BRANCH   1  10
ATOM     10  C   UNL     1       2.951   3.985  17.989  0.00  0.00    +0.000 A 
ATOM     11  C   UNL     1       3.492   2.822  18.558  0.00  0.00    +0.000 A 
ATOM     12  C   UNL     1       2.680   1.818  19.094  0.00  0.00    +0.000 A 
ATOM     13  C   UNL     1       1.313   1.942  18.968  0.00  0.00    +0.000 A 
ATOM     14  N   UNL     1       0.730   2.960  18.316  0.00  0.00    +0.000 NA
ATOM     15  C   UNL     1       1.556   3.927  17.832  0.00  0.00    +0.000 A 
ENDBRANCH   1  10
BRANCH   1  16
ATOM     16  C   UNL     1       3.824   6.216  18.600  0.00  0.00    +0.000 C 
ATOM     17  C   UNL     1       3.270   5.824  19.979  0.00  0.00    +0.000 C 
ATOM     18  C   UNL     1       1.913   6.418  20.341  0.00  0.00    +0.000 C 
ATOM     19  N   UNL     1       1.852   7.813  19.907  0.00  0.00    +0.000 N 
ATOM     20  C   UNL     1       2.003   7.996  18.459  0.00  0.00    +0.000 C 
ATOM     21  C   UNL     1       3.416   7.598  18.078  0.00  0.00    +0.000 C 
BRANCH  19  22
ATOM     22  C   UNL     1       1.072   8.730  20.605  0.00  0.00    +0.000 A 
ATOM     23  C   UNL     1       0.550   9.858  19.940  0.00  0.00    +0.000 A 
ATOM     24  C   UNL     1      -0.150  10.862  20.621  0.00  0.00    +0.000 A 
ATOM     25  C   UNL     1      -0.340  10.747  21.989  0.00  0.00    +0.000 A 
ATOM     26  F   UNL     1      -0.980  11.721  22.651  0.00  0.00    +0.000 F 
ATOM     27  C   UNL     1       0.142   9.638  22.664  0.00  0.00    +0.000 A 
ATOM     28  F   UNL     1      -0.042   9.522  23.987  0.00  0.00    +0.000 F 
ATOM     29  C   UNL     1       0.837   8.639  21.984  0.00  0.00    +0.000 A 
ENDBRANCH  19  22
ENDBRANCH   1  16
TORSDOF 5
ENDMDL
MODEL 4
REMARK VINA RESULT:      -8.7      4.250      8.138
REMARK  Name = 
REMARK  5 active torsions:
REMARK  status: ('A' for Active; 'I' for Inactive)
REMARK    1  A    between atoms: C_2  and  C_3
REMARK    2  A    between atoms: C_6  and  N_7
REMARK    3  A    between atoms: N_7  and  C_8
REMARK    4  A    between atoms: N_7  and  C_14
REMARK    5  A    between atoms: N_17  and  C_18
REMARK                            x       y       z     vdW  Elec       q    Type
REMARK                         _______ _______ _______ _____ _____    ______ ____
ROOT
ATOM      1  N   UNL     1       3.691   5.121  17.597  0.00  0.00    +0.000 N 
ENDROOT
BRANCH   1   5
ATOM      2  C   UNL     1       6.844   5.197  14.717  0.00  0.00    +0.000 A 
ATOM      3  C   UNL     1       7.052   5.680  16.013  0.00  0.00    +0.000 A 
ATOM      4  C   UNL     1       6.026   5.616  16.978  0.00  0.00    +0.000 A 
ATOM      5  C   UNL     1       4.783   5.033  16.686  0.00  0.00    +0.000 A 
ATOM      6  C   UNL     1       4.647   4.445  15.416  0.00  0.00    +0.000 A 
ATOM      7  C   UNL     1       5.635   4.569  14.426  0.00  0.00    +0.000 A 
BRANCH   2   9
ATOM      8  N   UNL     1       8.656   5.493  12.863  0.00  0.00    +0.000 NA
ATOM      9  C   UNL     1       7.844   5.365  13.691  0.00  0.00    +0.000 C 
ENDBRANCH   2   9
ENDBRANCH   1   5
BRANCH   1  10
ATOM     10  C   UNL     1       2.867   4.013  18.007  0.00  0.00    +0.000 A 
ATOM     11  C   UNL     1       3.381   2.846  18.594  0.00  0.00    +0.000 A 
ATOM     12  C   UNL     1       2.545   1.857  19.119  0.00  0.00    +0.000 A 
ATOM     13  C   UNL     1       1.183   1.997  18.964  0.00  0.00    +0.000 A 
ATOM     14  N   UNL     1       0.626   3.019  18.295  0.00  0.00    +0.000 NA
ATOM     15  C   UNL     1       1.476   3.972  17.821  0.00  0.00    +0.000 A 
ENDBRANCH   1  10
BRANCH   1  16
ATOM     16  C   UNL     1       3.786   6.219  18.638  0.00  0.00    +0.000 C 
ATOM     17  C   UNL     1       3.221   5.828  20.013  0.00  0.00    +0.000 C 
ATOM     18  C   UNL     1       1.876   6.449  20.377  0.00  0.00    +0.000 C 
ATOM     19  N   UNL     1       1.847   7.848  19.955  0.00  0.00    +0.000 N 
ATOM     20  C   UNL     1       2.005   8.040  18.509  0.00  0.00    +0.000 C 
ATOM     21  C   UNL     1       3.410   7.615  18.127  0.00  0.00    +0.000 C 
BRANCH  19  22
ATOM     22  C   UNL     1       1.086   8.776  20.660  0.00  0.00    +0.000 A 
ATOM     23  C   UNL     1       1.031   8.716  22.067  0.00  0.00    +0.000 A 
ATOM     24  C   UNL     1       0.198   9.559  22.813  0.00  0.00    +0.000 A 
ATOM     25  C   UNL     1      -0.597  10.483  22.154  0.00  0.00    +0.000 A 
ATOM     26  F   UNL     1      -1.421  11.269  22.860  0.00  0.00    +0.000 F 
ATOM     27  C   UNL     1      -0.545  10.580  20.773  0.00  0.00    +0.000 A 
ATOM     28  F   UNL     1      -1.311  11.474  20.132  0.00  0.00    +0.000 F 
ATOM     29  C   UNL     1       0.286   9.741  20.032  0.00  0.00    +0.000 A 
ENDBRANCH  19  22
ENDBRANCH   1  16
TORSDOF 5
ENDMDL
MODEL 5
REMARK VINA RESULT:      -8.3      4.097      8.012
REMARK  Name = 
REMARK  5 active torsions:
REMARK  status: ('A' for Active; 'I' for Inactive)
REMARK    1  A    between atoms: C_2  and  C_3
REMARK    2  A    between atoms: C_6  and  N_7
REMARK    3  A    between atoms: N_7  and  C_8
REMARK    4  A    between atoms: N_7  and  C_14
REMARK    5  A    between atoms: N_17  and  C_18
REMARK                            x       y       z     vdW  Elec       q    Type
REMARK                         _______ _______ _______ _____ _____    ______ ____
ROOT
ATOM      1  N   UNL     1       3.527   5.426  17.917  0.00  0.00    +0.000 N 
ENDROOT
BRANCH   1   5
ATOM      2  C   UNL     1       6.627   5.201  14.988  0.00  0.00    +0.000 A 
ATOM      3  C   UNL     1       6.821   5.914  16.176  0.00  0.00    +0.000 A 
ATOM      4  C   UNL     1       5.814   5.953  17.163  0.00  0.00    +0.000 A 
ATOM      5  C   UNL     1       4.610   5.250  17.008  0.00  0.00    +0.000 A 
ATOM      6  C   UNL     1       4.496   4.442  15.862  0.00  0.00    +0.000 A 
ATOM      7  C   UNL     1       5.459   4.456  14.841  0.00  0.00    +0.000 A 
BRANCH   2   9
ATOM      8  N   UNL     1       8.381   5.297  13.059  0.00  0.00    +0.000 NA
ATOM      9  C   UNL     1       7.600   5.251  13.924  0.00  0.00    +0.000 C 
ENDBRANCH   2   9
ENDBRANCH   1   5
BRANCH   1  10
ATOM     10  C   UNL     1       2.834   4.358  18.590  0.00  0.00    +0.000 A 
ATOM     11  C   UNL     1       1.513   3.988  18.292  0.00  0.00    +0.000 A 
ATOM     12  C   UNL     1       0.922   2.853  18.854  0.00  0.00    +0.000 A 
ATOM     13  C   UNL     1       1.632   2.140  19.796  0.00  0.00    +0.000 A 
ATOM     14  N   UNL     1       2.847   2.512  20.229  0.00  0.00    +0.000 NA
ATOM     15  C   UNL     1       3.394   3.610  19.638  0.00  0.00    +0.000 A 
ENDBRANCH   1  10
BRANCH   1  16
ATOM     16  C   UNL     1       3.517   6.731  18.688  0.00  0.00    +0.000 C 
ATOM     17  C   UNL     1       2.793   6.652  20.042  0.00  0.00    +0.000 C 
ATOM     18  C   UNL     1       1.424   7.321  20.102  0.00  0.00    +0.000 C 
ATOM     19  N   UNL     1       1.462   8.589  19.376  0.00  0.00    +0.000 N 
ATOM     20  C   UNL     1       1.786   8.453  17.951  0.00  0.00    +0.000 C 
ATOM     21  C   UNL     1       3.219   7.971  17.837  0.00  0.00    +0.000 C 
BRANCH  19  22
ATOM     22  C   UNL     1       0.637   9.642  19.762  0.00  0.00    +0.000 A 
ATOM     23  C   UNL     1       0.383   9.870  21.129  0.00  0.00    +0.000 A 
ATOM     24  C   UNL     1      -0.521  10.848  21.563  0.00  0.00    +0.000 A 
ATOM     25  C   UNL     1      -1.187  11.619  20.623  0.00  0.00    +0.000 A 
ATOM     26  F   UNL     1      -2.078  12.532  21.031  0.00  0.00    +0.000 F 
ATOM     27  C   UNL     1      -0.939  11.431  19.273  0.00  0.00    +0.000 A 
ATOM     28  F   UNL     1      -1.580  12.177  18.362  0.00  0.00    +0.000 F 
ATOM     29  C   UNL     1      -0.038  10.459  18.844  0.00  0.00    +0.000 A 
ENDBRANCH  19  22
ENDBRANCH   1  16
TORSDOF 5
ENDMDL
MODEL 6
REMARK VINA RESULT:      -8.3      3.751      7.542
REMARK  Name = 
REMARK  5 active torsions:
REMARK  status: ('A' for Active; 'I' for Inactive)
REMARK    1  A    between atoms: C_2  and  C_3
REMARK    2  A    between atoms: C_6  and  N_7
REMARK    3  A    between atoms: N_7  and  C_8
REMARK    4  A    between atoms: N_7  and  C_14
REMARK    5  A    between atoms: N_17  and  C_18
REMARK                            x       y       z     vdW  Elec       q    Type
REMARK                         _______ _______ _______ _____ _____    ______ ____
ROOT
ATOM      1  N   UNL     1      -0.637  11.715  20.950  0.00  0.00    +0.000 N 
ENDROOT
BRANCH   1   5
ATOM      2  C   UNL     1       2.104  14.247  18.875  0.00  0.00    +0.000 A 
ATOM      3  C   UNL     1       0.738  14.281  18.575  0.00  0.00    +0.000 A 
ATOM      4  C   UNL     1      -0.174  13.477  19.289  0.00  0.00    +0.000 A 
ATOM      5  C   UNL     1       0.247  12.653  20.344  0.00  0.00    +0.000 A 
ATOM      6  C   UNL     1       1.605  12.736  20.704  0.00  0.00    +0.000 A 
ATOM      7  C   UNL     1       2.531  13.475  19.952  0.00  0.00    +0.000 A 
BRANCH   2   9
ATOM      8  N   UNL     1       3.824  15.569  17.424  0.00  0.00    +0.000 NA
ATOM      9  C   UNL     1       3.059  14.975  18.074  0.00  0.00    +0.000 C 
ENDBRANCH   2   9
ENDBRANCH   1   5
BRANCH   1  10
ATOM     10  C   UNL     1      -1.880  12.052  21.597  0.00  0.00    +0.000 A 
ATOM     11  C   UNL     1      -2.093  11.910  22.977  0.00  0.00    +0.000 A 
ATOM     12  C   UNL     1      -3.253  12.387  23.595  0.00  0.00    +0.000 A 
ATOM     13  C   UNL     1      -4.246  12.923  22.805  0.00  0.00    +0.000 A 
ATOM     14  N   UNL     1      -4.168  12.967  21.465  0.00  0.00    +0.000 NA
ATOM     15  C   UNL     1      -3.012  12.514  20.907  0.00  0.00    +0.000 A 
ENDBRANCH   1  10
BRANCH   1  16
ATOM     16  C   UNL     1      -0.624  10.318  20.361  0.00  0.00    +0.000 C 
ATOM     17  C   UNL     1      -0.061   9.245  21.308  0.00  0.00    +0.000 C 
ATOM     18  C   UNL     1       1.335   8.732  20.973  0.00  0.00    +0.000 C 
ATOM     19  N   UNL     1       1.465   8.560  19.527  0.00  0.00    +0.000 N 
ATOM     20  C   UNL     1       1.292   9.798  18.759  0.00  0.00    +0.000 C 
ATOM     21  C   UNL     1      -0.150  10.246  18.905  0.00  0.00    +0.000 C 
BRANCH  19  22
ATOM     22  C   UNL     1       2.312   7.582  19.012  0.00  0.00    +0.000 A 
ATOM     23  C   UNL     1       2.532   6.392  19.734  0.00  0.00    +0.000 A 
ATOM     24  C   UNL     1       3.455   5.428  19.309  0.00  0.00    +0.000 A 
ATOM     25  C   UNL     1       4.173   5.643  18.144  0.00  0.00    +0.000 A 
ATOM     26  F   UNL     1       5.081   4.740  17.752  0.00  0.00    +0.000 F 
ATOM     27  C   UNL     1       3.960   6.794  17.403  0.00  0.00    +0.000 A 
ATOM     28  F   UNL     1       4.651   7.005  16.274  0.00  0.00    +0.000 F 
ATOM     29  C   UNL     1       3.040   7.752  17.826  0.00  0.00    +0.000 A 
ENDBRANCH  19  22
ENDBRANCH   1  16
TORSDOF 5
ENDMDL
MODEL 7
REMARK VINA RESULT:      -8.2      3.926      7.708
REMARK  Name = 
REMARK  5 active torsions:
REMARK  status: ('A' for Active; 'I' for Inactive)
REMARK    1  A    between atoms: C_2  and  C_3
REMARK    2  A    between atoms: C_6  and  N_7
REMARK    3  A    between atoms: N_7  and  C_8
REMARK    4  A    between atoms: N_7  and  C_14
REMARK    5  A    between atoms: N_17  and  C_18
REMARK                            x       y       z     vdW  Elec       q    Type
REMARK                         _______ _______ _______ _____ _____    ______ ____
ROOT
ATOM      1  N   UNL     1      -0.803  11.924  19.971  0.00  0.00    +0.000 N 
ENDROOT
BRANCH   1   5
ATOM      2  C   UNL     1      -4.143  12.744  22.502  0.00  0.00    +0.000 A 
ATOM      3  C   UNL     1      -2.909  12.376  23.049  0.00  0.00    +0.000 A 
ATOM      4  C   UNL     1      -1.794  12.147  22.217  0.00  0.00    +0.000 A 
ATOM      5  C   UNL     1      -1.871  12.319  20.827  0.00  0.00    +0.000 A 
ATOM      6  C   UNL     1      -3.088  12.810  20.320  0.00  0.00    +0.000 A 
ATOM      7  C   UNL     1      -4.223  12.969  21.130  0.00  0.00    +0.000 A 
BRANCH   2   9
ATOM      8  N   UNL     1      -6.268  12.970  23.999  0.00  0.00    +0.000 NA
ATOM      9  C   UNL     1      -5.318  12.864  23.331  0.00  0.00    +0.000 C 
ENDBRANCH   2   9
ENDBRANCH   1   5
BRANCH   1  10
ATOM     10  C   UNL     1       0.468  12.595  19.874  0.00  0.00    +0.000 A 
ATOM     11  C   UNL     1       0.896  13.275  18.723  0.00  0.00    +0.000 A 
ATOM     12  C   UNL     1       2.063  14.043  18.712  0.00  0.00    +0.000 A 
ATOM     13  C   UNL     1       2.857  14.048  19.839  0.00  0.00    +0.000 A 
ATOM     14  N   UNL     1       2.580  13.315  20.929  0.00  0.00    +0.000 NA
ATOM     15  C   UNL     1       1.422  12.601  20.906  0.00  0.00    +0.000 A 
ENDBRANCH   1  10
BRANCH   1  16
ATOM     16  C   UNL     1      -0.729  10.445  19.646  0.00  0.00    +0.000 C 
ATOM     17  C   UNL     1      -0.149   9.583  20.779  0.00  0.00    +0.000 C 
ATOM     18  C   UNL     1       1.271   9.071  20.562  0.00  0.00    +0.000 C 
ATOM     19  N   UNL     1       1.435   8.645  19.173  0.00  0.00    +0.000 N 
ATOM     20  C   UNL     1       1.235   9.716  18.191  0.00  0.00    +0.000 C 
ATOM     21  C   UNL     1      -0.224  10.128  18.233  0.00  0.00    +0.000 C 
BRANCH  19  22
ATOM     22  C   UNL     1       2.325   7.622  18.856  0.00  0.00    +0.000 A 
ATOM     23  C   UNL     1       2.491   6.536  19.738  0.00  0.00    +0.000 A 
ATOM     24  C   UNL     1       3.449   5.539  19.514  0.00  0.00    +0.000 A 
ATOM     25  C   UNL     1       4.259   5.616  18.393  0.00  0.00    +0.000 A 
ATOM     26  F   UNL     1       5.200   4.684  18.192  0.00  0.00    +0.000 F 
ATOM     27  C   UNL     1       4.102   6.661  17.497  0.00  0.00    +0.000 A 
ATOM     28  F   UNL     1       4.882   6.739  16.410  0.00  0.00    +0.000 F 
ATOM     29  C   UNL     1       3.147   7.652  17.720  0.00  0.00    +0.000 A 
ENDBRANCH  19  22
ENDBRANCH   1  16
TORSDOF 5
ENDMDL
MODEL 8
REMARK VINA RESULT:      -8.2      3.798      7.551
REMARK  Name = 
REMARK  5 active torsions:
REMARK  status: ('A' for Active; 'I' for Inactive)
REMARK    1  A    between atoms: C_2  and  C_3
REMARK    2  A    between atoms: C_6  and  N_7
REMARK    3  A    between atoms: N_7  and  C_8
REMARK    4  A    between atoms: N_7  and  C_14
REMARK    5  A    between atoms: N_17  and  C_18
REMARK                            x       y       z     vdW  Elec       q    Type
REMARK                         _______ _______ _______ _____ _____    ______ ____
ROOT
ATOM      1  N   UNL     1      -0.545  11.780  20.774  0.00  0.00    +0.000 N 
ENDROOT
BRANCH   1   5
ATOM      2  C   UNL     1       1.902  14.926  19.238  0.00  0.00    +0.000 A 
ATOM      3  C   UNL     1       2.433  13.974  20.114  0.00  0.00    +0.000 A 
ATOM      4  C   UNL     1       1.638  12.910  20.589  0.00  0.00    +0.000 A 
ATOM      5  C   UNL     1       0.310  12.746  20.168  0.00  0.00    +0.000 A 
ATOM      6  C   UNL     1      -0.157  13.644  19.191  0.00  0.00    +0.000 A 
ATOM      7  C   UNL     1       0.601  14.748  18.771  0.00  0.00    +0.000 A 
BRANCH   2   9
ATOM      8  N   UNL     1       3.282  17.019  18.516  0.00  0.00    +0.000 NA
ATOM      9  C   UNL     1       2.669  16.082  18.841  0.00  0.00    +0.000 C 
ENDBRANCH   2   9
ENDBRANCH   1   5
BRANCH   1  10
ATOM     10  C   UNL     1      -1.763  12.085  21.481  0.00  0.00    +0.000 A 
ATOM     11  C   UNL     1      -1.903  11.947  22.870  0.00  0.00    +0.000 A 
ATOM     12  C   UNL     1      -3.043  12.394  23.543  0.00  0.00    +0.000 A 
ATOM     13  C   UNL     1      -4.091  12.894  22.801  0.00  0.00    +0.000 A 
ATOM     14  N   UNL     1      -4.082  12.930  21.459  0.00  0.00    +0.000 NA
ATOM     15  C   UNL     1      -2.942  12.508  20.845  0.00  0.00    +0.000 A 
ENDBRANCH   1  10
BRANCH   1  16
ATOM     16  C   UNL     1      -0.546  10.406  20.134  0.00  0.00    +0.000 C 
ATOM     17  C   UNL     1      -0.102   9.277  21.078  0.00  0.00    +0.000 C 
ATOM     18  C   UNL     1       1.292   8.713  20.828  0.00  0.00    +0.000 C 
ATOM     19  N   UNL     1       1.522   8.586  19.390  0.00  0.00    +0.000 N 
ATOM     20  C   UNL     1       1.460   9.856  18.659  0.00  0.00    +0.000 C 
ATOM     21  C   UNL     1       0.032  10.363  18.715  0.00  0.00    +0.000 C 
BRANCH  19  22
ATOM     22  C   UNL     1       2.363   7.590  18.901  0.00  0.00    +0.000 A 
ATOM     23  C   UNL     1       2.524   6.390  19.622  0.00  0.00    +0.000 A 
ATOM     24  C   UNL     1       3.437   5.404  19.227  0.00  0.00    +0.000 A 
ATOM     25  C   UNL     1       4.207   5.608  18.093  0.00  0.00    +0.000 A 
ATOM     26  F   UNL     1       5.106   4.684  17.730  0.00  0.00    +0.000 F 
ATOM     27  C   UNL     1       4.053   6.769  17.352  0.00  0.00    +0.000 A 
ATOM     28  F   UNL     1       4.794   6.969  16.253  0.00  0.00    +0.000 F 
ATOM     29  C   UNL     1       3.142   7.748  17.746  0.00  0.00    +0.000 A 
ENDBRANCH  19  22
ENDBRANCH   1  16
TORSDOF 5
ENDMDL
MODEL 9
REMARK VINA RESULT:      -8.2      4.104      7.839
REMARK  Name = 
REMARK  5 active torsions:
REMARK  status: ('A' for Active; 'I' for Inactive)
REMARK    1  A    between atoms: C_2  and  C_3
REMARK    2  A    between atoms: C_6  and  N_7
REMARK    3  A    between atoms: N_7  and  C_8
REMARK    4  A    between atoms: N_7  and  C_14
REMARK    5  A    between atoms: N_17  and  C_18
REMARK                            x       y       z     vdW  Elec       q    Type
REMARK                         _______ _______ _______ _____ _____    ______ ____
ROOT
ATOM      1  N   UNL     1      -0.858  11.965  19.924  0.00  0.00    +0.000 N 
ENDROOT
BRANCH   1   5
ATOM      2  C   UNL     1      -4.170  12.768  22.499  0.00  0.00    +0.000 A 
ATOM      3  C   UNL     1      -2.892  12.555  23.028  0.00  0.00    +0.000 A 
ATOM      4  C   UNL     1      -1.789  12.333  22.177  0.00  0.00    +0.000 A 
ATOM      5  C   UNL     1      -1.927  12.359  20.780  0.00  0.00    +0.000 A 
ATOM      6  C   UNL     1      -3.196  12.699  20.279  0.00  0.00    +0.000 A 
ATOM      7  C   UNL     1      -4.313  12.848  21.116  0.00  0.00    +0.000 A 
BRANCH   2   9
ATOM      8  N   UNL     1      -6.252  12.959  24.059  0.00  0.00    +0.000 NA
ATOM      9  C   UNL     1      -5.322  12.877  23.360  0.00  0.00    +0.000 C 
ENDBRANCH   2   9
ENDBRANCH   1   5
BRANCH   1  10
ATOM     10  C   UNL     1       0.411  12.640  19.825  0.00  0.00    +0.000 A 
ATOM     11  C   UNL     1       0.812  13.365  18.693  0.00  0.00    +0.000 A 
ATOM     12  C   UNL     1       1.980  14.134  18.686  0.00  0.00    +0.000 A 
ATOM     13  C   UNL     1       2.799  14.094  19.794  0.00  0.00    +0.000 A 
ATOM     14  N   UNL     1       2.547  13.317  20.860  0.00  0.00    +0.000 NA
ATOM     15  C   UNL     1       1.388  12.604  20.834  0.00  0.00    +0.000 A 
ENDBRANCH   1  10
BRANCH   1  16
ATOM     16  C   UNL     1      -0.781  10.486  19.600  0.00  0.00    +0.000 C 
ATOM     17  C   UNL     1      -0.308   9.613  20.773  0.00  0.00    +0.000 C 
ATOM     18  C   UNL     1       1.116   9.079  20.670  0.00  0.00    +0.000 C 
ATOM     19  N   UNL     1       1.386   8.654  19.298  0.00  0.00    +0.000 N 
ATOM     20  C   UNL     1       1.284   9.731  18.306  0.00  0.00    +0.000 C 
ATOM     21  C   UNL     1      -0.168  10.166  18.232  0.00  0.00    +0.000 C 
BRANCH  19  22
ATOM     22  C   UNL     1       2.284   7.619  19.049  0.00  0.00    +0.000 A 
ATOM     23  C   UNL     1       3.084   7.646  17.889  0.00  0.00    +0.000 A 
ATOM     24  C   UNL     1       3.922   6.580  17.542  0.00  0.00    +0.000 A 
ATOM     25  C   UNL     1       3.973   5.463  18.360  0.00  0.00    +0.000 A 
ATOM     26  F   UNL     1       4.747   4.425  18.015  0.00  0.00    +0.000 F 
ATOM     27  C   UNL     1       3.214   5.419  19.519  0.00  0.00    +0.000 A 
ATOM     28  F   UNL     1       3.262   4.341  20.314  0.00  0.00    +0.000 F 
ATOM     29  C   UNL     1       2.381   6.482  19.864  0.00  0.00    +0.000 A 
ENDBRANCH  19  22
ENDBRANCH   1  16
TORSDOF 5
ENDMDL
