MODEL 1
REMARK VINA RESULT:      -8.1      0.000      0.000
REMARK  Name = 
REMARK  8 active torsions:
REMARK  status: ('A' for Active; 'I' for Inactive)
REMARK    1  A    between atoms: C_1  and  O_2
REMARK    2  A    between atoms: O_2  and  C_3
REMARK    3  A    between atoms: C_3  and  C_4
REMARK    4  A    between atoms: C_9  and  O_10
REMARK    5  A    between atoms: C_11  and  C_12
REMARK    6  A    between atoms: N_14  and  C_15
REMARK    7  A    between atoms: N_14  and  C_16
REMARK    8  A    between atoms: C_19  and  N_20
REMARK                            x       y       z     vdW  Elec       q    Type
REMARK                         _______ _______ _______ _____ _____    ______ ____
ROOT
ATOM      1  C   UNL     1       2.268   6.893  19.400  0.00  0.00    +0.000 C 
ATOM      2  O   UNL     1       1.784   6.411  20.433  0.00  0.00    +0.000 OA
ATOM      3  N   UNL     1       1.946   8.200  18.931  0.00  0.00    +0.000 N 
ATOM      4  C   UNL     1       2.481   8.728  17.678  0.00  0.00    +0.000 C 
ENDROOT
BRANCH   1  11
ATOM      5  C   UNL     1       6.782   5.489  17.469  0.00  0.00    +0.000 A 
ATOM      6  N   UNL     1       7.136   4.427  16.728  0.00  0.00    +0.000 NA
ATOM      7  N   UNL     1       6.008   3.710  16.629  0.00  0.00    +0.000 N 
ATOM      8  C   UNL     1       4.921   4.290  17.224  0.00  0.00    +0.000 A 
ATOM      9  C   UNL     1       3.573   3.932  17.243  0.00  0.00    +0.000 A 
ATOM     10  C   UNL     1       2.681   4.793  17.909  0.00  0.00    +0.000 A 
ATOM     11  C   UNL     1       3.122   5.905  18.634  0.00  0.00    +0.000 A 
ATOM     12  C   UNL     1       4.504   6.233  18.577  0.00  0.00    +0.000 A 
ATOM     13  C   UNL     1       5.405   5.435  17.840  0.00  0.00    +0.000 A 
ATOM     14  H   UNL     1       6.036   2.848  16.098  0.00  0.00    +0.000 HD
BRANCH  10  15
ATOM     15  O   UNL     1       1.349   4.515  17.759  0.00  0.00    +0.000 OA
ATOM     16  H   UNL     1       1.188   3.580  17.971  0.00  0.00    +0.000 HD
ENDBRANCH  10  15
BRANCH   5  17
ATOM     17  C   UNL     1       7.768   6.583  17.736  0.00  0.00    +0.000 C 
BRANCH  17  19
ATOM     18  C   UNL     1       7.989   8.922  17.813  0.00  0.00    +0.000 C 
ATOM     19  O   UNL     1       7.368   7.825  17.152  0.00  0.00    +0.000 OA
ENDBRANCH  17  19
ENDBRANCH   5  17
ENDBRANCH   1  11
BRANCH   3  20
ATOM     20  C   UNL     1       1.118   9.103  19.723  0.00  0.00    +0.000 A 
ATOM     21  C   UNL     1       1.146   9.118  21.122  0.00  0.00    +0.000 A 
ATOM     22  C   UNL     1       0.341   9.994  21.874  0.00  0.00    +0.000 A 
ATOM     23  C   UNL     1      -0.509  10.921  21.268  0.00  0.00    +0.000 A 
ATOM     24  C   UNL     1      -0.546  10.912  19.876  0.00  0.00    +0.000 A 
ATOM     25  C   UNL     1       0.243  10.023  19.123  0.00  0.00    +0.000 A 
BRANCH  23  26
ATOM     26  N   UNL     1      -1.200  11.841  22.045  0.00  0.00    +0.000 N 
ATOM     27  C   UNL     1      -1.964  11.380  23.215  0.00  0.00    +0.000 C 
ATOM     28  C   UNL     1      -3.006  12.454  23.567  0.00  0.00    +0.000 C 
ATOM     29  O   UNL     1      -2.378  13.718  23.843  0.00  0.00    +0.000 OA
ATOM     30  C   UNL     1      -1.627  14.165  22.698  0.00  0.00    +0.000 C 
ATOM     31  C   UNL     1      -0.550  13.146  22.283  0.00  0.00    +0.000 C 
ENDBRANCH  23  26
ENDBRANCH   3  20
TORSDOF 6
ENDMDL
MODEL 2
REMARK VINA RESULT:      -7.8      0.495      1.008
REMARK  Name = 
REMARK  8 active torsions:
REMARK  status: ('A' for Active; 'I' for Inactive)
REMARK    1  A    between atoms: C_1  and  O_2
REMARK    2  A    between atoms: O_2  and  C_3
REMARK    3  A    between atoms: C_3  and  C_4
REMARK    4  A    between atoms: C_9  and  O_10
REMARK    5  A    between atoms: C_11  and  C_12
REMARK    6  A    between atoms: N_14  and  C_15
REMARK    7  A    between atoms: N_14  and  C_16
REMARK    8  A    between atoms: C_19  and  N_20
REMARK                            x       y       z     vdW  Elec       q    Type
REMARK                         _______ _______ _______ _____ _____    ______ ____
ROOT
ATOM      1  C   UNL     1       2.259   6.720  19.388  0.00  0.00    +0.000 C 
ATOM      2  O   UNL     1       1.788   6.283  20.447  0.00  0.00    +0.000 OA
ATOM      3  N   UNL     1       1.990   8.036  18.908  0.00  0.00    +0.000 N 
ATOM      4  C   UNL     1       2.506   8.514  17.627  0.00  0.00    +0.000 C 
ENDROOT
BRANCH   1  11
ATOM      5  C   UNL     1       6.415   5.289  16.791  0.00  0.00    +0.000 A 
ATOM      6  N   UNL     1       6.708   4.147  16.148  0.00  0.00    +0.000 NA
ATOM      7  N   UNL     1       5.647   3.362  16.383  0.00  0.00    +0.000 N 
ATOM      8  C   UNL     1       4.651   3.965  17.101  0.00  0.00    +0.000 A 
ATOM      9  C   UNL     1       3.368   3.540  17.446  0.00  0.00    +0.000 A 
ATOM     10  C   UNL     1       2.552   4.443  18.152  0.00  0.00    +0.000 A 
ATOM     11  C   UNL     1       3.029   5.676  18.610  0.00  0.00    +0.000 A 
ATOM     12  C   UNL     1       4.340   6.067  18.226  0.00  0.00    +0.000 A 
ATOM     13  C   UNL     1       5.146   5.216  17.439  0.00  0.00    +0.000 A 
ATOM     14  H   UNL     1       5.645   2.431  15.984  0.00  0.00    +0.000 HD
BRANCH  10  15
ATOM     15  O   UNL     1       1.244   4.071  18.318  0.00  0.00    +0.000 OA
ATOM     16  H   UNL     1       0.669   4.841  18.176  0.00  0.00    +0.000 HD
ENDBRANCH  10  15
BRANCH   5  17
ATOM     17  C   UNL     1       7.337   6.464  16.695  0.00  0.00    +0.000 C 
BRANCH  17  19
ATOM     18  C   UNL     1       8.035   8.359  17.898  0.00  0.00    +0.000 C 
ATOM     19  O   UNL     1       7.688   6.982  17.981  0.00  0.00    +0.000 OA
ENDBRANCH  17  19
ENDBRANCH   5  17
ENDBRANCH   1  11
BRANCH   3  20
ATOM     20  C   UNL     1       1.242   8.995  19.713  0.00  0.00    +0.000 A 
ATOM     21  C   UNL     1       0.496  10.034  19.145  0.00  0.00    +0.000 A 
ATOM     22  C   UNL     1      -0.221  10.953  19.933  0.00  0.00    +0.000 A 
ATOM     23  C   UNL     1      -0.257  10.864  21.326  0.00  0.00    +0.000 A 
ATOM     24  C   UNL     1       0.483   9.835  21.901  0.00  0.00    +0.000 A 
ATOM     25  C   UNL     1       1.218   8.927  21.115  0.00  0.00    +0.000 A 
BRANCH  23  26
ATOM     26  N   UNL     1      -1.067  11.723  22.056  0.00  0.00    +0.000 N 
ATOM     27  C   UNL     1      -1.774  11.224  23.247  0.00  0.00    +0.000 C 
ATOM     28  C   UNL     1      -2.947  12.171  23.544  0.00  0.00    +0.000 C 
ATOM     29  O   UNL     1      -2.489  13.517  23.759  0.00  0.00    +0.000 OA
ATOM     30  C   UNL     1      -1.794  14.002  22.595  0.00  0.00    +0.000 C 
ATOM     31  C   UNL     1      -0.591  13.111  22.232  0.00  0.00    +0.000 C 
ENDBRANCH  23  26
ENDBRANCH   3  20
TORSDOF 6
ENDMDL
MODEL 3
REMARK VINA RESULT:      -7.6      2.291      4.067
REMARK  Name = 
REMARK  8 active torsions:
REMARK  status: ('A' for Active; 'I' for Inactive)
REMARK    1  A    between atoms: C_1  and  O_2
REMARK    2  A    between atoms: O_2  and  C_3
REMARK    3  A    between atoms: C_3  and  C_4
REMARK    4  A    between atoms: C_9  and  O_10
REMARK    5  A    between atoms: C_11  and  C_12
REMARK    6  A    between atoms: N_14  and  C_15
REMARK    7  A    between atoms: N_14  and  C_16
REMARK    8  A    between atoms: C_19  and  N_20
REMARK                            x       y       z     vdW  Elec       q    Type
REMARK                         _______ _______ _______ _____ _____    ______ ____
ROOT
ATOM      1  C   UNL     1       2.345   7.840  18.087  0.00  0.00    +0.000 C 
ATOM      2  O   UNL     1       2.402   8.582  17.097  0.00  0.00    +0.000 OA
ATOM      3  N   UNL     1       1.796   8.257  19.335  0.00  0.00    +0.000 N 
ATOM      4  C   UNL     1       1.791   7.388  20.510  0.00  0.00    +0.000 C 
ENDROOT
BRANCH   1  11
ATOM      5  C   UNL     1       2.303   2.739  18.294  0.00  0.00    +0.000 A 
ATOM      6  N   UNL     1       3.253   1.833  18.009  0.00  0.00    +0.000 NA
ATOM      7  N   UNL     1       4.281   2.571  17.565  0.00  0.00    +0.000 N 
ATOM      8  C   UNL     1       4.061   3.920  17.605  0.00  0.00    +0.000 A 
ATOM      9  C   UNL     1       4.901   5.004  17.348  0.00  0.00    +0.000 A 
ATOM     10  C   UNL     1       4.374   6.295  17.545  0.00  0.00    +0.000 A 
ATOM     11  C   UNL     1       3.030   6.509  17.866  0.00  0.00    +0.000 A 
ATOM     12  C   UNL     1       2.217   5.371  18.125  0.00  0.00    +0.000 A 
ATOM     13  C   UNL     1       2.747   4.068  18.023  0.00  0.00    +0.000 A 
ATOM     14  H   UNL     1       5.129   2.090  17.289  0.00  0.00    +0.000 HD
BRANCH  10  15
ATOM     15  O   UNL     1       5.267   7.329  17.462  0.00  0.00    +0.000 OA
ATOM     16  H   UNL     1       5.787   7.243  16.645  0.00  0.00    +0.000 HD
ENDBRANCH  10  15
BRANCH   5  17
ATOM     17  C   UNL     1       1.008   2.304  18.903  0.00  0.00    +0.000 C 
BRANCH  17  19
ATOM     18  C   UNL     1       1.360   2.746  21.185  0.00  0.00    +0.000 C 
ATOM     19  O   UNL     1       0.635   3.116  20.019  0.00  0.00    +0.000 OA
ENDBRANCH  17  19
ENDBRANCH   5  17
ENDBRANCH   1  11
BRANCH   3  20
ATOM     20  C   UNL     1       1.147   9.556  19.478  0.00  0.00    +0.000 A 
ATOM     21  C   UNL     1       0.079   9.771  20.358  0.00  0.00    +0.000 A 
ATOM     22  C   UNL     1      -0.538  11.028  20.486  0.00  0.00    +0.000 A 
ATOM     23  C   UNL     1      -0.102  12.143  19.767  0.00  0.00    +0.000 A 
ATOM     24  C   UNL     1       0.958  11.939  18.888  0.00  0.00    +0.000 A 
ATOM     25  C   UNL     1       1.563  10.678  18.744  0.00  0.00    +0.000 A 
BRANCH  23  26
ATOM     26  N   UNL     1      -0.668  13.389  20.007  0.00  0.00    +0.000 N 
ATOM     27  C   UNL     1      -0.301  14.533  19.157  0.00  0.00    +0.000 C 
ATOM     28  C   UNL     1      -0.633  15.826  19.917  0.00  0.00    +0.000 C 
ATOM     29  O   UNL     1      -2.029  15.884  20.263  0.00  0.00    +0.000 OA
ATOM     30  C   UNL     1      -2.386  14.761  21.091  0.00  0.00    +0.000 C 
ATOM     31  C   UNL     1      -2.093  13.418  20.397  0.00  0.00    +0.000 C 
ENDBRANCH  23  26
ENDBRANCH   3  20
TORSDOF 6
ENDMDL
MODEL 4
REMARK VINA RESULT:      -7.6      0.545      1.245
REMARK  Name = 
REMARK  8 active torsions:
REMARK  status: ('A' for Active; 'I' for Inactive)
REMARK    1  A    between atoms: C_1  and  O_2
REMARK    2  A    between atoms: O_2  and  C_3
REMARK    3  A    between atoms: C_3  and  C_4
REMARK    4  A    between atoms: C_9  and  O_10
REMARK    5  A    between atoms: C_11  and  C_12
REMARK    6  A    between atoms: N_14  and  C_15
REMARK    7  A    between atoms: N_14  and  C_16
REMARK    8  A    between atoms: C_19  and  N_20
REMARK                            x       y       z     vdW  Elec       q    Type
REMARK                         _______ _______ _______ _____ _____    ______ ____
ROOT
ATOM      1  C   UNL     1       2.257   6.973  19.514  0.00  0.00    +0.000 C 
ATOM      2  O   UNL     1       1.908   6.544  20.623  0.00  0.00    +0.000 OA
ATOM      3  N   UNL     1       1.891   8.265  19.035  0.00  0.00    +0.000 N 
ATOM      4  C   UNL     1       2.260   8.730  17.700  0.00  0.00    +0.000 C 
ENDROOT
BRANCH   1  11
ATOM      5  C   UNL     1       6.514   5.315  17.235  0.00  0.00    +0.000 A 
ATOM      6  N   UNL     1       6.747   4.235  16.471  0.00  0.00    +0.000 NA
ATOM      7  N   UNL     1       5.575   3.584  16.465  0.00  0.00    +0.000 N 
ATOM      8  C   UNL     1       4.574   4.224  17.143  0.00  0.00    +0.000 A 
ATOM      9  C   UNL     1       3.214   3.944  17.271  0.00  0.00    +0.000 A 
ATOM     10  C   UNL     1       2.428   4.854  18.002  0.00  0.00    +0.000 A 
ATOM     11  C   UNL     1       2.989   5.938  18.686  0.00  0.00    +0.000 A 
ATOM     12  C   UNL     1       4.378   6.186  18.518  0.00  0.00    +0.000 A 
ATOM     13  C   UNL     1       5.170   5.339  17.714  0.00  0.00    +0.000 A 
ATOM     14  H   UNL     1       5.511   2.722  15.937  0.00  0.00    +0.000 HD
BRANCH  10  15
ATOM     15  O   UNL     1       1.075   4.653  17.960  0.00  0.00    +0.000 OA
ATOM     16  H   UNL     1       0.617   5.496  18.117  0.00  0.00    +0.000 HD
ENDBRANCH  10  15
BRANCH   5  17
ATOM     17  C   UNL     1       7.579   6.350  17.418  0.00  0.00    +0.000 C 
BRANCH  17  19
ATOM     18  C   UNL     1       7.875   8.665  17.697  0.00  0.00    +0.000 C 
ATOM     19  O   UNL     1       7.143   7.651  17.019  0.00  0.00    +0.000 OA
ENDBRANCH  17  19
ENDBRANCH   5  17
ENDBRANCH   1  11
BRANCH   3  20
ATOM     20  C   UNL     1       1.187   9.215  19.889  0.00  0.00    +0.000 A 
ATOM     21  C   UNL     1       1.111  10.581  19.592  0.00  0.00    +0.000 A 
ATOM     22  C   UNL     1       0.428  11.487  20.424  0.00  0.00    +0.000 A 
ATOM     23  C   UNL     1      -0.241  11.072  21.578  0.00  0.00    +0.000 A 
ATOM     24  C   UNL     1      -0.169   9.716  21.883  0.00  0.00    +0.000 A 
ATOM     25  C   UNL     1       0.530   8.811  21.063  0.00  0.00    +0.000 A 
BRANCH  23  26
ATOM     26  N   UNL     1      -0.994  11.981  22.308  0.00  0.00    +0.000 N 
ATOM     27  C   UNL     1      -0.564  13.386  22.391  0.00  0.00    +0.000 C 
ATOM     28  C   UNL     1      -1.232  14.025  23.619  0.00  0.00    +0.000 C 
ATOM     29  O   UNL     1      -2.666  13.942  23.534  0.00  0.00    +0.000 OA
ATOM     30  C   UNL     1      -3.084  12.567  23.449  0.00  0.00    +0.000 C 
ATOM     31  C   UNL     1      -2.464  11.852  22.234  0.00  0.00    +0.000 C 
ENDBRANCH  23  26
ENDBRANCH   3  20
TORSDOF 6
ENDMDL
MODEL 5
REMARK VINA RESULT:      -7.5      2.095      3.901
REMARK  Name = 
REMARK  8 active torsions:
REMARK  status: ('A' for Active; 'I' for Inactive)
REMARK    1  A    between atoms: C_1  and  O_2
REMARK    2  A    between atoms: O_2  and  C_3
REMARK    3  A    between atoms: C_3  and  C_4
REMARK    4  A    between atoms: C_9  and  O_10
REMARK    5  A    between atoms: C_11  and  C_12
REMARK    6  A    between atoms: N_14  and  C_15
REMARK    7  A    between atoms: N_14  and  C_16
REMARK    8  A    between atoms: C_19  and  N_20
REMARK                            x       y       z     vdW  Elec       q    Type
REMARK                         _______ _______ _______ _____ _____    ______ ____
ROOT
ATOM      1  C   UNL     1       2.305   7.803  18.241  0.00  0.00    +0.000 C 
ATOM      2  O   UNL     1       2.395   8.613  17.308  0.00  0.00    +0.000 OA
ATOM      3  N   UNL     1       1.714   8.131  19.496  0.00  0.00    +0.000 N 
ATOM      4  C   UNL     1       1.671   7.181  20.606  0.00  0.00    +0.000 C 
ENDROOT
BRANCH   1  11
ATOM      5  C   UNL     1       2.365   2.698  18.321  0.00  0.00    +0.000 A 
ATOM      6  N   UNL     1       3.313   1.817  17.963  0.00  0.00    +0.000 NA
ATOM      7  N   UNL     1       4.303   2.585  17.484  0.00  0.00    +0.000 N 
ATOM      8  C   UNL     1       4.061   3.929  17.569  0.00  0.00    +0.000 A 
ATOM      9  C   UNL     1       4.867   5.034  17.295  0.00  0.00    +0.000 A 
ATOM     10  C   UNL     1       4.329   6.309  17.552  0.00  0.00    +0.000 A 
ATOM     11  C   UNL     1       3.000   6.490  17.950  0.00  0.00    +0.000 A 
ATOM     12  C   UNL     1       2.223   5.332  18.224  0.00  0.00    +0.000 A 
ATOM     13  C   UNL     1       2.770   4.041  18.061  0.00  0.00    +0.000 A 
ATOM     14  H   UNL     1       5.142   2.127  17.151  0.00  0.00    +0.000 HD
BRANCH  10  15
ATOM     15  O   UNL     1       5.198   7.362  17.447  0.00  0.00    +0.000 OA
ATOM     16  H   UNL     1       4.748   8.113  17.025  0.00  0.00    +0.000 HD
ENDBRANCH  10  15
BRANCH   5  17
ATOM     17  C   UNL     1       1.112   2.224  18.988  0.00  0.00    +0.000 C 
BRANCH  17  19
ATOM     18  C   UNL     1       1.414   2.731  21.264  0.00  0.00    +0.000 C 
ATOM     19  O   UNL     1       0.720   3.073  20.070  0.00  0.00    +0.000 OA
ENDBRANCH  17  19
ENDBRANCH   5  17
ENDBRANCH   1  11
BRANCH   3  20
ATOM     20  C   UNL     1       1.057   9.416  19.708  0.00  0.00    +0.000 A 
ATOM     21  C   UNL     1       0.387  10.097  18.684  0.00  0.00    +0.000 A 
ATOM     22  C   UNL     1      -0.242  11.336  18.901  0.00  0.00    +0.000 A 
ATOM     23  C   UNL     1      -0.263  11.945  20.158  0.00  0.00    +0.000 A 
ATOM     24  C   UNL     1       0.402  11.277  21.182  0.00  0.00    +0.000 A 
ATOM     25  C   UNL     1       1.049  10.047  20.962  0.00  0.00    +0.000 A 
BRANCH  23  26
ATOM     26  N   UNL     1      -0.990  13.111  20.353  0.00  0.00    +0.000 N 
ATOM     27  C   UNL     1      -2.122  13.118  21.294  0.00  0.00    +0.000 C 
ATOM     28  C   UNL     1      -3.032  14.306  20.948  0.00  0.00    +0.000 C 
ATOM     29  O   UNL     1      -2.314  15.551  21.016  0.00  0.00    +0.000 OA
ATOM     30  C   UNL     1      -1.205  15.540  20.097  0.00  0.00    +0.000 C 
ATOM     31  C   UNL     1      -0.234  14.380  20.382  0.00  0.00    +0.000 C 
ENDBRANCH  23  26
ENDBRANCH   3  20
TORSDOF 6
ENDMDL
MODEL 6
REMARK VINA RESULT:      -7.4      2.965      9.917
REMARK  Name = 
REMARK  8 active torsions:
REMARK  status: ('A' for Active; 'I' for Inactive)
REMARK    1  A    between atoms: C_1  and  O_2
REMARK    2  A    between atoms: O_2  and  C_3
REMARK    3  A    between atoms: C_3  and  C_4
REMARK    4  A    between atoms: C_9  and  O_10
REMARK    5  A    between atoms: C_11  and  C_12
REMARK    6  A    between atoms: N_14  and  C_15
REMARK    7  A    between atoms: N_14  and  C_16
REMARK    8  A    between atoms: C_19  and  N_20
REMARK                            x       y       z     vdW  Elec       q    Type
REMARK                         _______ _______ _______ _____ _____    ______ ____
ROOT
ATOM      1  C   UNL     1       0.683   9.833  18.923  0.00  0.00    +0.000 C 
ATOM      2  O   UNL     1       1.023  10.112  17.765  0.00  0.00    +0.000 OA
ATOM      3  N   UNL     1       1.185   8.697  19.624  0.00  0.00    +0.000 N 
ATOM      4  C   UNL     1       0.727   8.350  20.968  0.00  0.00    +0.000 C 
ENDROOT
BRANCH   1  11
ATOM      5  C   UNL     1      -3.978  11.877  18.524  0.00  0.00    +0.000 A 
ATOM      6  N   UNL     1      -4.614  12.787  19.280  0.00  0.00    +0.000 NA
ATOM      7  N   UNL     1      -3.754  13.037  20.277  0.00  0.00    +0.000 N 
ATOM      8  C   UNL     1      -2.562  12.374  20.170  0.00  0.00    +0.000 A 
ATOM      9  C   UNL     1      -1.388  12.450  20.919  0.00  0.00    +0.000 A 
ATOM     10  C   UNL     1      -0.299  11.663  20.501  0.00  0.00    +0.000 A 
ATOM     11  C   UNL     1      -0.405  10.742  19.453  0.00  0.00    +0.000 A 
ATOM     12  C   UNL     1      -1.620  10.708  18.716  0.00  0.00    +0.000 A 
ATOM     13  C   UNL     1      -2.696  11.554  19.059  0.00  0.00    +0.000 A 
ATOM     14  H   UNL     1      -4.025  13.711  20.983  0.00  0.00    +0.000 HD
BRANCH  10  15
ATOM     15  O   UNL     1       0.890  11.891  21.140  0.00  0.00    +0.000 OA
ATOM     16  H   UNL     1       1.483  11.133  21.002  0.00  0.00    +0.000 HD
ENDBRANCH  10  15
BRANCH   5  17
ATOM     17  C   UNL     1      -4.594  11.398  17.247  0.00  0.00    +0.000 C 
BRANCH  17  19
ATOM     18  C   UNL     1      -3.294  10.872  15.360  0.00  0.00    +0.000 C 
ATOM     19  O   UNL     1      -3.797  10.400  16.604  0.00  0.00    +0.000 OA
ENDBRANCH  17  19
ENDBRANCH   5  17
ENDBRANCH   1  11
BRANCH   3  20
ATOM     20  C   UNL     1       2.238   7.863  19.054  0.00  0.00    +0.000 A 
ATOM     21  C   UNL     1       2.913   8.204  17.876  0.00  0.00    +0.000 A 
ATOM     22  C   UNL     1       3.927   7.391  17.337  0.00  0.00    +0.000 A 
ATOM     23  C   UNL     1       4.340   6.212  17.961  0.00  0.00    +0.000 A 
ATOM     24  C   UNL     1       3.673   5.863  19.132  0.00  0.00    +0.000 A 
ATOM     25  C   UNL     1       2.645   6.665  19.662  0.00  0.00    +0.000 A 
BRANCH  23  26
ATOM     26  N   UNL     1       5.419   5.499  17.455  0.00  0.00    +0.000 N 
ATOM     27  C   UNL     1       5.503   5.231  16.010  0.00  0.00    +0.000 C 
ATOM     28  C   UNL     1       6.452   4.042  15.793  0.00  0.00    +0.000 C 
ATOM     29  O   UNL     1       7.759   4.313  16.332  0.00  0.00    +0.000 OA
ATOM     30  C   UNL     1       7.673   4.579  17.745  0.00  0.00    +0.000 C 
ATOM     31  C   UNL     1       6.744   5.768  18.051  0.00  0.00    +0.000 C 
ENDBRANCH  23  26
ENDBRANCH   3  20
TORSDOF 6
ENDMDL
MODEL 7
REMARK VINA RESULT:      -7.4      3.145      9.944
REMARK  Name = 
REMARK  8 active torsions:
REMARK  status: ('A' for Active; 'I' for Inactive)
REMARK    1  A    between atoms: C_1  and  O_2
REMARK    2  A    between atoms: O_2  and  C_3
REMARK    3  A    between atoms: C_3  and  C_4
REMARK    4  A    between atoms: C_9  and  O_10
REMARK    5  A    between atoms: C_11  and  C_12
REMARK    6  A    between atoms: N_14  and  C_15
REMARK    7  A    between atoms: N_14  and  C_16
REMARK    8  A    between atoms: C_19  and  N_20
REMARK                            x       y       z     vdW  Elec       q    Type
REMARK                         _______ _______ _______ _____ _____    ______ ____
ROOT
ATOM      1  C   UNL     1       0.431  10.269  19.226  0.00  0.00    +0.000 C 
ATOM      2  O   UNL     1       0.193   9.831  18.093  0.00  0.00    +0.000 OA
ATOM      3  N   UNL     1       1.034   9.479  20.249  0.00  0.00    +0.000 N 
ATOM      4  C   UNL     1       1.252   9.994  21.600  0.00  0.00    +0.000 C 
ENDROOT
BRANCH   1  11
ATOM      5  C   UNL     1      -3.012  13.447  21.255  0.00  0.00    +0.000 A 
ATOM      6  N   UNL     1      -3.160  14.777  21.148  0.00  0.00    +0.000 NA
ATOM      7  N   UNL     1      -2.117  15.160  20.399  0.00  0.00    +0.000 N 
ATOM      8  C   UNL     1      -1.330  14.129  19.965  0.00  0.00    +0.000 A 
ATOM      9  C   UNL     1      -0.244  14.096  19.089  0.00  0.00    +0.000 A 
ATOM     10  C   UNL     1       0.317  12.839  18.797  0.00  0.00    +0.000 A 
ATOM     11  C   UNL     1      -0.101  11.670  19.441  0.00  0.00    +0.000 A 
ATOM     12  C   UNL     1      -1.216  11.754  20.319  0.00  0.00    +0.000 A 
ATOM     13  C   UNL     1      -1.854  12.990  20.558  0.00  0.00    +0.000 A 
ATOM     14  H   UNL     1      -2.023  16.145  20.180  0.00  0.00    +0.000 HD
BRANCH  10  15
ATOM     15  O   UNL     1       1.257  12.815  17.802  0.00  0.00    +0.000 OA
ATOM     16  H   UNL     1       1.622  11.918  17.723  0.00  0.00    +0.000 HD
ENDBRANCH  10  15
BRANCH   5  17
ATOM     17  C   UNL     1      -4.046  12.629  21.964  0.00  0.00    +0.000 C 
BRANCH  17  19
ATOM     18  C   UNL     1      -4.210  12.622  24.309  0.00  0.00    +0.000 C 
ATOM     19  O   UNL     1      -3.549  12.065  23.180  0.00  0.00    +0.000 OA
ENDBRANCH  17  19
ENDBRANCH   5  17
ENDBRANCH   1  11
BRANCH   3  20
ATOM     20  C   UNL     1       1.528   8.135  19.973  0.00  0.00    +0.000 A 
ATOM     21  C   UNL     1       1.297   7.057  20.835  0.00  0.00    +0.000 A 
ATOM     22  C   UNL     1       1.779   5.764  20.556  0.00  0.00    +0.000 A 
ATOM     23  C   UNL     1       2.488   5.475  19.389  0.00  0.00    +0.000 A 
ATOM     24  C   UNL     1       2.724   6.541  18.526  0.00  0.00    +0.000 A 
ATOM     25  C   UNL     1       2.261   7.839  18.812  0.00  0.00    +0.000 A 
BRANCH  23  26
ATOM     26  N   UNL     1       2.848   4.165  19.101  0.00  0.00    +0.000 N 
ATOM     27  C   UNL     1       3.336   3.289  20.178  0.00  0.00    +0.000 C 
ATOM     28  C   UNL     1       4.122   2.132  19.541  0.00  0.00    +0.000 C 
ATOM     29  O   UNL     1       3.303   1.389  18.621  0.00  0.00    +0.000 OA
ATOM     30  C   UNL     1       2.823   2.249  17.571  0.00  0.00    +0.000 C 
ATOM     31  C   UNL     1       2.012   3.436  18.125  0.00  0.00    +0.000 C 
ENDBRANCH  23  26
ENDBRANCH   3  20
TORSDOF 6
ENDMDL
MODEL 8
REMARK VINA RESULT:      -7.3      2.526     10.517
REMARK  Name = 
REMARK  8 active torsions:
REMARK  status: ('A' for Active; 'I' for Inactive)
REMARK    1  A    between atoms: C_1  and  O_2
REMARK    2  A    between atoms: O_2  and  C_3
REMARK    3  A    between atoms: C_3  and  C_4
REMARK    4  A    between atoms: C_9  and  O_10
REMARK    5  A    between atoms: C_11  and  C_12
REMARK    6  A    between atoms: N_14  and  C_15
REMARK    7  A    between atoms: N_14  and  C_16
REMARK    8  A    between atoms: C_19  and  N_20
REMARK                            x       y       z     vdW  Elec       q    Type
REMARK                         _______ _______ _______ _____ _____    ______ ____
ROOT
ATOM      1  C   UNL     1       0.318  11.787  20.628  0.00  0.00    +0.000 C 
ATOM      2  O   UNL     1       1.428  11.813  21.176  0.00  0.00    +0.000 OA
ATOM      3  N   UNL     1      -0.047  10.799  19.667  0.00  0.00    +0.000 N 
ATOM      4  C   UNL     1      -1.340  10.819  18.985  0.00  0.00    +0.000 C 
ENDROOT
BRANCH   1  11
ATOM      5  C   UNL     1      -3.398  13.895  23.423  0.00  0.00    +0.000 A 
ATOM      6  N   UNL     1      -3.950  15.119  23.384  0.00  0.00    +0.000 NA
ATOM      7  N   UNL     1      -3.247  15.761  22.440  0.00  0.00    +0.000 N 
ATOM      8  C   UNL     1      -2.302  14.989  21.822  0.00  0.00    +0.000 A 
ATOM      9  C   UNL     1      -1.465  15.241  20.736  0.00  0.00    +0.000 A 
ATOM     10  C   UNL     1      -0.634  14.193  20.298  0.00  0.00    +0.000 A 
ATOM     11  C   UNL     1      -0.544  12.978  20.987  0.00  0.00    +0.000 A 
ATOM     12  C   UNL     1      -1.424  12.767  22.083  0.00  0.00    +0.000 A 
ATOM     13  C   UNL     1      -2.331  13.770  22.484  0.00  0.00    +0.000 A 
ATOM     14  H   UNL     1      -3.495  16.721  22.232  0.00  0.00    +0.000 HD
BRANCH  10  15
ATOM     15  O   UNL     1       0.041  14.406  19.126  0.00  0.00    +0.000 OA
ATOM     16  H   UNL     1       0.020  15.354  18.910  0.00  0.00    +0.000 HD
ENDBRANCH  10  15
BRANCH   5  17
ATOM     17  C   UNL     1      -3.973  12.839  24.314  0.00  0.00    +0.000 C 
BRANCH  17  19
ATOM     18  C   UNL     1      -6.310  12.697  24.110  0.00  0.00    +0.000 C 
ATOM     19  O   UNL     1      -5.064  12.148  23.700  0.00  0.00    +0.000 OA
ENDBRANCH  17  19
ENDBRANCH   5  17
ENDBRANCH   1  11
BRANCH   3  20
ATOM     20  C   UNL     1       0.833   9.673  19.370  0.00  0.00    +0.000 A 
ATOM     21  C   UNL     1       1.129   8.681  20.312  0.00  0.00    +0.000 A 
ATOM     22  C   UNL     1       1.979   7.601  20.012  0.00  0.00    +0.000 A 
ATOM     23  C   UNL     1       2.552   7.438  18.749  0.00  0.00    +0.000 A 
ATOM     24  C   UNL     1       2.265   8.421  17.807  0.00  0.00    +0.000 A 
ATOM     25  C   UNL     1       1.431   9.513  18.110  0.00  0.00    +0.000 A 
BRANCH  23  26
ATOM     26  N   UNL     1       3.294   6.299  18.465  0.00  0.00    +0.000 N 
ATOM     27  C   UNL     1       4.299   6.332  17.390  0.00  0.00    +0.000 C 
ATOM     28  C   UNL     1       4.583   4.888  16.949  0.00  0.00    +0.000 C 
ATOM     29  O   UNL     1       5.051   4.089  18.050  0.00  0.00    +0.000 OA
ATOM     30  C   UNL     1       4.068   4.062  19.102  0.00  0.00    +0.000 C 
ATOM     31  C   UNL     1       3.731   5.476  19.611  0.00  0.00    +0.000 C 
ENDBRANCH  23  26
ENDBRANCH   3  20
TORSDOF 6
ENDMDL
MODEL 9
REMARK VINA RESULT:      -7.3      1.131      1.606
REMARK  Name = 
REMARK  8 active torsions:
REMARK  status: ('A' for Active; 'I' for Inactive)
REMARK    1  A    between atoms: C_1  and  O_2
REMARK    2  A    between atoms: O_2  and  C_3
REMARK    3  A    between atoms: C_3  and  C_4
REMARK    4  A    between atoms: C_9  and  O_10
REMARK    5  A    between atoms: C_11  and  C_12
REMARK    6  A    between atoms: N_14  and  C_15
REMARK    7  A    between atoms: N_14  and  C_16
REMARK    8  A    between atoms: C_19  and  N_20
REMARK                            x       y       z     vdW  Elec       q    Type
REMARK                         _______ _______ _______ _____ _____    ______ ____
ROOT
ATOM      1  C   UNL     1       2.326   7.595  18.916  0.00  0.00    +0.000 C 
ATOM      2  O   UNL     1       2.366   8.590  18.179  0.00  0.00    +0.000 OA
ATOM      3  N   UNL     1       1.658   7.592  20.176  0.00  0.00    +0.000 N 
ATOM      4  C   UNL     1       1.672   6.428  21.059  0.00  0.00    +0.000 C 
ENDROOT
BRANCH   1  11
ATOM      5  C   UNL     1       6.860   5.629  17.635  0.00  0.00    +0.000 A 
ATOM      6  N   UNL     1       7.193   4.438  17.111  0.00  0.00    +0.000 NA
ATOM      7  N   UNL     1       6.028   3.780  17.036  0.00  0.00    +0.000 N 
ATOM      8  C   UNL     1       4.943   4.514  17.433  0.00  0.00    +0.000 A 
ATOM      9  C   UNL     1       3.576   4.241  17.397  0.00  0.00    +0.000 A 
ATOM     10  C   UNL     1       2.699   5.252  17.833  0.00  0.00    +0.000 A 
ATOM     11  C   UNL     1       3.163   6.444  18.399  0.00  0.00    +0.000 A 
ATOM     12  C   UNL     1       4.565   6.678  18.406  0.00  0.00    +0.000 A 
ATOM     13  C   UNL     1       5.459   5.717  17.891  0.00  0.00    +0.000 A 
ATOM     14  H   UNL     1       6.034   2.840  16.660  0.00  0.00    +0.000 HD
BRANCH  10  15
ATOM     15  O   UNL     1       1.366   5.028  17.618  0.00  0.00    +0.000 OA
ATOM     16  H   UNL     1       1.154   5.207  16.686  0.00  0.00    +0.000 HD
ENDBRANCH  10  15
BRANCH   5  17
ATOM     17  C   UNL     1       7.898   6.695  17.800  0.00  0.00    +0.000 C 
BRANCH  17  19
ATOM     18  C   UNL     1       8.002   9.043  17.816  0.00  0.00    +0.000 C 
ATOM     19  O   UNL     1       7.556   7.895  17.104  0.00  0.00    +0.000 OA
ENDBRANCH  17  19
ENDBRANCH   5  17
ENDBRANCH   1  11
BRANCH   3  20
ATOM     20  C   UNL     1       0.865   8.736  20.613  0.00  0.00    +0.000 A 
ATOM     21  C   UNL     1       0.327   9.666  19.715  0.00  0.00    +0.000 A 
ATOM     22  C   UNL     1      -0.436  10.765  20.149  0.00  0.00    +0.000 A 
ATOM     23  C   UNL     1      -0.727  10.977  21.498  0.00  0.00    +0.000 A 
ATOM     24  C   UNL     1      -0.194  10.059  22.399  0.00  0.00    +0.000 A 
ATOM     25  C   UNL     1       0.586   8.970  21.969  0.00  0.00    +0.000 A 
BRANCH  23  26
ATOM     26  N   UNL     1      -1.575  12.010  21.871  0.00  0.00    +0.000 N 
ATOM     27  C   UNL     1      -1.230  12.858  23.024  0.00  0.00    +0.000 C 
ATOM     28  C   UNL     1      -2.513  13.541  23.524  0.00  0.00    +0.000 C 
ATOM     29  O   UNL     1      -3.122  14.329  22.485  0.00  0.00    +0.000 OA
ATOM     30  C   UNL     1      -3.455  13.498  21.357  0.00  0.00    +0.000 C 
ATOM     31  C   UNL     1      -2.218  12.780  20.786  0.00  0.00    +0.000 C 
ENDBRANCH  23  26
ENDBRANCH   3  20
TORSDOF 6
ENDMDL
