MODEL 1
REMARK VINA RESULT:      -7.4      0.000      0.000
REMARK  Name = 
REMARK  10 active torsions:
REMARK  status: ('A' for Active; 'I' for Inactive)
REMARK    1  A    between atoms: C_1  and  O_2
REMARK    2  A    between atoms: O_2  and  C_3
REMARK    3  A    between atoms: C_7  and  N_8
REMARK    4  A    between atoms: C_9  and  C_11
REMARK    5  A    between atoms: C_11  and  N_12
REMARK    6  A    between atoms: N_12  and  C_13
REMARK    7  A    between atoms: N_12  and  C_14
REMARK    8  A    between atoms: C_14  and  C_15
REMARK    9  A    between atoms: N_17  and  C_18
REMARK   10  A    between atoms: C_18  and  C_19
REMARK                            x       y       z     vdW  Elec       q    Type
REMARK                         _______ _______ _______ _____ _____    ______ ____
ROOT
ATOM      1  N   UNL     1       1.940   4.088  19.603  0.00  0.00    +0.000 NA
ATOM      2  C   UNL     1       0.607   3.476  19.672  0.00  0.00    +0.000 C 
ENDROOT
BRANCH   1   3
ATOM      3  C   UNL     1       2.988   3.087  19.904  0.00  0.00    +0.000 C 
BRANCH   3   5
ATOM      4  N   UNL     1       4.065   3.834  17.877  0.00  0.00    +0.000 N 
ATOM      5  C   UNL     1       4.285   3.339  19.150  0.00  0.00    +0.000 C 
ATOM      6  O   UNL     1       5.364   3.133  19.690  0.00  0.00    +0.000 OA
ATOM      7  H   UNL     1       3.108   3.763  17.549  0.00  0.00    +0.000 HD
BRANCH   4  12
ATOM      8  C   UNL     1       6.822   5.740  16.334  0.00  0.00    +0.000 A 
ATOM      9  C   UNL     1       6.971   5.072  15.117  0.00  0.00    +0.000 A 
ATOM     10  C   UNL     1       6.194   3.955  14.825  0.00  0.00    +0.000 A 
ATOM     11  C   UNL     1       5.243   3.517  15.738  0.00  0.00    +0.000 A 
ATOM     12  C   UNL     1       5.060   4.190  16.948  0.00  0.00    +0.000 A 
ATOM     13  C   UNL     1       5.877   5.286  17.258  0.00  0.00    +0.000 A 
BRANCH   8  15
ATOM     14  C   UNL     1       7.637   7.469  17.751  0.00  0.00    +0.000 C 
ATOM     15  O   UNL     1       7.640   6.825  16.484  0.00  0.00    +0.000 OA
ENDBRANCH   8  15
ENDBRANCH   4  12
ENDBRANCH   3   5
ENDBRANCH   1   3
BRANCH   1  16
ATOM     16  C   UNL     1       1.997   5.263  20.517  0.00  0.00    +0.000 C 
BRANCH  16  17
ATOM     17  C   UNL     1       2.353   6.591  19.830  0.00  0.00    +0.000 C 
ATOM     18  O   UNL     1       3.000   6.630  18.784  0.00  0.00    +0.000 OA
ATOM     19  N   UNL     1       1.932   7.765  20.390  0.00  0.00    +0.000 N 
ATOM     20  H   UNL     1       2.195   8.589  19.861  0.00  0.00    +0.000 HD
BRANCH  19  21
ATOM     21  C   UNL     1       1.093   7.951  21.551  0.00  0.00    +0.000 C 
BRANCH  21  22
ATOM     22  C   UNL     1       0.359   9.256  21.526  0.00  0.00    +0.000 A 
ATOM     23  C   UNL     1      -0.003   9.825  20.298  0.00  0.00    +0.000 A 
ATOM     24  C   UNL     1      -0.750  10.998  20.273  0.00  0.00    +0.000 A 
ATOM     25  C   UNL     1      -1.141  11.589  21.470  0.00  0.00    +0.000 A 
ATOM     26  F   UNL     1      -1.864  12.714  21.441  0.00  0.00    +0.000 F 
ATOM     27  C   UNL     1      -0.808  11.022  22.696  0.00  0.00    +0.000 A 
ATOM     28  C   UNL     1      -0.060   9.854  22.726  0.00  0.00    +0.000 A 
ENDBRANCH  21  22
ENDBRANCH  19  21
ENDBRANCH  16  17
ENDBRANCH   1  16
TORSDOF 8
ENDMDL
MODEL 2
REMARK VINA RESULT:      -7.4      3.153      7.083
REMARK  Name = 
REMARK  10 active torsions:
REMARK  status: ('A' for Active; 'I' for Inactive)
REMARK    1  A    between atoms: C_1  and  O_2
REMARK    2  A    between atoms: O_2  and  C_3
REMARK    3  A    between atoms: C_7  and  N_8
REMARK    4  A    between atoms: C_9  and  C_11
REMARK    5  A    between atoms: C_11  and  N_12
REMARK    6  A    between atoms: N_12  and  C_13
REMARK    7  A    between atoms: N_12  and  C_14
REMARK    8  A    between atoms: C_14  and  C_15
REMARK    9  A    between atoms: N_17  and  C_18
REMARK   10  A    between atoms: C_18  and  C_19
REMARK                            x       y       z     vdW  Elec       q    Type
REMARK                         _______ _______ _______ _____ _____    ______ ____
ROOT
ATOM      1  N   UNL     1       3.602   2.961  19.806  0.00  0.00    +0.000 NA
ATOM      2  C   UNL     1       4.490   1.906  20.313  0.00  0.00    +0.000 C 
ENDROOT
BRANCH   1   3
ATOM      3  C   UNL     1       2.628   3.365  20.846  0.00  0.00    +0.000 C 
BRANCH   3   5
ATOM      4  N   UNL     1       2.717   5.663  20.115  0.00  0.00    +0.000 N 
ATOM      5  C   UNL     1       1.871   4.635  20.490  0.00  0.00    +0.000 C 
ATOM      6  O   UNL     1       0.647   4.656  20.526  0.00  0.00    +0.000 OA
ATOM      7  H   UNL     1       3.698   5.509  20.324  0.00  0.00    +0.000 HD
BRANCH   4  12
ATOM      8  C   UNL     1       1.284   9.058  20.307  0.00  0.00    +0.000 A 
ATOM      9  C   UNL     1       1.370   9.469  18.975  0.00  0.00    +0.000 A 
ATOM     10  C   UNL     1       1.951   8.643  18.018  0.00  0.00    +0.000 A 
ATOM     11  C   UNL     1       2.424   7.388  18.383  0.00  0.00    +0.000 A 
ATOM     12  C   UNL     1       2.320   6.949  19.704  0.00  0.00    +0.000 A 
ATOM     13  C   UNL     1       1.777   7.802  20.674  0.00  0.00    +0.000 A 
BRANCH   8  15
ATOM     14  C   UNL     1      -0.587   9.606  21.671  0.00  0.00    +0.000 C 
ATOM     15  O   UNL     1       0.680   9.961  21.137  0.00  0.00    +0.000 OA
ENDBRANCH   8  15
ENDBRANCH   4  12
ENDBRANCH   3   5
ENDBRANCH   1   3
BRANCH   1  16
ATOM     16  C   UNL     1       2.940   2.498  18.556  0.00  0.00    +0.000 C 
BRANCH  16  17
ATOM     17  C   UNL     1       2.695   3.600  17.514  0.00  0.00    +0.000 C 
ATOM     18  O   UNL     1       1.599   4.150  17.392  0.00  0.00    +0.000 OA
ATOM     19  N   UNL     1       3.722   3.992  16.703  0.00  0.00    +0.000 N 
ATOM     20  H   UNL     1       3.476   4.737  16.060  0.00  0.00    +0.000 HD
BRANCH  19  21
ATOM     21  C   UNL     1       5.099   3.556  16.731  0.00  0.00    +0.000 C 
BRANCH  21  22
ATOM     22  C   UNL     1       6.028   4.618  17.235  0.00  0.00    +0.000 A 
ATOM     23  C   UNL     1       6.486   5.610  16.360  0.00  0.00    +0.000 A 
ATOM     24  C   UNL     1       7.287   6.641  16.841  0.00  0.00    +0.000 A 
ATOM     25  C   UNL     1       7.615   6.681  18.192  0.00  0.00    +0.000 A 
ATOM     26  F   UNL     1       8.381   7.677  18.652  0.00  0.00    +0.000 F 
ATOM     27  C   UNL     1       7.147   5.715  19.077  0.00  0.00    +0.000 A 
ATOM     28  C   UNL     1       6.351   4.684  18.600  0.00  0.00    +0.000 A 
ENDBRANCH  21  22
ENDBRANCH  19  21
ENDBRANCH  16  17
ENDBRANCH   1  16
TORSDOF 8
ENDMDL
MODEL 3
REMARK VINA RESULT:      -7.3      1.630      2.307
REMARK  Name = 
REMARK  10 active torsions:
REMARK  status: ('A' for Active; 'I' for Inactive)
REMARK    1  A    between atoms: C_1  and  O_2
REMARK    2  A    between atoms: O_2  and  C_3
REMARK    3  A    between atoms: C_7  and  N_8
REMARK    4  A    between atoms: C_9  and  C_11
REMARK    5  A    between atoms: C_11  and  N_12
REMARK    6  A    between atoms: N_12  and  C_13
REMARK    7  A    between atoms: N_12  and  C_14
REMARK    8  A    between atoms: C_14  and  C_15
REMARK    9  A    between atoms: N_17  and  C_18
REMARK   10  A    between atoms: C_18  and  C_19
REMARK                            x       y       z     vdW  Elec       q    Type
REMARK                         _______ _______ _______ _____ _____    ______ ____
ROOT
ATOM      1  N   UNL     1       1.643   2.912  19.102  0.00  0.00    +0.000 NA
ATOM      2  C   UNL     1       0.610   2.036  18.534  0.00  0.00    +0.000 C 
ENDROOT
BRANCH   1   3
ATOM      3  C   UNL     1       2.753   2.111  19.665  0.00  0.00    +0.000 C 
BRANCH   3   5
ATOM      4  N   UNL     1       4.059   3.454  18.145  0.00  0.00    +0.000 N 
ATOM      5  C   UNL     1       4.124   2.612  19.240  0.00  0.00    +0.000 C 
ATOM      6  O   UNL     1       5.123   2.288  19.869  0.00  0.00    +0.000 OA
ATOM      7  H   UNL     1       3.170   3.455  17.657  0.00  0.00    +0.000 HD
BRANCH   4  12
ATOM      8  C   UNL     1       6.879   5.793  17.703  0.00  0.00    +0.000 A 
ATOM      9  C   UNL     1       7.243   5.538  16.379  0.00  0.00    +0.000 A 
ATOM     10  C   UNL     1       6.589   4.555  15.644  0.00  0.00    +0.000 A 
ATOM     11  C   UNL     1       5.547   3.839  16.221  0.00  0.00    +0.000 A 
ATOM     12  C   UNL     1       5.151   4.099  17.535  0.00  0.00    +0.000 A 
ATOM     13  C   UNL     1       5.843   5.058  18.286  0.00  0.00    +0.000 A 
BRANCH   8  15
ATOM     14  C   UNL     1       7.691   8.027  17.607  0.00  0.00    +0.000 C 
ATOM     15  O   UNL     1       7.596   6.791  18.302  0.00  0.00    +0.000 OA
ENDBRANCH   8  15
ENDBRANCH   4  12
ENDBRANCH   3   5
ENDBRANCH   1   3
BRANCH   1  16
ATOM     16  C   UNL     1       1.028   3.819  20.110  0.00  0.00    +0.000 C 
BRANCH  16  17
ATOM     17  C   UNL     1       2.015   4.404  21.132  0.00  0.00    +0.000 C 
ATOM     18  O   UNL     1       2.244   3.850  22.207  0.00  0.00    +0.000 OA
ATOM     19  N   UNL     1       2.666   5.569  20.840  0.00  0.00    +0.000 N 
ATOM     20  H   UNL     1       3.311   5.871  21.561  0.00  0.00    +0.000 HD
BRANCH  19  21
ATOM     21  C   UNL     1       2.622   6.334  19.615  0.00  0.00    +0.000 C 
BRANCH  21  22
ATOM     22  C   UNL     1       1.883   7.628  19.771  0.00  0.00    +0.000 A 
ATOM     23  C   UNL     1       1.344   7.971  21.017  0.00  0.00    +0.000 A 
ATOM     24  C   UNL     1       0.723   9.205  21.186  0.00  0.00    +0.000 A 
ATOM     25  C   UNL     1       0.656  10.091  20.116  0.00  0.00    +0.000 A 
ATOM     26  F   UNL     1       0.063  11.279  20.284  0.00  0.00    +0.000 F 
ATOM     27  C   UNL     1       1.209   9.772  18.880  0.00  0.00    +0.000 A 
ATOM     28  C   UNL     1       1.825   8.541  18.706  0.00  0.00    +0.000 A 
ENDBRANCH  21  22
ENDBRANCH  19  21
ENDBRANCH  16  17
ENDBRANCH   1  16
TORSDOF 8
ENDMDL
MODEL 4
REMARK VINA RESULT:      -7.2      4.706      7.385
REMARK  Name = 
REMARK  10 active torsions:
REMARK  status: ('A' for Active; 'I' for Inactive)
REMARK    1  A    between atoms: C_1  and  O_2
REMARK    2  A    between atoms: O_2  and  C_3
REMARK    3  A    between atoms: C_7  and  N_8
REMARK    4  A    between atoms: C_9  and  C_11
REMARK    5  A    between atoms: C_11  and  N_12
REMARK    6  A    between atoms: N_12  and  C_13
REMARK    7  A    between atoms: N_12  and  C_14
REMARK    8  A    between atoms: C_14  and  C_15
REMARK    9  A    between atoms: N_17  and  C_18
REMARK   10  A    between atoms: C_18  and  C_19
REMARK                            x       y       z     vdW  Elec       q    Type
REMARK                         _______ _______ _______ _____ _____    ______ ____
ROOT
ATOM      1  N   UNL     1       6.908   6.203  17.528  0.00  0.00    +0.000 NA
ATOM      2  C   UNL     1       7.435   5.007  16.856  0.00  0.00    +0.000 C 
ENDROOT
BRANCH   1   3
ATOM      3  C   UNL     1       7.940   6.804  18.403  0.00  0.00    +0.000 C 
BRANCH   3   5
ATOM      4  N   UNL     1       8.960   8.872  19.113  0.00  0.00    +0.000 N 
ATOM      5  C   UNL     1       8.096   8.302  18.195  0.00  0.00    +0.000 C 
ATOM      6  O   UNL     1       7.514   8.863  17.276  0.00  0.00    +0.000 OA
ATOM      7  H   UNL     1       9.197   8.282  19.903  0.00  0.00    +0.000 HD
BRANCH   4  12
ATOM      8  C   UNL     1       9.704  12.195  20.534  0.00  0.00    +0.000 A 
ATOM      9  C   UNL     1       9.920  12.947  19.377  0.00  0.00    +0.000 A 
ATOM     10  C   UNL     1       9.870  12.345  18.124  0.00  0.00    +0.000 A 
ATOM     11  C   UNL     1       9.577  10.991  18.020  0.00  0.00    +0.000 A 
ATOM     12  C   UNL     1       9.330  10.229  19.164  0.00  0.00    +0.000 A 
ATOM     13  C   UNL     1       9.428  10.829  20.426  0.00  0.00    +0.000 A 
BRANCH   8  15
ATOM     14  C   UNL     1       8.765  12.672  22.667  0.00  0.00    +0.000 C 
ATOM     15  O   UNL     1       9.771  12.915  21.694  0.00  0.00    +0.000 OA
ENDBRANCH   8  15
ENDBRANCH   4  12
ENDBRANCH   3   5
ENDBRANCH   1   3
BRANCH   1  16
ATOM     16  C   UNL     1       5.667   5.851  18.271  0.00  0.00    +0.000 C 
BRANCH  16  17
ATOM     17  C   UNL     1       4.363   6.275  17.576  0.00  0.00    +0.000 C 
ATOM     18  O   UNL     1       4.174   7.431  17.195  0.00  0.00    +0.000 OA
ATOM     19  N   UNL     1       3.386   5.344  17.365  0.00  0.00    +0.000 N 
ATOM     20  H   UNL     1       2.570   5.706  16.884  0.00  0.00    +0.000 HD
BRANCH  19  21
ATOM     21  C   UNL     1       3.428   3.926  17.642  0.00  0.00    +0.000 C 
BRANCH  21  22
ATOM     22  C   UNL     1       2.751   3.572  18.930  0.00  0.00    +0.000 A 
ATOM     23  C   UNL     1       1.352   3.557  18.996  0.00  0.00    +0.000 A 
ATOM     24  C   UNL     1       0.720   3.156  20.169  0.00  0.00    +0.000 A 
ATOM     25  C   UNL     1       1.485   2.760  21.261  0.00  0.00    +0.000 A 
ATOM     26  F   UNL     1       0.872   2.369  22.384  0.00  0.00    +0.000 F 
ATOM     27  C   UNL     1       2.875   2.748  21.201  0.00  0.00    +0.000 A 
ATOM     28  C   UNL     1       3.510   3.151  20.034  0.00  0.00    +0.000 A 
ENDBRANCH  21  22
ENDBRANCH  19  21
ENDBRANCH  16  17
ENDBRANCH   1  16
TORSDOF 8
ENDMDL
MODEL 5
REMARK VINA RESULT:      -7.1      2.014      2.846
REMARK  Name = 
REMARK  10 active torsions:
REMARK  status: ('A' for Active; 'I' for Inactive)
REMARK    1  A    between atoms: C_1  and  O_2
REMARK    2  A    between atoms: O_2  and  C_3
REMARK    3  A    between atoms: C_7  and  N_8
REMARK    4  A    between atoms: C_9  and  C_11
REMARK    5  A    between atoms: C_11  and  N_12
REMARK    6  A    between atoms: N_12  and  C_13
REMARK    7  A    between atoms: N_12  and  C_14
REMARK    8  A    between atoms: C_14  and  C_15
REMARK    9  A    between atoms: N_17  and  C_18
REMARK   10  A    between atoms: C_18  and  C_19
REMARK                            x       y       z     vdW  Elec       q    Type
REMARK                         _______ _______ _______ _____ _____    ______ ____
ROOT
ATOM      1  N   UNL     1       2.719   2.198  19.567  0.00  0.00    +0.000 NA
ATOM      2  C   UNL     1       4.046   2.415  20.160  0.00  0.00    +0.000 C 
ENDROOT
BRANCH   1   3
ATOM      3  C   UNL     1       2.841   1.871  18.128  0.00  0.00    +0.000 C 
BRANCH   3   5
ATOM      4  N   UNL     1       4.762   2.830  17.026  0.00  0.00    +0.000 N 
ATOM      5  C   UNL     1       3.420   3.013  17.306  0.00  0.00    +0.000 C 
ATOM      6  O   UNL     1       2.704   3.938  16.944  0.00  0.00    +0.000 OA
ATOM      7  H   UNL     1       5.217   2.101  17.564  0.00  0.00    +0.000 HD
BRANCH   4  12
ATOM      8  C   UNL     1       6.995   5.658  16.229  0.00  0.00    +0.000 A 
ATOM      9  C   UNL     1       7.087   5.552  14.839  0.00  0.00    +0.000 A 
ATOM     10  C   UNL     1       6.451   4.514  14.166  0.00  0.00    +0.000 A 
ATOM     11  C   UNL     1       5.696   3.589  14.878  0.00  0.00    +0.000 A 
ATOM     12  C   UNL     1       5.569   3.695  16.265  0.00  0.00    +0.000 A 
ATOM     13  C   UNL     1       6.250   4.715  16.943  0.00  0.00    +0.000 A 
BRANCH   8  15
ATOM     14  C   UNL     1       7.681   6.845  18.173  0.00  0.00    +0.000 C 
ATOM     15  O   UNL     1       7.658   6.731  16.757  0.00  0.00    +0.000 OA
ENDBRANCH   8  15
ENDBRANCH   4  12
ENDBRANCH   3   5
ENDBRANCH   1   3
BRANCH   1  16
ATOM     16  C   UNL     1       1.863   3.391  19.809  0.00  0.00    +0.000 C 
BRANCH  16  17
ATOM     17  C   UNL     1       2.272   4.237  21.025  0.00  0.00    +0.000 C 
ATOM     18  O   UNL     1       2.160   3.818  22.177  0.00  0.00    +0.000 OA
ATOM     19  N   UNL     1       2.785   5.488  20.825  0.00  0.00    +0.000 N 
ATOM     20  H   UNL     1       3.045   5.966  21.680  0.00  0.00    +0.000 HD
BRANCH  19  21
ATOM     21  C   UNL     1       3.089   6.140  19.572  0.00  0.00    +0.000 C 
BRANCH  21  22
ATOM     22  C   UNL     1       2.274   7.378  19.356  0.00  0.00    +0.000 A 
ATOM     23  C   UNL     1       1.600   7.961  20.436  0.00  0.00    +0.000 A 
ATOM     24  C   UNL     1       0.905   9.153  20.255  0.00  0.00    +0.000 A 
ATOM     25  C   UNL     1       0.896   9.760  19.004  0.00  0.00    +0.000 A 
ATOM     26  F   UNL     1       0.231  10.908  18.836  0.00  0.00    +0.000 F 
ATOM     27  C   UNL     1       1.581   9.203  17.928  0.00  0.00    +0.000 A 
ATOM     28  C   UNL     1       2.273   8.013  18.103  0.00  0.00    +0.000 A 
ENDBRANCH  21  22
ENDBRANCH  19  21
ENDBRANCH  16  17
ENDBRANCH   1  16
TORSDOF 8
ENDMDL
MODEL 6
REMARK VINA RESULT:      -7.1      0.916      1.288
REMARK  Name = 
REMARK  10 active torsions:
REMARK  status: ('A' for Active; 'I' for Inactive)
REMARK    1  A    between atoms: C_1  and  O_2
REMARK    2  A    between atoms: O_2  and  C_3
REMARK    3  A    between atoms: C_7  and  N_8
REMARK    4  A    between atoms: C_9  and  C_11
REMARK    5  A    between atoms: C_11  and  N_12
REMARK    6  A    between atoms: N_12  and  C_13
REMARK    7  A    between atoms: N_12  and  C_14
REMARK    8  A    between atoms: C_14  and  C_15
REMARK    9  A    between atoms: N_17  and  C_18
REMARK   10  A    between atoms: C_18  and  C_19
REMARK                            x       y       z     vdW  Elec       q    Type
REMARK                         _______ _______ _______ _____ _____    ______ ____
ROOT
ATOM      1  N   UNL     1       1.476   4.651  19.712  0.00  0.00    +0.000 NA
ATOM      2  C   UNL     1       1.303   3.864  20.940  0.00  0.00    +0.000 C 
ENDROOT
BRANCH   1   3
ATOM      3  C   UNL     1       1.704   3.761  18.551  0.00  0.00    +0.000 C 
BRANCH   3   5
ATOM      4  N   UNL     1       3.519   4.464  17.125  0.00  0.00    +0.000 N 
ATOM      5  C   UNL     1       3.173   3.636  18.177  0.00  0.00    +0.000 C 
ATOM      6  O   UNL     1       3.910   2.888  18.807  0.00  0.00    +0.000 OA
ATOM      7  H   UNL     1       2.736   4.868  16.621  0.00  0.00    +0.000 HD
BRANCH   4  12
ATOM      8  C   UNL     1       6.869   5.866  16.468  0.00  0.00    +0.000 A 
ATOM      9  C   UNL     1       7.317   5.036  15.438  0.00  0.00    +0.000 A 
ATOM     10  C   UNL     1       6.532   3.978  14.992  0.00  0.00    +0.000 A 
ATOM     11  C   UNL     1       5.281   3.760  15.556  0.00  0.00    +0.000 A 
ATOM     12  C   UNL     1       4.804   4.596  16.568  0.00  0.00    +0.000 A 
ATOM     13  C   UNL     1       5.618   5.632  17.046  0.00  0.00    +0.000 A 
BRANCH   8  15
ATOM     14  C   UNL     1       7.902   7.156  18.180  0.00  0.00    +0.000 C 
ATOM     15  O   UNL     1       7.734   6.872  16.798  0.00  0.00    +0.000 OA
ENDBRANCH   8  15
ENDBRANCH   4  12
ENDBRANCH   3   5
ENDBRANCH   1   3
BRANCH   1  16
ATOM     16  C   UNL     1       2.579   5.633  19.900  0.00  0.00    +0.000 C 
BRANCH  16  17
ATOM     17  C   UNL     1       2.348   6.994  19.225  0.00  0.00    +0.000 C 
ATOM     18  O   UNL     1       2.649   7.196  18.048  0.00  0.00    +0.000 OA
ATOM     19  N   UNL     1       1.784   8.009  19.944  0.00  0.00    +0.000 N 
ATOM     20  H   UNL     1       1.651   8.864  19.414  0.00  0.00    +0.000 HD
BRANCH  19  21
ATOM     21  C   UNL     1       1.273   7.971  21.295  0.00  0.00    +0.000 C 
BRANCH  21  22
ATOM     22  C   UNL     1       0.445   9.173  21.631  0.00  0.00    +0.000 A 
ATOM     23  C   UNL     1      -0.216   9.236  22.864  0.00  0.00    +0.000 A 
ATOM     24  C   UNL     1      -0.924  10.383  23.211  0.00  0.00    +0.000 A 
ATOM     25  C   UNL     1      -0.957  11.461  22.333  0.00  0.00    +0.000 A 
ATOM     26  F   UNL     1      -1.634  12.564  22.674  0.00  0.00    +0.000 F 
ATOM     27  C   UNL     1      -0.285  11.421  21.116  0.00  0.00    +0.000 A 
ATOM     28  C   UNL     1       0.419  10.277  20.764  0.00  0.00    +0.000 A 
ENDBRANCH  21  22
ENDBRANCH  19  21
ENDBRANCH  16  17
ENDBRANCH   1  16
TORSDOF 8
ENDMDL
MODEL 7
REMARK VINA RESULT:      -7.0      4.722      7.666
REMARK  Name = 
REMARK  10 active torsions:
REMARK  status: ('A' for Active; 'I' for Inactive)
REMARK    1  A    between atoms: C_1  and  O_2
REMARK    2  A    between atoms: O_2  and  C_3
REMARK    3  A    between atoms: C_7  and  N_8
REMARK    4  A    between atoms: C_9  and  C_11
REMARK    5  A    between atoms: C_11  and  N_12
REMARK    6  A    between atoms: N_12  and  C_13
REMARK    7  A    between atoms: N_12  and  C_14
REMARK    8  A    between atoms: C_14  and  C_15
REMARK    9  A    between atoms: N_17  and  C_18
REMARK   10  A    between atoms: C_18  and  C_19
REMARK                            x       y       z     vdW  Elec       q    Type
REMARK                         _______ _______ _______ _____ _____    ______ ____
ROOT
ATOM      1  N   UNL     1       6.194   7.032  17.494  0.00  0.00    +0.000 NA
ATOM      2  C   UNL     1       4.740   7.238  17.444  0.00  0.00    +0.000 C 
ENDROOT
BRANCH   1   3
ATOM      3  C   UNL     1       6.907   8.254  17.058  0.00  0.00    +0.000 C 
BRANCH   3   5
ATOM      4  N   UNL     1       8.371   9.978  17.898  0.00  0.00    +0.000 N 
ATOM      5  C   UNL     1       8.055   8.634  17.981  0.00  0.00    +0.000 C 
ATOM      6  O   UNL     1       8.567   7.794  18.708  0.00  0.00    +0.000 OA
ATOM      7  H   UNL     1       7.960  10.468  17.111  0.00  0.00    +0.000 HD
BRANCH   4  12
ATOM      8  C   UNL     1       9.976  11.725  20.725  0.00  0.00    +0.000 A 
ATOM      9  C   UNL     1      11.210  12.072  20.170  0.00  0.00    +0.000 A 
ATOM     10  C   UNL     1      11.535  11.683  18.873  0.00  0.00    +0.000 A 
ATOM     11  C   UNL     1      10.615  10.969  18.116  0.00  0.00    +0.000 A 
ATOM     12  C   UNL     1       9.365  10.638  18.644  0.00  0.00    +0.000 A 
ATOM     13  C   UNL     1       9.061  10.991  19.965  0.00  0.00    +0.000 A 
BRANCH   8  15
ATOM     14  C   UNL     1       8.444  12.274  22.460  0.00  0.00    +0.000 C 
ATOM     15  O   UNL     1       9.785  12.181  21.999  0.00  0.00    +0.000 OA
ENDBRANCH   8  15
ENDBRANCH   4  12
ENDBRANCH   3   5
ENDBRANCH   1   3
BRANCH   1  16
ATOM     16  C   UNL     1       6.558   5.841  16.679  0.00  0.00    +0.000 C 
BRANCH  16  17
ATOM     17  C   UNL     1       6.827   4.566  17.494  0.00  0.00    +0.000 C 
ATOM     18  O   UNL     1       7.917   4.349  18.023  0.00  0.00    +0.000 OA
ATOM     19  N   UNL     1       5.826   3.648  17.647  0.00  0.00    +0.000 N 
ATOM     20  H   UNL     1       6.086   2.848  18.214  0.00  0.00    +0.000 HD
BRANCH  19  21
ATOM     21  C   UNL     1       4.456   3.737  17.198  0.00  0.00    +0.000 C 
BRANCH  21  22
ATOM     22  C   UNL     1       3.473   3.451  18.291  0.00  0.00    +0.000 A 
ATOM     23  C   UNL     1       3.922   2.907  19.501  0.00  0.00    +0.000 A 
ATOM     24  C   UNL     1       3.025   2.711  20.546  0.00  0.00    +0.000 A 
ATOM     25  C   UNL     1       1.691   3.069  20.382  0.00  0.00    +0.000 A 
ATOM     26  F   UNL     1       0.832   2.884  21.392  0.00  0.00    +0.000 F 
ATOM     27  C   UNL     1       1.236   3.632  19.194  0.00  0.00    +0.000 A 
ATOM     28  C   UNL     1       2.128   3.826  18.148  0.00  0.00    +0.000 A 
ENDBRANCH  21  22
ENDBRANCH  19  21
ENDBRANCH  16  17
ENDBRANCH   1  16
TORSDOF 8
ENDMDL
MODEL 8
REMARK VINA RESULT:      -7.0      2.800      5.135
REMARK  Name = 
REMARK  10 active torsions:
REMARK  status: ('A' for Active; 'I' for Inactive)
REMARK    1  A    between atoms: C_1  and  O_2
REMARK    2  A    between atoms: O_2  and  C_3
REMARK    3  A    between atoms: C_7  and  N_8
REMARK    4  A    between atoms: C_9  and  C_11
REMARK    5  A    between atoms: C_11  and  N_12
REMARK    6  A    between atoms: N_12  and  C_13
REMARK    7  A    between atoms: N_12  and  C_14
REMARK    8  A    between atoms: C_14  and  C_15
REMARK    9  A    between atoms: N_17  and  C_18
REMARK   10  A    between atoms: C_18  and  C_19
REMARK                            x       y       z     vdW  Elec       q    Type
REMARK                         _______ _______ _______ _____ _____    ______ ____
ROOT
ATOM      1  N   UNL     1       6.368   5.109  18.236  0.00  0.00    +0.000 NA
ATOM      2  C   UNL     1       7.757   5.099  18.716  0.00  0.00    +0.000 C 
ENDROOT
BRANCH   1   3
ATOM      3  C   UNL     1       6.062   6.390  17.560  0.00  0.00    +0.000 C 
BRANCH   3   5
ATOM      4  N   UNL     1       6.732   5.262  15.534  0.00  0.00    +0.000 N 
ATOM      5  C   UNL     1       5.909   6.245  16.054  0.00  0.00    +0.000 C 
ATOM      6  O   UNL     1       5.102   6.937  15.445  0.00  0.00    +0.000 OA
ATOM      7  H   UNL     1       7.454   4.931  16.164  0.00  0.00    +0.000 HD
BRANCH   4  12
ATOM      8  C   UNL     1       5.937   3.450  12.420  0.00  0.00    +0.000 A 
ATOM      9  C   UNL     1       6.930   3.928  11.562  0.00  0.00    +0.000 A 
ATOM     10  C   UNL     1       7.836   4.890  11.998  0.00  0.00    +0.000 A 
ATOM     11  C   UNL     1       7.769   5.361  13.303  0.00  0.00    +0.000 A 
ATOM     12  C   UNL     1       6.800   4.874  14.184  0.00  0.00    +0.000 A 
ATOM     13  C   UNL     1       5.862   3.939  13.727  0.00  0.00    +0.000 A 
BRANCH   8  15
ATOM     14  C   UNL     1       3.996   2.958  11.135  0.00  0.00    +0.000 C 
ATOM     15  O   UNL     1       5.125   2.500  11.866  0.00  0.00    +0.000 OA
ENDBRANCH   8  15
ENDBRANCH   4  12
ENDBRANCH   3   5
ENDBRANCH   1   3
BRANCH   1  16
ATOM     16  C   UNL     1       5.446   4.831  19.371  0.00  0.00    +0.000 C 
BRANCH  16  17
ATOM     17  C   UNL     1       4.686   3.499  19.267  0.00  0.00    +0.000 C 
ATOM     18  O   UNL     1       5.043   2.495  19.883  0.00  0.00    +0.000 OA
ATOM     19  N   UNL     1       3.575   3.426  18.475  0.00  0.00    +0.000 N 
ATOM     20  H   UNL     1       3.126   2.517  18.480  0.00  0.00    +0.000 HD
BRANCH  19  21
ATOM     21  C   UNL     1       2.928   4.490  17.742  0.00  0.00    +0.000 C 
BRANCH  21  22
ATOM     22  C   UNL     1       2.423   5.579  18.636  0.00  0.00    +0.000 A 
ATOM     23  C   UNL     1       1.892   5.255  19.891  0.00  0.00    +0.000 A 
ATOM     24  C   UNL     1       1.492   6.270  20.756  0.00  0.00    +0.000 A 
ATOM     25  C   UNL     1       1.635   7.598  20.368  0.00  0.00    +0.000 A 
ATOM     26  F   UNL     1       1.255   8.571  21.205  0.00  0.00    +0.000 F 
ATOM     27  C   UNL     1       2.183   7.934  19.134  0.00  0.00    +0.000 A 
ATOM     28  C   UNL     1       2.580   6.925  18.267  0.00  0.00    +0.000 A 
ENDBRANCH  21  22
ENDBRANCH  19  21
ENDBRANCH  16  17
ENDBRANCH   1  16
TORSDOF 8
ENDMDL
MODEL 9
REMARK VINA RESULT:      -7.0      2.504      3.897
REMARK  Name = 
REMARK  10 active torsions:
REMARK  status: ('A' for Active; 'I' for Inactive)
REMARK    1  A    between atoms: C_1  and  O_2
REMARK    2  A    between atoms: O_2  and  C_3
REMARK    3  A    between atoms: C_7  and  N_8
REMARK    4  A    between atoms: C_9  and  C_11
REMARK    5  A    between atoms: C_11  and  N_12
REMARK    6  A    between atoms: N_12  and  C_13
REMARK    7  A    between atoms: N_12  and  C_14
REMARK    8  A    between atoms: C_14  and  C_15
REMARK    9  A    between atoms: N_17  and  C_18
REMARK   10  A    between atoms: C_18  and  C_19
REMARK                            x       y       z     vdW  Elec       q    Type
REMARK                         _______ _______ _______ _____ _____    ______ ____
ROOT
ATOM      1  N   UNL     1       3.537   3.235  18.741  0.00  0.00    +0.000 NA
ATOM      2  C   UNL     1       3.496   1.864  18.216  0.00  0.00    +0.000 C 
ENDROOT
BRANCH   1   3
ATOM      3  C   UNL     1       4.871   3.836  18.521  0.00  0.00    +0.000 C 
BRANCH   3   5
ATOM      4  N   UNL     1       5.936   3.727  16.359  0.00  0.00    +0.000 N 
ATOM      5  C   UNL     1       5.033   4.433  17.132  0.00  0.00    +0.000 C 
ATOM      6  O   UNL     1       4.377   5.412  16.800  0.00  0.00    +0.000 OA
ATOM      7  H   UNL     1       6.509   3.062  16.868  0.00  0.00    +0.000 HD
BRANCH   4  12
ATOM      8  C   UNL     1       5.953   3.506  12.675  0.00  0.00    +0.000 A 
ATOM      9  C   UNL     1       6.976   4.400  12.350  0.00  0.00    +0.000 A 
ATOM     10  C   UNL     1       7.629   5.118  13.348  0.00  0.00    +0.000 A 
ATOM     11  C   UNL     1       7.281   4.924  14.679  0.00  0.00    +0.000 A 
ATOM     12  C   UNL     1       6.280   4.014  15.025  0.00  0.00    +0.000 A 
ATOM     13  C   UNL     1       5.593   3.328  14.014  0.00  0.00    +0.000 A 
BRANCH   8  15
ATOM     14  C   UNL     1       5.886   1.554  11.317  0.00  0.00    +0.000 C 
ATOM     15  O   UNL     1       5.407   2.861  11.600  0.00  0.00    +0.000 OA
ENDBRANCH   8  15
ENDBRANCH   4  12
ENDBRANCH   3   5
ENDBRANCH   1   3
BRANCH   1  16
ATOM     16  C   UNL     1       3.144   3.231  20.177  0.00  0.00    +0.000 C 
BRANCH  16  17
ATOM     17  C   UNL     1       1.755   3.822  20.463  0.00  0.00    +0.000 C 
ATOM     18  O   UNL     1       0.781   3.108  20.706  0.00  0.00    +0.000 OA
ATOM     19  N   UNL     1       1.592   5.179  20.457  0.00  0.00    +0.000 N 
ATOM     20  H   UNL     1       0.649   5.480  20.674  0.00  0.00    +0.000 HD
BRANCH  19  21
ATOM     21  C   UNL     1       2.601   6.199  20.290  0.00  0.00    +0.000 C 
BRANCH  21  22
ATOM     22  C   UNL     1       2.042   7.477  19.747  0.00  0.00    +0.000 A 
ATOM     23  C   UNL     1       1.283   8.310  20.579  0.00  0.00    +0.000 A 
ATOM     24  C   UNL     1       0.826   9.534  20.101  0.00  0.00    +0.000 A 
ATOM     25  C   UNL     1       1.138   9.924  18.802  0.00  0.00    +0.000 A 
ATOM     26  F   UNL     1       0.701  11.104  18.348  0.00  0.00    +0.000 F 
ATOM     27  C   UNL     1       1.910   9.117  17.973  0.00  0.00    +0.000 A 
ATOM     28  C   UNL     1       2.365   7.894  18.445  0.00  0.00    +0.000 A 
ENDBRANCH  21  22
ENDBRANCH  19  21
ENDBRANCH  16  17
ENDBRANCH   1  16
TORSDOF 8
ENDMDL
