MODEL 1
REMARK VINA RESULT:      -7.5      0.000      0.000
REMARK  Name = 
REMARK  5 active torsions:
REMARK  status: ('A' for Active; 'I' for Inactive)
REMARK    1  A    between atoms: N_1  and  S_2
REMARK    2  A    between atoms: S_2  and  C_5
REMARK    3  A    between atoms: C_8  and  N_9
REMARK    4  A    between atoms: C_11  and  C_12
REMARK    5  A    between atoms: C_17  and  C_18
REMARK                            x       y       z     vdW  Elec       q    Type
REMARK                         _______ _______ _______ _____ _____    ______ ____
ROOT
ATOM      1  N   UNL     1       6.432   6.376  16.903  0.00  0.00    +0.000 N 
ATOM      2  N   UNL     1       6.713   6.031  15.617  0.00  0.00    +0.000 NA
ATOM      3  C   UNL     1       6.040   4.949  15.361  0.00  0.00    +0.000 C 
ATOM      4  C   UNL     1       5.170   4.448  16.472  0.00  0.00    +0.000 C 
ATOM      5  C   UNL     1       5.545   5.425  17.583  0.00  0.00    +0.000 C 
ENDROOT
BRANCH   5   6
ATOM      6  C   UNL     1       4.321   6.072  18.210  0.00  0.00    +0.000 A 
ATOM      7  C   UNL     1       3.819   5.564  19.416  0.00  0.00    +0.000 A 
ATOM      8  C   UNL     1       2.792   6.224  20.094  0.00  0.00    +0.000 A 
ATOM      9  C   UNL     1       2.236   7.405  19.581  0.00  0.00    +0.000 A 
ATOM     10  C   UNL     1       1.292   8.145  20.312  0.00  0.00    +0.000 A 
ATOM     11  C   UNL     1       0.749   9.320  19.790  0.00  0.00    +0.000 A 
ATOM     12  C   UNL     1       1.106   9.742  18.513  0.00  0.00    +0.000 A 
ATOM     13  C   UNL     1       2.049   9.020  17.779  0.00  0.00    +0.000 A 
ATOM     14  C   UNL     1       2.652   7.871  18.316  0.00  0.00    +0.000 A 
ATOM     15  C   UNL     1       3.685   7.193  17.643  0.00  0.00    +0.000 A 
ENDBRANCH   5   6
BRANCH   1  19
ATOM     16  C   UNL     1       8.677   9.479  18.650  0.00  0.00    +0.000 A 
ATOM     17  C   UNL     1       8.844   8.170  19.087  0.00  0.00    +0.000 A 
ATOM     18  C   UNL     1       8.061   7.157  18.524  0.00  0.00    +0.000 A 
ATOM     19  C   UNL     1       7.119   7.425  17.509  0.00  0.00    +0.000 A 
ATOM     20  C   UNL     1       6.951   8.762  17.124  0.00  0.00    +0.000 A 
ATOM     21  C   UNL     1       7.709   9.787  17.693  0.00  0.00    +0.000 A 
BRANCH  16  22
ATOM     22  S   UNL     1       9.694  10.775  19.283  0.00  0.00    +0.000 S 
ATOM     23  O   UNL     1      10.983  10.740  18.640  0.00  0.00    +0.000 OA
ATOM     24  O   UNL     1       9.542  10.843  20.721  0.00  0.00    +0.000 OA
BRANCH  22  25
ATOM     25  N   UNL     1       8.900  12.129  18.679  0.00  0.00    +0.000 NA
ATOM     26  H   UNL     1       8.386  11.881  17.836  0.00  0.00    +0.000 HD
ATOM     27  H   UNL     1       9.546  12.909  18.566  0.00  0.00    +0.000 HD
ENDBRANCH  22  25
ENDBRANCH  16  22
ENDBRANCH   1  19
BRANCH   3  28
ATOM     28  C   UNL     1       6.099   4.209  14.057  0.00  0.00    +0.000 C 
ATOM     29  F   UNL     1       4.907   4.246  13.400  0.00  0.00    +0.000 F 
ATOM     30  F   UNL     1       7.021   4.724  13.202  0.00  0.00    +0.000 F 
ATOM     31  F   UNL     1       6.399   2.894  14.219  0.00  0.00    +0.000 F 
ENDBRANCH   3  28
TORSDOF 5
ENDMDL
MODEL 2
REMARK VINA RESULT:      -7.5      7.976     10.534
REMARK  Name = 
REMARK  5 active torsions:
REMARK  status: ('A' for Active; 'I' for Inactive)
REMARK    1  A    between atoms: N_1  and  S_2
REMARK    2  A    between atoms: S_2  and  C_5
REMARK    3  A    between atoms: C_8  and  N_9
REMARK    4  A    between atoms: C_11  and  C_12
REMARK    5  A    between atoms: C_17  and  C_18
REMARK                            x       y       z     vdW  Elec       q    Type
REMARK                         _______ _______ _______ _____ _____    ______ ____
ROOT
ATOM      1  N   UNL     1      -0.185  12.842  19.093  0.00  0.00    +0.000 N 
ATOM      2  N   UNL     1       0.202  14.032  18.561  0.00  0.00    +0.000 NA
ATOM      3  C   UNL     1       1.445  14.209  18.895  0.00  0.00    +0.000 C 
ATOM      4  C   UNL     1       2.068  13.099  19.684  0.00  0.00    +0.000 C 
ATOM      5  C   UNL     1       0.860  12.190  19.891  0.00  0.00    +0.000 C 
ENDROOT
BRANCH   5   6
ATOM      6  C   UNL     1       1.146  10.758  19.473  0.00  0.00    +0.000 A 
ATOM      7  C   UNL     1       1.595  10.500  18.171  0.00  0.00    +0.000 A 
ATOM      8  C   UNL     1       2.008   9.218  17.801  0.00  0.00    +0.000 A 
ATOM      9  C   UNL     1       1.976   8.160  18.720  0.00  0.00    +0.000 A 
ATOM     10  C   UNL     1       2.504   6.898  18.400  0.00  0.00    +0.000 A 
ATOM     11  C   UNL     1       2.468   5.855  19.327  0.00  0.00    +0.000 A 
ATOM     12  C   UNL     1       1.860   6.047  20.564  0.00  0.00    +0.000 A 
ATOM     13  C   UNL     1       1.339   7.298  20.898  0.00  0.00    +0.000 A 
ATOM     14  C   UNL     1       1.425   8.375  20.001  0.00  0.00    +0.000 A 
ATOM     15  C   UNL     1       1.009   9.671  20.358  0.00  0.00    +0.000 A 
ENDBRANCH   5   6
BRANCH   1  19
ATOM     16  C   UNL     1      -4.265  11.836  18.847  0.00  0.00    +0.000 A 
ATOM     17  C   UNL     1      -3.780  12.501  19.967  0.00  0.00    +0.000 A 
ATOM     18  C   UNL     1      -2.415  12.791  20.051  0.00  0.00    +0.000 A 
ATOM     19  C   UNL     1      -1.518  12.445  19.019  0.00  0.00    +0.000 A 
ATOM     20  C   UNL     1      -2.038  11.741  17.924  0.00  0.00    +0.000 A 
ATOM     21  C   UNL     1      -3.395  11.423  17.837  0.00  0.00    +0.000 A 
BRANCH  16  22
ATOM     22  S   UNL     1      -5.992  11.514  18.669  0.00  0.00    +0.000 S 
ATOM     23  O   UNL     1      -6.746  12.464  19.446  0.00  0.00    +0.000 OA
ATOM     24  O   UNL     1      -6.222  10.086  18.746  0.00  0.00    +0.000 OA
BRANCH  22  25
ATOM     25  N   UNL     1      -6.230  11.925  17.056  0.00  0.00    +0.000 NA
ATOM     26  H   UNL     1      -6.838  12.740  16.993  0.00  0.00    +0.000 HD
ATOM     27  H   UNL     1      -6.546  11.120  16.519  0.00  0.00    +0.000 HD
ENDBRANCH  22  25
ENDBRANCH  16  22
ENDBRANCH   1  19
BRANCH   3  28
ATOM     28  C   UNL     1       2.248  15.426  18.543  0.00  0.00    +0.000 C 
ATOM     29  F   UNL     1       3.066  15.204  17.478  0.00  0.00    +0.000 F 
ATOM     30  F   UNL     1       1.470  16.490  18.209  0.00  0.00    +0.000 F 
ATOM     31  F   UNL     1       3.054  15.830  19.560  0.00  0.00    +0.000 F 
ENDBRANCH   3  28
TORSDOF 5
ENDMDL
MODEL 3
REMARK VINA RESULT:      -7.4      0.663      1.078
REMARK  Name = 
REMARK  5 active torsions:
REMARK  status: ('A' for Active; 'I' for Inactive)
REMARK    1  A    between atoms: N_1  and  S_2
REMARK    2  A    between atoms: S_2  and  C_5
REMARK    3  A    between atoms: C_8  and  N_9
REMARK    4  A    between atoms: C_11  and  C_12
REMARK    5  A    between atoms: C_17  and  C_18
REMARK                            x       y       z     vdW  Elec       q    Type
REMARK                         _______ _______ _______ _____ _____    ______ ____
ROOT
ATOM      1  N   UNL     1       6.419   6.407  16.918  0.00  0.00    +0.000 N 
ATOM      2  N   UNL     1       6.697   6.051  15.634  0.00  0.00    +0.000 NA
ATOM      3  C   UNL     1       6.040   4.956  15.395  0.00  0.00    +0.000 C 
ATOM      4  C   UNL     1       5.184   4.455  16.518  0.00  0.00    +0.000 C 
ATOM      5  C   UNL     1       5.551   5.450  17.614  0.00  0.00    +0.000 C 
ENDROOT
BRANCH   5   6
ATOM      6  C   UNL     1       4.321   6.086  18.242  0.00  0.00    +0.000 A 
ATOM      7  C   UNL     1       3.826   5.576  19.450  0.00  0.00    +0.000 A 
ATOM      8  C   UNL     1       2.794   6.227  20.128  0.00  0.00    +0.000 A 
ATOM      9  C   UNL     1       2.225   7.401  19.614  0.00  0.00    +0.000 A 
ATOM     10  C   UNL     1       1.275   8.133  20.344  0.00  0.00    +0.000 A 
ATOM     11  C   UNL     1       0.719   9.302  19.820  0.00  0.00    +0.000 A 
ATOM     12  C   UNL     1       1.070   9.724  18.542  0.00  0.00    +0.000 A 
ATOM     13  C   UNL     1       2.019   9.010  17.808  0.00  0.00    +0.000 A 
ATOM     14  C   UNL     1       2.634   7.868  18.347  0.00  0.00    +0.000 A 
ATOM     15  C   UNL     1       3.673   7.199  17.673  0.00  0.00    +0.000 A 
ENDBRANCH   5   6
BRANCH   1  19
ATOM     16  C   UNL     1       8.627   9.567  18.608  0.00  0.00    +0.000 A 
ATOM     17  C   UNL     1       8.851   8.261  19.029  0.00  0.00    +0.000 A 
ATOM     18  C   UNL     1       8.080   7.228  18.487  0.00  0.00    +0.000 A 
ATOM     19  C   UNL     1       7.094   7.473  17.508  0.00  0.00    +0.000 A 
ATOM     20  C   UNL     1       6.871   8.807  17.139  0.00  0.00    +0.000 A 
ATOM     21  C   UNL     1       7.616   9.851  17.689  0.00  0.00    +0.000 A 
BRANCH  16  22
ATOM     22  S   UNL     1       9.625  10.891  19.215  0.00  0.00    +0.000 S 
ATOM     23  O   UNL     1       8.942  12.144  19.017  0.00  0.00    +0.000 OA
ATOM     24  O   UNL     1      10.998  10.679  18.808  0.00  0.00    +0.000 OA
BRANCH  22  25
ATOM     25  N   UNL     1       9.589  10.588  20.868  0.00  0.00    +0.000 NA
ATOM     26  H   UNL     1       9.886   9.631  21.051  0.00  0.00    +0.000 HD
ATOM     27  H   UNL     1       8.683  10.832  21.263  0.00  0.00    +0.000 HD
ENDBRANCH  22  25
ENDBRANCH  16  22
ENDBRANCH   1  19
BRANCH   3  28
ATOM     28  C   UNL     1       6.101   4.203  14.100  0.00  0.00    +0.000 C 
ATOM     29  F   UNL     1       6.367   2.882  14.294  0.00  0.00    +0.000 F 
ATOM     30  F   UNL     1       4.934   4.257  13.404  0.00  0.00    +0.000 F 
ATOM     31  F   UNL     1       7.076   4.666  13.273  0.00  0.00    +0.000 F 
ENDBRANCH   3  28
TORSDOF 5
ENDMDL
MODEL 4
REMARK VINA RESULT:      -7.3      6.271      8.439
REMARK  Name = 
REMARK  5 active torsions:
REMARK  status: ('A' for Active; 'I' for Inactive)
REMARK    1  A    between atoms: N_1  and  S_2
REMARK    2  A    between atoms: S_2  and  C_5
REMARK    3  A    between atoms: C_8  and  N_9
REMARK    4  A    between atoms: C_11  and  C_12
REMARK    5  A    between atoms: C_17  and  C_18
REMARK                            x       y       z     vdW  Elec       q    Type
REMARK                         _______ _______ _______ _____ _____    ______ ____
ROOT
ATOM      1  N   UNL     1       0.225  12.560  19.523  0.00  0.00    +0.000 N 
ATOM      2  N   UNL     1      -0.817  13.154  20.163  0.00  0.00    +0.000 NA
ATOM      3  C   UNL     1      -1.863  12.410  19.954  0.00  0.00    +0.000 C 
ATOM      4  C   UNL     1      -1.623  11.166  19.154  0.00  0.00    +0.000 C 
ATOM      5  C   UNL     1      -0.155  11.351  18.781  0.00  0.00    +0.000 C 
ENDROOT
BRANCH   5   6
ATOM      6  C   UNL     1       0.680  10.131  19.131  0.00  0.00    +0.000 A 
ATOM      7  C   UNL     1       0.548   9.549  20.398  0.00  0.00    +0.000 A 
ATOM      8  C   UNL     1       1.186   8.344  20.699  0.00  0.00    +0.000 A 
ATOM      9  C   UNL     1       1.979   7.694  19.743  0.00  0.00    +0.000 A 
ATOM     10  C   UNL     1       2.525   6.423  19.989  0.00  0.00    +0.000 A 
ATOM     11  C   UNL     1       3.309   5.786  19.026  0.00  0.00    +0.000 A 
ATOM     12  C   UNL     1       3.599   6.432  17.829  0.00  0.00    +0.000 A 
ATOM     13  C   UNL     1       3.057   7.692  17.568  0.00  0.00    +0.000 A 
ATOM     14  C   UNL     1       2.213   8.319  18.500  0.00  0.00    +0.000 A 
ATOM     15  C   UNL     1       1.566   9.535  18.213  0.00  0.00    +0.000 A 
ENDBRANCH   5   6
BRANCH   1  19
ATOM     16  C   UNL     1       3.857  14.667  19.227  0.00  0.00    +0.000 A 
ATOM     17  C   UNL     1       3.217  14.222  18.076  0.00  0.00    +0.000 A 
ATOM     18  C   UNL     1       2.033  13.488  18.194  0.00  0.00    +0.000 A 
ATOM     19  C   UNL     1       1.458  13.204  19.451  0.00  0.00    +0.000 A 
ATOM     20  C   UNL     1       2.154  13.636  20.589  0.00  0.00    +0.000 A 
ATOM     21  C   UNL     1       3.349  14.349  20.487  0.00  0.00    +0.000 A 
BRANCH  16  22
ATOM     22  S   UNL     1       5.315  15.657  19.120  0.00  0.00    +0.000 S 
ATOM     23  O   UNL     1       6.161  15.401  20.258  0.00  0.00    +0.000 OA
ATOM     24  O   UNL     1       4.954  16.996  18.703  0.00  0.00    +0.000 OA
BRANCH  22  25
ATOM     25  N   UNL     1       6.079  14.960  17.794  0.00  0.00    +0.000 NA
ATOM     26  H   UNL     1       6.881  15.525  17.521  0.00  0.00    +0.000 HD
ATOM     27  H   UNL     1       5.414  14.780  17.045  0.00  0.00    +0.000 HD
ENDBRANCH  22  25
ENDBRANCH  16  22
ENDBRANCH   1  19
BRANCH   3  28
ATOM     28  C   UNL     1      -3.239  12.731  20.455  0.00  0.00    +0.000 C 
ATOM     29  F   UNL     1      -3.464  14.073  20.494  0.00  0.00    +0.000 F 
ATOM     30  F   UNL     1      -4.219  12.204  19.674  0.00  0.00    +0.000 F 
ATOM     31  F   UNL     1      -3.453  12.276  21.718  0.00  0.00    +0.000 F 
ENDBRANCH   3  28
TORSDOF 5
ENDMDL
MODEL 5
REMARK VINA RESULT:      -7.3      6.374      8.406
REMARK  Name = 
REMARK  5 active torsions:
REMARK  status: ('A' for Active; 'I' for Inactive)
REMARK    1  A    between atoms: N_1  and  S_2
REMARK    2  A    between atoms: S_2  and  C_5
REMARK    3  A    between atoms: C_8  and  N_9
REMARK    4  A    between atoms: C_11  and  C_12
REMARK    5  A    between atoms: C_17  and  C_18
REMARK                            x       y       z     vdW  Elec       q    Type
REMARK                         _______ _______ _______ _____ _____    ______ ____
ROOT
ATOM      1  N   UNL     1       0.285  12.540  19.571  0.00  0.00    +0.000 N 
ATOM      2  N   UNL     1      -0.756  13.139  20.210  0.00  0.00    +0.000 NA
ATOM      3  C   UNL     1      -1.807  12.408  19.986  0.00  0.00    +0.000 C 
ATOM      4  C   UNL     1      -1.575  11.170  19.175  0.00  0.00    +0.000 C 
ATOM      5  C   UNL     1      -0.103  11.344  18.814  0.00  0.00    +0.000 C 
ENDROOT
BRANCH   5   6
ATOM      6  C   UNL     1       0.717  10.111  19.156  0.00  0.00    +0.000 A 
ATOM      7  C   UNL     1       0.567   9.515  20.415  0.00  0.00    +0.000 A 
ATOM      8  C   UNL     1       1.190   8.299  20.708  0.00  0.00    +0.000 A 
ATOM      9  C   UNL     1       1.986   7.653  19.752  0.00  0.00    +0.000 A 
ATOM     10  C   UNL     1       2.516   6.374  19.987  0.00  0.00    +0.000 A 
ATOM     11  C   UNL     1       3.305   5.741  19.024  0.00  0.00    +0.000 A 
ATOM     12  C   UNL     1       3.612   6.400  17.838  0.00  0.00    +0.000 A 
ATOM     13  C   UNL     1       3.086   7.668  17.587  0.00  0.00    +0.000 A 
ATOM     14  C   UNL     1       2.239   8.291  18.519  0.00  0.00    +0.000 A 
ATOM     15  C   UNL     1       1.606   9.517  18.240  0.00  0.00    +0.000 A 
ENDBRANCH   5   6
BRANCH   1  19
ATOM     16  C   UNL     1       3.941  14.612  19.324  0.00  0.00    +0.000 A 
ATOM     17  C   UNL     1       3.302  14.190  18.164  0.00  0.00    +0.000 A 
ATOM     18  C   UNL     1       2.109  13.467  18.265  0.00  0.00    +0.000 A 
ATOM     19  C   UNL     1       1.525  13.172  19.515  0.00  0.00    +0.000 A 
ATOM     20  C   UNL     1       2.219  13.580  20.662  0.00  0.00    +0.000 A 
ATOM     21  C   UNL     1       3.423  14.281  20.577  0.00  0.00    +0.000 A 
BRANCH  16  22
ATOM     22  S   UNL     1       5.410  15.587  19.239  0.00  0.00    +0.000 S 
ATOM     23  O   UNL     1       6.238  15.125  18.155  0.00  0.00    +0.000 OA
ATOM     24  O   UNL     1       5.923  15.796  20.577  0.00  0.00    +0.000 OA
BRANCH  22  25
ATOM     25  N   UNL     1       4.783  17.071  18.757  0.00  0.00    +0.000 NA
ATOM     26  H   UNL     1       4.790  17.720  19.541  0.00  0.00    +0.000 HD
ATOM     27  H   UNL     1       3.874  16.954  18.312  0.00  0.00    +0.000 HD
ENDBRANCH  22  25
ENDBRANCH  16  22
ENDBRANCH   1  19
BRANCH   3  28
ATOM     28  C   UNL     1      -3.184  12.738  20.480  0.00  0.00    +0.000 C 
ATOM     29  F   UNL     1      -4.150  12.167  19.709  0.00  0.00    +0.000 F 
ATOM     30  F   UNL     1      -3.405  12.306  21.749  0.00  0.00    +0.000 F 
ATOM     31  F   UNL     1      -3.435  14.074  20.468  0.00  0.00    +0.000 F 
ENDBRANCH   3  28
TORSDOF 5
ENDMDL
MODEL 6
REMARK VINA RESULT:      -7.3      4.686      6.978
REMARK  Name = 
REMARK  5 active torsions:
REMARK  status: ('A' for Active; 'I' for Inactive)
REMARK    1  A    between atoms: N_1  and  S_2
REMARK    2  A    between atoms: S_2  and  C_5
REMARK    3  A    between atoms: C_8  and  N_9
REMARK    4  A    between atoms: C_11  and  C_12
REMARK    5  A    between atoms: C_17  and  C_18
REMARK                            x       y       z     vdW  Elec       q    Type
REMARK                         _______ _______ _______ _____ _____    ______ ____
ROOT
ATOM      1  N   UNL     1       2.247   5.861  19.482  0.00  0.00    +0.000 N 
ATOM      2  N   UNL     1       2.114   5.306  20.717  0.00  0.00    +0.000 NA
ATOM      3  C   UNL     1       2.307   4.028  20.579  0.00  0.00    +0.000 C 
ATOM      4  C   UNL     1       2.642   3.569  19.193  0.00  0.00    +0.000 C 
ATOM      5  C   UNL     1       2.495   4.877  18.422  0.00  0.00    +0.000 C 
ENDROOT
BRANCH   5   6
ATOM      6  C   UNL     1       3.722   5.184  17.579  0.00  0.00    +0.000 A 
ATOM      7  C   UNL     1       4.718   6.022  18.097  0.00  0.00    +0.000 A 
ATOM      8  C   UNL     1       5.923   6.203  17.415  0.00  0.00    +0.000 A 
ATOM      9  C   UNL     1       6.160   5.558  16.193  0.00  0.00    +0.000 A 
ATOM     10  C   UNL     1       7.410   5.632  15.558  0.00  0.00    +0.000 A 
ATOM     11  C   UNL     1       7.633   4.981  14.343  0.00  0.00    +0.000 A 
ATOM     12  C   UNL     1       6.594   4.291  13.726  0.00  0.00    +0.000 A 
ATOM     13  C   UNL     1       5.348   4.203  14.349  0.00  0.00    +0.000 A 
ATOM     14  C   UNL     1       5.128   4.799  15.602  0.00  0.00    +0.000 A 
ATOM     15  C   UNL     1       3.918   4.628  16.300  0.00  0.00    +0.000 A 
ENDBRANCH   5   6
BRANCH   1  19
ATOM     16  C   UNL     1       1.526   9.982  19.016  0.00  0.00    +0.000 A 
ATOM     17  C   UNL     1       1.293   9.371  20.243  0.00  0.00    +0.000 A 
ATOM     18  C   UNL     1       1.498   7.994  20.369  0.00  0.00    +0.000 A 
ATOM     19  C   UNL     1       1.956   7.210  19.289  0.00  0.00    +0.000 A 
ATOM     20  C   UNL     1       2.141   7.855  18.059  0.00  0.00    +0.000 A 
ATOM     21  C   UNL     1       1.917   9.225  17.911  0.00  0.00    +0.000 A 
BRANCH  16  22
ATOM     22  S   UNL     1       1.347  11.729  18.832  0.00  0.00    +0.000 S 
ATOM     23  O   UNL     1       1.916  12.399  19.974  0.00  0.00    +0.000 OA
ATOM     24  O   UNL     1       0.018  12.024  18.339  0.00  0.00    +0.000 OA
BRANCH  22  25
ATOM     25  N   UNL     1       2.385  12.024  17.543  0.00  0.00    +0.000 NA
ATOM     26  H   UNL     1       3.351  11.923  17.847  0.00  0.00    +0.000 HD
ATOM     27  H   UNL     1       2.171  12.917  17.102  0.00  0.00    +0.000 HD
ENDBRANCH  22  25
ENDBRANCH  16  22
ENDBRANCH   1  19
BRANCH   3  28
ATOM     28  C   UNL     1       2.209   3.035  21.698  0.00  0.00    +0.000 C 
ATOM     29  F   UNL     1       3.210   2.114  21.648  0.00  0.00    +0.000 F 
ATOM     30  F   UNL     1       2.288   3.616  22.925  0.00  0.00    +0.000 F 
ATOM     31  F   UNL     1       1.047   2.331  21.669  0.00  0.00    +0.000 F 
ENDBRANCH   3  28
TORSDOF 5
ENDMDL
MODEL 7
REMARK VINA RESULT:      -7.3      4.835      7.048
REMARK  Name = 
REMARK  5 active torsions:
REMARK  status: ('A' for Active; 'I' for Inactive)
REMARK    1  A    between atoms: N_1  and  S_2
REMARK    2  A    between atoms: S_2  and  C_5
REMARK    3  A    between atoms: C_8  and  N_9
REMARK    4  A    between atoms: C_11  and  C_12
REMARK    5  A    between atoms: C_17  and  C_18
REMARK                            x       y       z     vdW  Elec       q    Type
REMARK                         _______ _______ _______ _____ _____    ______ ____
ROOT
ATOM      1  N   UNL     1       2.234   5.619  19.471  0.00  0.00    +0.000 N 
ATOM      2  N   UNL     1       2.037   4.965  20.647  0.00  0.00    +0.000 NA
ATOM      3  C   UNL     1       2.149   3.695  20.397  0.00  0.00    +0.000 C 
ATOM      4  C   UNL     1       2.487   3.341  18.981  0.00  0.00    +0.000 C 
ATOM      5  C   UNL     1       2.444   4.720  18.330  0.00  0.00    +0.000 C 
ENDROOT
BRANCH   5   6
ATOM      6  C   UNL     1       3.708   5.019  17.541  0.00  0.00    +0.000 A 
ATOM      7  C   UNL     1       4.737   5.752  18.145  0.00  0.00    +0.000 A 
ATOM      8  C   UNL     1       5.967   5.915  17.505  0.00  0.00    +0.000 A 
ATOM      9  C   UNL     1       6.198   5.356  16.241  0.00  0.00    +0.000 A 
ATOM     10  C   UNL     1       7.466   5.405  15.640  0.00  0.00    +0.000 A 
ATOM     11  C   UNL     1       7.682   4.840  14.382  0.00  0.00    +0.000 A 
ATOM     12  C   UNL     1       6.622   4.264  13.689  0.00  0.00    +0.000 A 
ATOM     13  C   UNL     1       5.357   4.201  14.277  0.00  0.00    +0.000 A 
ATOM     14  C   UNL     1       5.139   4.708  15.569  0.00  0.00    +0.000 A 
ATOM     15  C   UNL     1       3.904   4.555  16.226  0.00  0.00    +0.000 A 
ENDBRANCH   5   6
BRANCH   1  19
ATOM     16  C   UNL     1       1.472   9.745  19.133  0.00  0.00    +0.000 A 
ATOM     17  C   UNL     1       1.910   9.027  18.026  0.00  0.00    +0.000 A 
ATOM     18  C   UNL     1       2.199   7.666  18.166  0.00  0.00    +0.000 A 
ATOM     19  C   UNL     1       2.036   6.996  19.397  0.00  0.00    +0.000 A 
ATOM     20  C   UNL     1       1.630   7.762  20.498  0.00  0.00    +0.000 A 
ATOM     21  C   UNL     1       1.363   9.127  20.379  0.00  0.00    +0.000 A 
BRANCH  16  22
ATOM     22  S   UNL     1       1.031  11.448  18.984  0.00  0.00    +0.000 S 
ATOM     23  O   UNL     1       1.452  12.165  20.161  0.00  0.00    +0.000 OA
ATOM     24  O   UNL     1      -0.312  11.549  18.449  0.00  0.00    +0.000 OA
BRANCH  22  25
ATOM     25  N   UNL     1       2.052  11.937  17.741  0.00  0.00    +0.000 NA
ATOM     26  H   UNL     1       1.715  12.810  17.339  0.00  0.00    +0.000 HD
ATOM     27  H   UNL     1       2.188  11.186  17.066  0.00  0.00    +0.000 HD
ENDBRANCH  22  25
ENDBRANCH  16  22
ENDBRANCH   1  19
BRANCH   3  28
ATOM     28  C   UNL     1       1.961   2.614  21.419  0.00  0.00    +0.000 C 
ATOM     29  F   UNL     1       1.467   1.473  20.866  0.00  0.00    +0.000 F 
ATOM     30  F   UNL     1       3.121   2.267  22.037  0.00  0.00    +0.000 F 
ATOM     31  F   UNL     1       1.084   2.969  22.396  0.00  0.00    +0.000 F 
ENDBRANCH   3  28
TORSDOF 5
ENDMDL
MODEL 8
REMARK VINA RESULT:      -7.2      5.982      8.132
REMARK  Name = 
REMARK  5 active torsions:
REMARK  status: ('A' for Active; 'I' for Inactive)
REMARK    1  A    between atoms: N_1  and  S_2
REMARK    2  A    between atoms: S_2  and  C_5
REMARK    3  A    between atoms: C_8  and  N_9
REMARK    4  A    between atoms: C_11  and  C_12
REMARK    5  A    between atoms: C_17  and  C_18
REMARK                            x       y       z     vdW  Elec       q    Type
REMARK                         _______ _______ _______ _____ _____    ______ ____
ROOT
ATOM      1  N   UNL     1      -0.241  11.808  18.842  0.00  0.00    +0.000 N 
ATOM      2  N   UNL     1      -1.561  12.116  18.963  0.00  0.00    +0.000 NA
ATOM      3  C   UNL     1      -2.219  11.235  18.271  0.00  0.00    +0.000 C 
ATOM      4  C   UNL     1      -1.390  10.174  17.614  0.00  0.00    +0.000 C 
ATOM      5  C   UNL     1       0.014  10.665  17.957  0.00  0.00    +0.000 C 
ENDROOT
BRANCH   5   6
ATOM      6  C   UNL     1       0.859   9.575  18.595  0.00  0.00    +0.000 A 
ATOM      7  C   UNL     1       0.655   9.249  19.943  0.00  0.00    +0.000 A 
ATOM      8  C   UNL     1       1.306   8.156  20.518  0.00  0.00    +0.000 A 
ATOM      9  C   UNL     1       2.184   7.365  19.764  0.00  0.00    +0.000 A 
ATOM     10  C   UNL     1       2.749   6.193  20.292  0.00  0.00    +0.000 A 
ATOM     11  C   UNL     1       3.619   5.413  19.528  0.00  0.00    +0.000 A 
ATOM     12  C   UNL     1       3.972   5.823  18.246  0.00  0.00    +0.000 A 
ATOM     13  C   UNL     1       3.413   6.982  17.705  0.00  0.00    +0.000 A 
ATOM     14  C   UNL     1       2.487   7.742  18.438  0.00  0.00    +0.000 A 
ATOM     15  C   UNL     1       1.825   8.848  17.873  0.00  0.00    +0.000 A 
ENDBRANCH   5   6
BRANCH   1  19
ATOM     16  C   UNL     1       2.729  14.249  20.555  0.00  0.00    +0.000 A 
ATOM     17  C   UNL     1       1.572  13.960  21.268  0.00  0.00    +0.000 A 
ATOM     18  C   UNL     1       0.577  13.182  20.668  0.00  0.00    +0.000 A 
ATOM     19  C   UNL     1       0.725  12.664  19.365  0.00  0.00    +0.000 A 
ATOM     20  C   UNL     1       1.889  13.010  18.663  0.00  0.00    +0.000 A 
ATOM     21  C   UNL     1       2.879  13.806  19.240  0.00  0.00    +0.000 A 
BRANCH  16  22
ATOM     22  S   UNL     1       4.039  15.169  21.300  0.00  0.00    +0.000 S 
ATOM     23  O   UNL     1       3.641  16.545  21.453  0.00  0.00    +0.000 OA
ATOM     24  O   UNL     1       5.297  14.785  20.694  0.00  0.00    +0.000 OA
BRANCH  22  25
ATOM     25  N   UNL     1       4.058  14.506  22.845  0.00  0.00    +0.000 NA
ATOM     26  H   UNL     1       4.991  14.589  23.245  0.00  0.00    +0.000 HD
ATOM     27  H   UNL     1       3.683  13.559  22.839  0.00  0.00    +0.000 HD
ENDBRANCH  22  25
ENDBRANCH  16  22
ENDBRANCH   1  19
BRANCH   3  28
ATOM     28  C   UNL     1      -3.710  11.236  18.105  0.00  0.00    +0.000 C 
ATOM     29  F   UNL     1      -4.094  11.896  16.977  0.00  0.00    +0.000 F 
ATOM     30  F   UNL     1      -4.229   9.984  18.008  0.00  0.00    +0.000 F 
ATOM     31  F   UNL     1      -4.348  11.851  19.136  0.00  0.00    +0.000 F 
ENDBRANCH   3  28
TORSDOF 5
ENDMDL
MODEL 9
REMARK VINA RESULT:      -7.2      5.823      7.826
REMARK  Name = 
REMARK  5 active torsions:
REMARK  status: ('A' for Active; 'I' for Inactive)
REMARK    1  A    between atoms: N_1  and  S_2
REMARK    2  A    between atoms: S_2  and  C_5
REMARK    3  A    between atoms: C_8  and  N_9
REMARK    4  A    between atoms: C_11  and  C_12
REMARK    5  A    between atoms: C_17  and  C_18
REMARK                            x       y       z     vdW  Elec       q    Type
REMARK                         _______ _______ _______ _____ _____    ______ ____
ROOT
ATOM      1  N   UNL     1       0.198  11.611  18.699  0.00  0.00    +0.000 N 
ATOM      2  N   UNL     1      -1.090  12.013  18.868  0.00  0.00    +0.000 NA
ATOM      3  C   UNL     1      -1.840  11.149  18.252  0.00  0.00    +0.000 C 
ATOM      4  C   UNL     1      -1.117  10.005  17.609  0.00  0.00    +0.000 C 
ATOM      5  C   UNL     1       0.332  10.414  17.860  0.00  0.00    +0.000 C 
ENDROOT
BRANCH   5   6
ATOM      6  C   UNL     1       1.135   9.299  18.509  0.00  0.00    +0.000 A 
ATOM      7  C   UNL     1       0.914   8.991  19.858  0.00  0.00    +0.000 A 
ATOM      8  C   UNL     1       1.524   7.880  20.445  0.00  0.00    +0.000 A 
ATOM      9  C   UNL     1       2.375   7.052  19.699  0.00  0.00    +0.000 A 
ATOM     10  C   UNL     1       2.895   5.864  20.238  0.00  0.00    +0.000 A 
ATOM     11  C   UNL     1       3.739   5.048  19.484  0.00  0.00    +0.000 A 
ATOM     12  C   UNL     1       4.112   5.434  18.200  0.00  0.00    +0.000 A 
ATOM     13  C   UNL     1       3.596   6.609  17.648  0.00  0.00    +0.000 A 
ATOM     14  C   UNL     1       2.696   7.408  18.372  0.00  0.00    +0.000 A 
ATOM     15  C   UNL     1       2.077   8.532  17.796  0.00  0.00    +0.000 A 
ENDBRANCH   5   6
BRANCH   1  19
ATOM     16  C   UNL     1       3.269  14.217  19.921  0.00  0.00    +0.000 A 
ATOM     17  C   UNL     1       3.135  13.885  18.578  0.00  0.00    +0.000 A 
ATOM     18  C   UNL     1       2.135  12.985  18.195  0.00  0.00    +0.000 A 
ATOM     19  C   UNL     1       1.245  12.422  19.133  0.00  0.00    +0.000 A 
ATOM     20  C   UNL     1       1.437  12.750  20.481  0.00  0.00    +0.000 A 
ATOM     21  C   UNL     1       2.446  13.628  20.882  0.00  0.00    +0.000 A 
BRANCH  16  22
ATOM     22  S   UNL     1       4.472  15.401  20.439  0.00  0.00    +0.000 S 
ATOM     23  O   UNL     1       5.184  14.901  21.587  0.00  0.00    +0.000 OA
ATOM     24  O   UNL     1       3.886  16.725  20.401  0.00  0.00    +0.000 OA
BRANCH  22  25
ATOM     25  N   UNL     1       5.551  15.347  19.151  0.00  0.00    +0.000 NA
ATOM     26  H   UNL     1       5.275  16.021  18.439  0.00  0.00    +0.000 HD
ATOM     27  H   UNL     1       5.662  14.393  18.810  0.00  0.00    +0.000 HD
ENDBRANCH  22  25
ENDBRANCH  16  22
ENDBRANCH   1  19
BRANCH   3  28
ATOM     28  C   UNL     1      -3.334  11.244  18.157  0.00  0.00    +0.000 C 
ATOM     29  F   UNL     1      -3.920  10.016  18.130  0.00  0.00    +0.000 F 
ATOM     30  F   UNL     1      -3.886  11.905  19.209  0.00  0.00    +0.000 F 
ATOM     31  F   UNL     1      -3.744  11.883  17.030  0.00  0.00    +0.000 F 
ENDBRANCH   3  28
TORSDOF 5
ENDMDL
