MODEL 1
REMARK VINA RESULT:      -6.7      0.000      0.000
REMARK  Name = 
REMARK  6 active torsions:
REMARK  status: ('A' for Active; 'I' for Inactive)
REMARK    1  A    between atoms: O_1  and  C_2
REMARK    2  A    between atoms: C_5  and  C_6
REMARK    3  A    between atoms: C_6  and  N_7
REMARK    4  A    between atoms: N_7  and  C_8
REMARK    5  A    between atoms: C_8  and  C_9
REMARK    6  A    between atoms: C_15  and  O_16
REMARK                            x       y       z     vdW  Elec       q    Type
REMARK                         _______ _______ _______ _____ _____    ______ ____
ROOT
ATOM      1  C   UNL     1       7.273   6.177  18.571  0.00  0.00    +0.000 C 
ATOM      2  C   UNL     1       7.351   7.146  17.402  0.00  0.00    +0.000 C 
ATOM      3  N   UNL     1       6.492   6.549  16.380  0.00  0.00    +0.000 NA
ATOM      4  C   UNL     1       6.766   5.088  16.451  0.00  0.00    +0.000 C 
ATOM      5  C   UNL     1       7.264   4.803  17.895  0.00  0.00    +0.000 C 
ATOM      6  H   UNL     1       6.732   6.909  15.459  0.00  0.00    +0.000 HD
ENDROOT
BRANCH   1   7
ATOM      7  O   UNL     1       8.394   6.316  19.438  0.00  0.00    +0.000 OA
ATOM      8  H   UNL     1       8.346   7.206  19.822  0.00  0.00    +0.000 HD
ENDBRANCH   1   7
BRANCH   5   9
ATOM      9  O   UNL     1       6.459   3.895  18.646  0.00  0.00    +0.000 OA
ATOM     10  H   UNL     1       6.777   3.953  19.574  0.00  0.00    +0.000 HD
ENDBRANCH   5   9
BRANCH   4  11
ATOM     11  C   UNL     1       5.533   4.275  16.015  0.00  0.00    +0.000 C 
BRANCH  11  12
ATOM     12  N   UNL     1       4.344   4.663  16.790  0.00  0.00    +0.000 NA
ATOM     13  H   UNL     1       3.847   5.385  16.253  0.00  0.00    +0.000 HD
BRANCH  12  14
ATOM     14  C   UNL     1       3.462   3.521  17.008  0.00  0.00    +0.000 C 
BRANCH  14  15
ATOM     15  C   UNL     1       2.584   3.769  18.206  0.00  0.00    +0.000 A 
ATOM     16  C   UNL     1       2.833   4.858  19.053  0.00  0.00    +0.000 A 
ATOM     17  C   UNL     1       2.073   5.042  20.208  0.00  0.00    +0.000 A 
ATOM     18  C   UNL     1       1.050   4.147  20.522  0.00  0.00    +0.000 A 
ATOM     19  C   UNL     1       0.782   3.073  19.678  0.00  0.00    +0.000 A 
ATOM     20  C   UNL     1       1.551   2.881  18.529  0.00  0.00    +0.000 A 
ENDBRANCH  14  15
ENDBRANCH  12  14
ENDBRANCH  11  12
ENDBRANCH   4  11
TORSDOF 6
ENDMDL
MODEL 2
REMARK VINA RESULT:      -6.6      0.098      1.211
REMARK  Name = 
REMARK  6 active torsions:
REMARK  status: ('A' for Active; 'I' for Inactive)
REMARK    1  A    between atoms: O_1  and  C_2
REMARK    2  A    between atoms: C_5  and  C_6
REMARK    3  A    between atoms: C_6  and  N_7
REMARK    4  A    between atoms: N_7  and  C_8
REMARK    5  A    between atoms: C_8  and  C_9
REMARK    6  A    between atoms: C_15  and  O_16
REMARK                            x       y       z     vdW  Elec       q    Type
REMARK                         _______ _______ _______ _____ _____    ______ ____
ROOT
ATOM      1  C   UNL     1       7.236   6.159  18.562  0.00  0.00    +0.000 C 
ATOM      2  C   UNL     1       7.364   7.076  17.355  0.00  0.00    +0.000 C 
ATOM      3  N   UNL     1       6.503   6.463  16.344  0.00  0.00    +0.000 NA
ATOM      4  C   UNL     1       6.730   4.999  16.480  0.00  0.00    +0.000 C 
ATOM      5  C   UNL     1       7.195   4.760  17.943  0.00  0.00    +0.000 C 
ATOM      6  H   UNL     1       6.769   6.777  15.413  0.00  0.00    +0.000 HD
ENDROOT
BRANCH   1   7
ATOM      7  O   UNL     1       8.348   6.299  19.441  0.00  0.00    +0.000 OA
ATOM      8  H   UNL     1       7.987   6.419  20.335  0.00  0.00    +0.000 HD
ENDBRANCH   1   7
BRANCH   5   9
ATOM      9  O   UNL     1       6.351   3.909  18.717  0.00  0.00    +0.000 OA
ATOM     10  H   UNL     1       5.972   3.256  18.088  0.00  0.00    +0.000 HD
ENDBRANCH   5   9
BRANCH   4  11
ATOM     11  C   UNL     1       5.479   4.207  16.056  0.00  0.00    +0.000 C 
BRANCH  11  12
ATOM     12  N   UNL     1       4.285   4.682  16.775  0.00  0.00    +0.000 NA
ATOM     13  H   UNL     1       3.867   5.436  16.215  0.00  0.00    +0.000 HD
BRANCH  12  14
ATOM     14  C   UNL     1       3.314   3.607  16.951  0.00  0.00    +0.000 C 
BRANCH  14  15
ATOM     15  C   UNL     1       2.581   3.782  18.254  0.00  0.00    +0.000 A 
ATOM     16  C   UNL     1       1.541   2.910  18.605  0.00  0.00    +0.000 A 
ATOM     17  C   UNL     1       0.807   3.120  19.772  0.00  0.00    +0.000 A 
ATOM     18  C   UNL     1       1.112   4.195  20.606  0.00  0.00    +0.000 A 
ATOM     19  C   UNL     1       2.156   5.057  20.278  0.00  0.00    +0.000 A 
ATOM     20  C   UNL     1       2.882   4.855  19.103  0.00  0.00    +0.000 A 
ENDBRANCH  14  15
ENDBRANCH  12  14
ENDBRANCH  11  12
ENDBRANCH   4  11
TORSDOF 6
ENDMDL
MODEL 3
REMARK VINA RESULT:      -6.6      1.787      2.758
REMARK  Name = 
REMARK  6 active torsions:
REMARK  status: ('A' for Active; 'I' for Inactive)
REMARK    1  A    between atoms: O_1  and  C_2
REMARK    2  A    between atoms: C_5  and  C_6
REMARK    3  A    between atoms: C_6  and  N_7
REMARK    4  A    between atoms: N_7  and  C_8
REMARK    5  A    between atoms: C_8  and  C_9
REMARK    6  A    between atoms: C_15  and  O_16
REMARK                            x       y       z     vdW  Elec       q    Type
REMARK                         _______ _______ _______ _____ _____    ______ ____
ROOT
ATOM      1  C   UNL     1       6.601   5.234  15.292  0.00  0.00    +0.000 C 
ATOM      2  C   UNL     1       6.200   3.788  15.542  0.00  0.00    +0.000 C 
ATOM      3  N   UNL     1       5.452   3.834  16.798  0.00  0.00    +0.000 NA
ATOM      4  C   UNL     1       6.194   4.798  17.654  0.00  0.00    +0.000 C 
ATOM      5  C   UNL     1       6.949   5.753  16.689  0.00  0.00    +0.000 C 
ATOM      6  H   UNL     1       5.434   2.915  17.235  0.00  0.00    +0.000 HD
ENDROOT
BRANCH   1   7
ATOM      7  O   UNL     1       7.722   5.318  14.418  0.00  0.00    +0.000 OA
ATOM      8  H   UNL     1       7.389   5.183  13.516  0.00  0.00    +0.000 HD
ENDBRANCH   1   7
BRANCH   5   9
ATOM      9  O   UNL     1       6.594   7.131  16.799  0.00  0.00    +0.000 OA
ATOM     10  H   UNL     1       7.426   7.638  16.670  0.00  0.00    +0.000 HD
ENDBRANCH   5   9
BRANCH   4  11
ATOM     11  C   UNL     1       5.247   5.493  18.650  0.00  0.00    +0.000 C 
BRANCH  11  12
ATOM     12  N   UNL     1       4.130   6.145  17.947  0.00  0.00    +0.000 NA
ATOM     13  H   UNL     1       3.798   5.494  17.223  0.00  0.00    +0.000 HD
BRANCH  12  14
ATOM     14  C   UNL     1       3.038   6.452  18.866  0.00  0.00    +0.000 C 
BRANCH  14  15
ATOM     15  C   UNL     1       2.226   5.213  19.135  0.00  0.00    +0.000 A 
ATOM     16  C   UNL     1       1.859   4.878  20.446  0.00  0.00    +0.000 A 
ATOM     17  C   UNL     1       1.178   3.689  20.707  0.00  0.00    +0.000 A 
ATOM     18  C   UNL     1       0.848   2.829  19.660  0.00  0.00    +0.000 A 
ATOM     19  C   UNL     1       1.192   3.159  18.352  0.00  0.00    +0.000 A 
ATOM     20  C   UNL     1       1.885   4.343  18.092  0.00  0.00    +0.000 A 
ENDBRANCH  14  15
ENDBRANCH  12  14
ENDBRANCH  11  12
ENDBRANCH   4  11
TORSDOF 6
ENDMDL
MODEL 4
REMARK VINA RESULT:      -6.6      1.775      2.860
REMARK  Name = 
REMARK  6 active torsions:
REMARK  status: ('A' for Active; 'I' for Inactive)
REMARK    1  A    between atoms: O_1  and  C_2
REMARK    2  A    between atoms: C_5  and  C_6
REMARK    3  A    between atoms: C_6  and  N_7
REMARK    4  A    between atoms: N_7  and  C_8
REMARK    5  A    between atoms: C_8  and  C_9
REMARK    6  A    between atoms: C_15  and  O_16
REMARK                            x       y       z     vdW  Elec       q    Type
REMARK                         _______ _______ _______ _____ _____    ______ ____
ROOT
ATOM      1  C   UNL     1       6.611   5.220  15.288  0.00  0.00    +0.000 C 
ATOM      2  C   UNL     1       6.199   3.784  15.569  0.00  0.00    +0.000 C 
ATOM      3  N   UNL     1       5.476   3.858  16.838  0.00  0.00    +0.000 NA
ATOM      4  C   UNL     1       6.245   4.827  17.664  0.00  0.00    +0.000 C 
ATOM      5  C   UNL     1       6.991   5.758  16.670  0.00  0.00    +0.000 C 
ATOM      6  H   UNL     1       5.457   2.946  17.290  0.00  0.00    +0.000 HD
ENDROOT
BRANCH   1   7
ATOM      7  O   UNL     1       7.716   5.279  14.392  0.00  0.00    +0.000 OA
ATOM      8  H   UNL     1       7.975   4.362  14.202  0.00  0.00    +0.000 HD
ENDBRANCH   1   7
BRANCH   5   9
ATOM      9  O   UNL     1       6.654   7.141  16.764  0.00  0.00    +0.000 OA
ATOM     10  H   UNL     1       5.768   7.177  17.187  0.00  0.00    +0.000 HD
ENDBRANCH   5   9
BRANCH   4  11
ATOM     11  C   UNL     1       5.325   5.548  18.667  0.00  0.00    +0.000 C 
BRANCH  11  12
ATOM     12  N   UNL     1       4.187   6.179  17.979  0.00  0.00    +0.000 NA
ATOM     13  H   UNL     1       3.883   5.540  17.233  0.00  0.00    +0.000 HD
BRANCH  12  14
ATOM     14  C   UNL     1       3.081   6.417  18.900  0.00  0.00    +0.000 C 
BRANCH  14  15
ATOM     15  C   UNL     1       2.327   5.137  19.143  0.00  0.00    +0.000 A 
ATOM     16  C   UNL     1       2.007   4.290  18.072  0.00  0.00    +0.000 A 
ATOM     17  C   UNL     1       1.239   3.145  18.284  0.00  0.00    +0.000 A 
ATOM     18  C   UNL     1       0.792   2.830  19.567  0.00  0.00    +0.000 A 
ATOM     19  C   UNL     1       1.119   3.655  20.640  0.00  0.00    +0.000 A 
ATOM     20  C   UNL     1       1.877   4.807  20.427  0.00  0.00    +0.000 A 
ENDBRANCH  14  15
ENDBRANCH  12  14
ENDBRANCH  11  12
ENDBRANCH   4  11
TORSDOF 6
ENDMDL
MODEL 5
REMARK VINA RESULT:      -6.4      1.260      1.464
REMARK  Name = 
REMARK  6 active torsions:
REMARK  status: ('A' for Active; 'I' for Inactive)
REMARK    1  A    between atoms: O_1  and  C_2
REMARK    2  A    between atoms: C_5  and  C_6
REMARK    3  A    between atoms: C_6  and  N_7
REMARK    4  A    between atoms: N_7  and  C_8
REMARK    5  A    between atoms: C_8  and  C_9
REMARK    6  A    between atoms: C_15  and  O_16
REMARK                            x       y       z     vdW  Elec       q    Type
REMARK                         _______ _______ _______ _____ _____    ______ ____
ROOT
ATOM      1  C   UNL     1       7.448   5.780  19.339  0.00  0.00    +0.000 C 
ATOM      2  C   UNL     1       7.822   6.830  18.303  0.00  0.00    +0.000 C 
ATOM      3  N   UNL     1       6.635   6.937  17.455  0.00  0.00    +0.000 NA
ATOM      4  C   UNL     1       6.150   5.540  17.291  0.00  0.00    +0.000 C 
ATOM      5  C   UNL     1       6.652   4.751  18.532  0.00  0.00    +0.000 C 
ATOM      6  H   UNL     1       6.879   7.334  16.550  0.00  0.00    +0.000 HD
ENDROOT
BRANCH   1   7
ATOM      7  O   UNL     1       8.605   5.191  19.923  0.00  0.00    +0.000 OA
ATOM      8  H   UNL     1       9.217   4.989  19.196  0.00  0.00    +0.000 HD
ENDBRANCH   1   7
BRANCH   5   9
ATOM      9  O   UNL     1       5.627   4.182  19.344  0.00  0.00    +0.000 OA
ATOM     10  H   UNL     1       5.053   4.930  19.623  0.00  0.00    +0.000 HD
ENDBRANCH   5   9
BRANCH   4  11
ATOM     11  C   UNL     1       4.626   5.508  17.071  0.00  0.00    +0.000 C 
BRANCH  11  12
ATOM     12  N   UNL     1       3.925   6.242  18.137  0.00  0.00    +0.000 NA
ATOM     13  H   UNL     1       4.185   7.233  18.054  0.00  0.00    +0.000 HD
BRANCH  12  14
ATOM     14  C   UNL     1       2.478   6.103  18.007  0.00  0.00    +0.000 C 
BRANCH  14  15
ATOM     15  C   UNL     1       1.989   4.968  18.867  0.00  0.00    +0.000 A 
ATOM     16  C   UNL     1       2.144   5.015  20.259  0.00  0.00    +0.000 A 
ATOM     17  C   UNL     1       1.767   3.930  21.049  0.00  0.00    +0.000 A 
ATOM     18  C   UNL     1       1.221   2.791  20.457  0.00  0.00    +0.000 A 
ATOM     19  C   UNL     1       1.045   2.740  19.077  0.00  0.00    +0.000 A 
ATOM     20  C   UNL     1       1.435   3.821  18.285  0.00  0.00    +0.000 A 
ENDBRANCH  14  15
ENDBRANCH  12  14
ENDBRANCH  11  12
ENDBRANCH   4  11
TORSDOF 6
ENDMDL
MODEL 6
REMARK VINA RESULT:      -6.3      1.938      2.128
REMARK  Name = 
REMARK  6 active torsions:
REMARK  status: ('A' for Active; 'I' for Inactive)
REMARK    1  A    between atoms: O_1  and  C_2
REMARK    2  A    between atoms: C_5  and  C_6
REMARK    3  A    between atoms: C_6  and  N_7
REMARK    4  A    between atoms: N_7  and  C_8
REMARK    5  A    between atoms: C_8  and  C_9
REMARK    6  A    between atoms: C_15  and  O_16
REMARK                            x       y       z     vdW  Elec       q    Type
REMARK                         _______ _______ _______ _____ _____    ______ ____
ROOT
ATOM      1  C   UNL     1       7.318   6.351  17.321  0.00  0.00    +0.000 C 
ATOM      2  C   UNL     1       7.527   5.451  18.529  0.00  0.00    +0.000 C 
ATOM      3  N   UNL     1       6.531   4.392  18.366  0.00  0.00    +0.000 NA
ATOM      4  C   UNL     1       5.311   5.083  17.868  0.00  0.00    +0.000 C 
ATOM      5  C   UNL     1       5.796   6.373  17.152  0.00  0.00    +0.000 C 
ATOM      6  H   UNL     1       6.343   3.941  19.258  0.00  0.00    +0.000 HD
ENDROOT
BRANCH   1   7
ATOM      7  O   UNL     1       7.828   7.661  17.554  0.00  0.00    +0.000 OA
ATOM      8  H   UNL     1       7.106   8.283  17.365  0.00  0.00    +0.000 HD
ENDBRANCH   1   7
BRANCH   5   9
ATOM      9  O   UNL     1       5.461   6.461  15.768  0.00  0.00    +0.000 OA
ATOM     10  H   UNL     1       5.588   7.403  15.516  0.00  0.00    +0.000 HD
ENDBRANCH   5   9
BRANCH   4  11
ATOM     11  C   UNL     1       4.459   4.137  17.001  0.00  0.00    +0.000 C 
BRANCH  11  12
ATOM     12  N   UNL     1       4.547   2.751  17.489  0.00  0.00    +0.000 NA
ATOM     13  H   UNL     1       5.017   2.775  18.403  0.00  0.00    +0.000 HD
BRANCH  12  14
ATOM     14  C   UNL     1       3.221   2.160  17.637  0.00  0.00    +0.000 C 
BRANCH  14  15
ATOM     15  C   UNL     1       2.608   2.589  18.944  0.00  0.00    +0.000 A 
ATOM     16  C   UNL     1       3.319   2.441  20.143  0.00  0.00    +0.000 A 
ATOM     17  C   UNL     1       2.722   2.761  21.362  0.00  0.00    +0.000 A 
ATOM     18  C   UNL     1       1.414   3.243  21.395  0.00  0.00    +0.000 A 
ATOM     19  C   UNL     1       0.704   3.412  20.209  0.00  0.00    +0.000 A 
ATOM     20  C   UNL     1       1.296   3.079  18.989  0.00  0.00    +0.000 A 
ENDBRANCH  14  15
ENDBRANCH  12  14
ENDBRANCH  11  12
ENDBRANCH   4  11
TORSDOF 6
ENDMDL
MODEL 7
REMARK VINA RESULT:      -6.3      1.960      2.558
REMARK  Name = 
REMARK  6 active torsions:
REMARK  status: ('A' for Active; 'I' for Inactive)
REMARK    1  A    between atoms: O_1  and  C_2
REMARK    2  A    between atoms: C_5  and  C_6
REMARK    3  A    between atoms: C_6  and  N_7
REMARK    4  A    between atoms: N_7  and  C_8
REMARK    5  A    between atoms: C_8  and  C_9
REMARK    6  A    between atoms: C_15  and  O_16
REMARK                            x       y       z     vdW  Elec       q    Type
REMARK                         _______ _______ _______ _____ _____    ______ ____
ROOT
ATOM      1  C   UNL     1       6.896   5.565  15.964  0.00  0.00    +0.000 C 
ATOM      2  C   UNL     1       5.484   5.967  15.566  0.00  0.00    +0.000 C 
ATOM      3  N   UNL     1       4.695   5.756  16.779  0.00  0.00    +0.000 NA
ATOM      4  C   UNL     1       5.217   4.492  17.365  0.00  0.00    +0.000 C 
ATOM      5  C   UNL     1       6.680   4.346  16.863  0.00  0.00    +0.000 C 
ATOM      6  H   UNL     1       3.708   5.658  16.549  0.00  0.00    +0.000 HD
ENDROOT
BRANCH   1   7
ATOM      7  O   UNL     1       7.682   5.231  14.825  0.00  0.00    +0.000 OA
ATOM      8  H   UNL     1       8.527   4.885  15.155  0.00  0.00    +0.000 HD
ENDBRANCH   1   7
BRANCH   5   9
ATOM      9  O   UNL     1       7.672   4.314  17.888  0.00  0.00    +0.000 OA
ATOM     10  H   UNL     1       7.552   5.137  18.410  0.00  0.00    +0.000 HD
ENDBRANCH   5   9
BRANCH   4  11
ATOM     11  C   UNL     1       5.049   4.484  18.896  0.00  0.00    +0.000 C 
BRANCH  11  12
ATOM     12  N   UNL     1       5.351   3.155  19.453  0.00  0.00    +0.000 NA
ATOM     13  H   UNL     1       5.284   3.227  20.476  0.00  0.00    +0.000 HD
BRANCH  12  14
ATOM     14  C   UNL     1       4.404   2.155  18.970  0.00  0.00    +0.000 C 
BRANCH  14  15
ATOM     15  C   UNL     1       3.023   2.460  19.486  0.00  0.00    +0.000 A 
ATOM     16  C   UNL     1       1.940   2.548  18.601  0.00  0.00    +0.000 A 
ATOM     17  C   UNL     1       0.676   2.911  19.066  0.00  0.00    +0.000 A 
ATOM     18  C   UNL     1       0.480   3.179  20.421  0.00  0.00    +0.000 A 
ATOM     19  C   UNL     1       1.545   3.077  21.312  0.00  0.00    +0.000 A 
ATOM     20  C   UNL     1       2.812   2.727  20.845  0.00  0.00    +0.000 A 
ENDBRANCH  14  15
ENDBRANCH  12  14
ENDBRANCH  11  12
ENDBRANCH   4  11
TORSDOF 6
ENDMDL
MODEL 8
REMARK VINA RESULT:      -6.3      1.536      2.066
REMARK  Name = 
REMARK  6 active torsions:
REMARK  status: ('A' for Active; 'I' for Inactive)
REMARK    1  A    between atoms: O_1  and  C_2
REMARK    2  A    between atoms: C_5  and  C_6
REMARK    3  A    between atoms: C_6  and  N_7
REMARK    4  A    between atoms: N_7  and  C_8
REMARK    5  A    between atoms: C_8  and  C_9
REMARK    6  A    between atoms: C_15  and  O_16
REMARK                            x       y       z     vdW  Elec       q    Type
REMARK                         _______ _______ _______ _____ _____    ______ ____
ROOT
ATOM      1  C   UNL     1       7.260   4.945  18.018  0.00  0.00    +0.000 C 
ATOM      2  C   UNL     1       7.494   6.329  17.433  0.00  0.00    +0.000 C 
ATOM      3  N   UNL     1       6.158   6.919  17.359  0.00  0.00    +0.000 NA
ATOM      4  C   UNL     1       5.271   5.812  16.911  0.00  0.00    +0.000 C 
ATOM      5  C   UNL     1       5.959   4.490  17.351  0.00  0.00    +0.000 C 
ATOM      6  H   UNL     1       6.142   7.680  16.684  0.00  0.00    +0.000 HD
ENDROOT
BRANCH   1   7
ATOM      7  O   UNL     1       8.333   4.061  17.708  0.00  0.00    +0.000 OA
ATOM      8  H   UNL     1       8.768   3.838  18.547  0.00  0.00    +0.000 HD
ENDBRANCH   1   7
BRANCH   5   9
ATOM      9  O   UNL     1       5.204   3.684  18.253  0.00  0.00    +0.000 OA
ATOM     10  H   UNL     1       5.649   3.761  19.126  0.00  0.00    +0.000 HD
ENDBRANCH   5   9
BRANCH   4  11
ATOM     11  C   UNL     1       3.837   6.007  17.440  0.00  0.00    +0.000 C 
BRANCH  11  12
ATOM     12  N   UNL     1       3.838   6.226  18.896  0.00  0.00    +0.000 NA
ATOM     13  H   UNL     1       4.335   7.107  19.076  0.00  0.00    +0.000 HD
BRANCH  12  14
ATOM     14  C   UNL     1       2.477   6.318  19.415  0.00  0.00    +0.000 C 
BRANCH  14  15
ATOM     15  C   UNL     1       2.021   4.971  19.909  0.00  0.00    +0.000 A 
ATOM     16  C   UNL     1       2.291   4.571  21.225  0.00  0.00    +0.000 A 
ATOM     17  C   UNL     1       1.941   3.292  21.659  0.00  0.00    +0.000 A 
ATOM     18  C   UNL     1       1.310   2.406  20.787  0.00  0.00    +0.000 A 
ATOM     19  C   UNL     1       1.020   2.799  19.483  0.00  0.00    +0.000 A 
ATOM     20  C   UNL     1       1.381   4.074  19.044  0.00  0.00    +0.000 A 
ENDBRANCH  14  15
ENDBRANCH  12  14
ENDBRANCH  11  12
ENDBRANCH   4  11
TORSDOF 6
ENDMDL
MODEL 9
REMARK VINA RESULT:      -6.3      1.917      2.220
REMARK  Name = 
REMARK  6 active torsions:
REMARK  status: ('A' for Active; 'I' for Inactive)
REMARK    1  A    between atoms: O_1  and  C_2
REMARK    2  A    between atoms: C_5  and  C_6
REMARK    3  A    between atoms: C_6  and  N_7
REMARK    4  A    between atoms: N_7  and  C_8
REMARK    5  A    between atoms: C_8  and  C_9
REMARK    6  A    between atoms: C_15  and  O_16
REMARK                            x       y       z     vdW  Elec       q    Type
REMARK                         _______ _______ _______ _____ _____    ______ ____
ROOT
ATOM      1  C   UNL     1       7.333   6.390  17.444  0.00  0.00    +0.000 C 
ATOM      2  C   UNL     1       7.524   5.460  18.632  0.00  0.00    +0.000 C 
ATOM      3  N   UNL     1       6.511   4.422  18.443  0.00  0.00    +0.000 NA
ATOM      4  C   UNL     1       5.303   5.145  17.959  0.00  0.00    +0.000 C 
ATOM      5  C   UNL     1       5.813   6.442  17.273  0.00  0.00    +0.000 C 
ATOM      6  H   UNL     1       6.312   3.954  19.325  0.00  0.00    +0.000 HD
ENDROOT
BRANCH   1   7
ATOM      7  O   UNL     1       7.865   7.684  17.706  0.00  0.00    +0.000 OA
ATOM      8  H   UNL     1       7.110   8.275  17.860  0.00  0.00    +0.000 HD
ENDBRANCH   1   7
BRANCH   5   9
ATOM      9  O   UNL     1       5.482   6.567  15.890  0.00  0.00    +0.000 OA
ATOM     10  H   UNL     1       6.247   7.012  15.466  0.00  0.00    +0.000 HD
ENDBRANCH   5   9
BRANCH   4  11
ATOM     11  C   UNL     1       4.436   4.234  17.070  0.00  0.00    +0.000 C 
BRANCH  11  12
ATOM     12  N   UNL     1       4.539   2.829  17.497  0.00  0.00    +0.000 NA
ATOM     13  H   UNL     1       4.995   2.818  18.418  0.00  0.00    +0.000 HD
BRANCH  12  14
ATOM     14  C   UNL     1       3.220   2.212  17.598  0.00  0.00    +0.000 C 
BRANCH  14  15
ATOM     15  C   UNL     1       2.591   2.553  18.922  0.00  0.00    +0.000 A 
ATOM     16  C   UNL     1       1.307   3.112  18.973  0.00  0.00    +0.000 A 
ATOM     17  C   UNL     1       0.755   3.504  20.193  0.00  0.00    +0.000 A 
ATOM     18  C   UNL     1       1.477   3.331  21.374  0.00  0.00    +0.000 A 
ATOM     19  C   UNL     1       2.746   2.760  21.337  0.00  0.00    +0.000 A 
ATOM     20  C   UNL     1       3.303   2.379  20.115  0.00  0.00    +0.000 A 
ENDBRANCH  14  15
ENDBRANCH  12  14
ENDBRANCH  11  12
ENDBRANCH   4  11
TORSDOF 6
ENDMDL
