MODEL 1
REMARK VINA RESULT:      -8.9      0.000      0.000
REMARK  Name = 
REMARK  6 active torsions:
REMARK  status: ('A' for Active; 'I' for Inactive)
REMARK    1  A    between atoms: C_2  and  C_26
REMARK    2  A    between atoms: N_3  and  C_4
REMARK    3  A    between atoms: C_8  and  C_9
REMARK    4  A    between atoms: C_9  and  N_10
REMARK    5  A    between atoms: C_13  and  C_14
REMARK    6  A    between atoms: N_16  and  C_17
REMARK                            x       y       z     vdW  Elec       q    Type
REMARK                         _______ _______ _______ _____ _____    ______ ____
ROOT
ATOM      1  C   UNL     1       2.925   5.562  18.540  0.00  0.00    +0.000 A 
ATOM      2  C   UNL     1       2.255   4.402  18.943  0.00  0.00    +0.000 A 
ATOM      3  C   UNL     1       1.407   4.403  20.052  0.00  0.00    +0.000 A 
ATOM      4  C   UNL     1       1.212   5.570  20.782  0.00  0.00    +0.000 A 
ATOM      5  C   UNL     1       1.849   6.759  20.403  0.00  0.00    +0.000 A 
ATOM      6  C   UNL     1       2.689   6.748  19.262  0.00  0.00    +0.000 A 
ENDROOT
BRANCH   1   9
ATOM      7  O   UNL     1       5.746   4.944  18.470  0.00  0.00    +0.000 OA
ATOM      8  C   UNL     1       5.124   5.169  17.433  0.00  0.00    +0.000 C 
ATOM      9  N   UNL     1       3.794   5.579  17.406  0.00  0.00    +0.000 N 
ATOM     10  H   UNL     1       3.412   5.984  16.565  0.00  0.00    +0.000 HD
BRANCH   8  11
ATOM     11  C   UNL     1       5.884   4.976  16.157  0.00  0.00    +0.000 A 
ATOM     12  C   UNL     1       7.060   5.632  15.819  0.00  0.00    +0.000 A 
ATOM     13  N   UNL     1       7.720   5.533  14.633  0.00  0.00    +0.000 NA
ATOM     14  C   UNL     1       7.155   4.699  13.726  0.00  0.00    +0.000 A 
ATOM     15  C   UNL     1       7.545   4.407  12.395  0.00  0.00    +0.000 A 
ATOM     16  C   UNL     1       6.646   3.485  11.891  0.00  0.00    +0.000 A 
ATOM     17  N   UNL     1       5.726   3.215  12.875  0.00  0.00    +0.000 N 
ATOM     18  C   UNL     1       6.004   3.969  13.992  0.00  0.00    +0.000 A 
ATOM     19  C   UNL     1       5.341   4.089  15.214  0.00  0.00    +0.000 A 
ATOM     20  H   UNL     1       4.950   2.570  12.789  0.00  0.00    +0.000 HD
ENDBRANCH   8  11
ENDBRANCH   1   9
BRANCH   5  21
ATOM     21  C   UNL     1       1.570   8.033  21.189  0.00  0.00    +0.000 C 
BRANCH  21  22
ATOM     22  N   UNL     1       0.568   8.953  20.581  0.00  0.00    +0.000 NA
ATOM     23  C   UNL     1       0.061   9.902  21.581  0.00  0.00    +0.000 C 
ATOM     24  C   UNL     1      -0.909  10.930  20.989  0.00  0.00    +0.000 C 
ATOM     25  C   UNL     1      -0.291  11.733  19.849  0.00  0.00    +0.000 C 
ATOM     26  C   UNL     1       0.332  10.772  18.826  0.00  0.00    +0.000 C 
ATOM     27  C   UNL     1       1.190   9.655  19.442  0.00  0.00    +0.000 C 
BRANCH  25  28
ATOM     28  C   UNL     1       0.678  12.823  20.332  0.00  0.00    +0.000 C 
ATOM     29  O   UNL     1       1.211  12.783  21.439  0.00  0.00    +0.000 OA
ATOM     30  N   UNL     1       0.951  13.825  19.405  0.00  0.00    +0.000 N 
ATOM     31  H   UNL     1       0.448  13.845  18.527  0.00  0.00    +0.000 HD
BRANCH  30  32
ATOM     32  C   UNL     1       2.026  14.801  19.634  0.00  0.00    +0.000 C 
ATOM     33  C   UNL     1       3.306  14.482  18.833  0.00  0.00    +0.000 C 
ATOM     34  C   UNL     1       3.473  15.227  17.510  0.00  0.00    +0.000 C 
ATOM     35  C   UNL     1       3.205  16.715  17.673  0.00  0.00    +0.000 C 
ATOM     36  C   UNL     1       1.778  16.920  18.155  0.00  0.00    +0.000 C 
ATOM     37  C   UNL     1       1.539  16.255  19.510  0.00  0.00    +0.000 C 
ENDBRANCH  30  32
ENDBRANCH  25  28
ENDBRANCH  21  22
ENDBRANCH   5  21
TORSDOF 6
ENDMDL
MODEL 2
REMARK VINA RESULT:      -8.7      3.589      9.084
REMARK  Name = 
REMARK  6 active torsions:
REMARK  status: ('A' for Active; 'I' for Inactive)
REMARK    1  A    between atoms: C_2  and  C_26
REMARK    2  A    between atoms: N_3  and  C_4
REMARK    3  A    between atoms: C_8  and  C_9
REMARK    4  A    between atoms: C_9  and  N_10
REMARK    5  A    between atoms: C_13  and  C_14
REMARK    6  A    between atoms: N_16  and  C_17
REMARK                            x       y       z     vdW  Elec       q    Type
REMARK                         _______ _______ _______ _____ _____    ______ ____
ROOT
ATOM      1  C   UNL     1       1.803   5.606  20.360  0.00  0.00    +0.000 A 
ATOM      2  C   UNL     1       1.426   4.312  20.738  0.00  0.00    +0.000 A 
ATOM      3  C   UNL     1       1.840   3.195  20.011  0.00  0.00    +0.000 A 
ATOM      4  C   UNL     1       2.644   3.350  18.887  0.00  0.00    +0.000 A 
ATOM      5  C   UNL     1       3.060   4.626  18.484  0.00  0.00    +0.000 A 
ATOM      6  C   UNL     1       2.651   5.749  19.244  0.00  0.00    +0.000 A 
ENDROOT
BRANCH   1   9
ATOM      7  O   UNL     1       1.763   8.350  19.460  0.00  0.00    +0.000 OA
ATOM      8  C   UNL     1       1.303   8.040  20.557  0.00  0.00    +0.000 C 
ATOM      9  N   UNL     1       1.390   6.759  21.095  0.00  0.00    +0.000 N 
ATOM     10  H   UNL     1       1.226   6.617  22.080  0.00  0.00    +0.000 HD
BRANCH   8  11
ATOM     11  C   UNL     1       0.621   9.137  21.316  0.00  0.00    +0.000 A 
ATOM     12  C   UNL     1       0.619   9.272  22.698  0.00  0.00    +0.000 A 
ATOM     13  N   UNL     1      -0.062  10.211  23.410  0.00  0.00    +0.000 NA
ATOM     14  C   UNL     1      -0.783  11.086  22.668  0.00  0.00    +0.000 A 
ATOM     15  C   UNL     1      -1.636  12.140  23.082  0.00  0.00    +0.000 A 
ATOM     16  C   UNL     1      -2.133  12.745  21.942  0.00  0.00    +0.000 A 
ATOM     17  N   UNL     1      -1.609  12.088  20.856  0.00  0.00    +0.000 N 
ATOM     18  C   UNL     1      -0.806  11.054  21.279  0.00  0.00    +0.000 A 
ATOM     19  C   UNL     1      -0.104  10.079  20.571  0.00  0.00    +0.000 A 
ATOM     20  H   UNL     1      -1.796  12.318  19.888  0.00  0.00    +0.000 HD
ENDBRANCH   8  11
ENDBRANCH   1   9
BRANCH   5  21
ATOM     21  C   UNL     1       3.987   4.759  17.282  0.00  0.00    +0.000 C 
BRANCH  21  22
ATOM     22  N   UNL     1       5.444   4.761  17.596  0.00  0.00    +0.000 NA
ATOM     23  C   UNL     1       6.204   5.410  16.520  0.00  0.00    +0.000 C 
ATOM     24  C   UNL     1       7.701   5.520  16.830  0.00  0.00    +0.000 C 
ATOM     25  C   UNL     1       7.978   6.276  18.126  0.00  0.00    +0.000 C 
ATOM     26  C   UNL     1       7.127   5.682  19.258  0.00  0.00    +0.000 C 
ATOM     27  C   UNL     1       5.655   5.441  18.888  0.00  0.00    +0.000 C 
BRANCH  25  28
ATOM     28  C   UNL     1       7.826   7.798  17.982  0.00  0.00    +0.000 C 
ATOM     29  O   UNL     1       6.908   8.308  17.345  0.00  0.00    +0.000 OA
ATOM     30  N   UNL     1       8.770   8.555  18.672  0.00  0.00    +0.000 N 
ATOM     31  H   UNL     1       9.538   8.091  19.139  0.00  0.00    +0.000 HD
BRANCH  30  32
ATOM     32  C   UNL     1       8.618  10.010  18.818  0.00  0.00    +0.000 C 
ATOM     33  C   UNL     1       9.085  10.526  20.196  0.00  0.00    +0.000 C 
ATOM     34  C   UNL     1      10.506  11.082  20.257  0.00  0.00    +0.000 C 
ATOM     35  C   UNL     1      10.774  12.050  19.116  0.00  0.00    +0.000 C 
ATOM     36  C   UNL     1      10.607  11.324  17.791  0.00  0.00    +0.000 C 
ATOM     37  C   UNL     1       9.189  10.785  17.617  0.00  0.00    +0.000 C 
ENDBRANCH  30  32
ENDBRANCH  25  28
ENDBRANCH  21  22
ENDBRANCH   5  21
TORSDOF 6
ENDMDL
MODEL 3
REMARK VINA RESULT:      -8.6      3.649      6.524
REMARK  Name = 
REMARK  6 active torsions:
REMARK  status: ('A' for Active; 'I' for Inactive)
REMARK    1  A    between atoms: C_2  and  C_26
REMARK    2  A    between atoms: N_3  and  C_4
REMARK    3  A    between atoms: C_8  and  C_9
REMARK    4  A    between atoms: C_9  and  N_10
REMARK    5  A    between atoms: C_13  and  C_14
REMARK    6  A    between atoms: N_16  and  C_17
REMARK                            x       y       z     vdW  Elec       q    Type
REMARK                         _______ _______ _______ _____ _____    ______ ____
ROOT
ATOM      1  C   UNL     1       0.446  10.128  18.600  0.00  0.00    +0.000 A 
ATOM      2  C   UNL     1      -0.794  10.059  17.956  0.00  0.00    +0.000 A 
ATOM      3  C   UNL     1      -1.800  10.990  18.219  0.00  0.00    +0.000 A 
ATOM      4  C   UNL     1      -1.584  12.014  19.135  0.00  0.00    +0.000 A 
ATOM      5  C   UNL     1      -0.351  12.131  19.789  0.00  0.00    +0.000 A 
ATOM      6  C   UNL     1       0.669  11.193  19.495  0.00  0.00    +0.000 A 
ENDROOT
BRANCH   1   9
ATOM      7  O   UNL     1       1.501   8.126  20.396  0.00  0.00    +0.000 OA
ATOM      8  C   UNL     1       1.872   8.180  19.224  0.00  0.00    +0.000 C 
ATOM      9  N   UNL     1       1.488   9.185  18.341  0.00  0.00    +0.000 N 
ATOM     10  H   UNL     1       2.004   9.325  17.486  0.00  0.00    +0.000 HD
BRANCH   8  11
ATOM     11  C   UNL     1       2.787   7.083  18.774  0.00  0.00    +0.000 A 
ATOM     12  C   UNL     1       3.015   5.899  19.461  0.00  0.00    +0.000 A 
ATOM     13  N   UNL     1       3.903   4.929  19.112  0.00  0.00    +0.000 NA
ATOM     14  C   UNL     1       4.603   5.169  17.976  0.00  0.00    +0.000 A 
ATOM     15  C   UNL     1       5.628   4.406  17.363  0.00  0.00    +0.000 A 
ATOM     16  C   UNL     1       6.015   5.074  16.216  0.00  0.00    +0.000 A 
ATOM     17  N   UNL     1       5.257   6.216  16.120  0.00  0.00    +0.000 N 
ATOM     18  C   UNL     1       4.410   6.305  17.201  0.00  0.00    +0.000 A 
ATOM     19  C   UNL     1       3.497   7.289  17.581  0.00  0.00    +0.000 A 
ATOM     20  H   UNL     1       5.321   6.899  15.376  0.00  0.00    +0.000 HD
ENDBRANCH   8  11
ENDBRANCH   1   9
BRANCH   5  21
ATOM     21  C   UNL     1      -0.126  13.297  20.744  0.00  0.00    +0.000 C 
BRANCH  21  22
ATOM     22  N   UNL     1      -0.849  13.206  22.044  0.00  0.00    +0.000 NA
ATOM     23  C   UNL     1      -1.586  14.448  22.314  0.00  0.00    +0.000 C 
ATOM     24  C   UNL     1      -2.420  14.378  23.598  0.00  0.00    +0.000 C 
ATOM     25  C   UNL     1      -3.423  13.228  23.585  0.00  0.00    +0.000 C 
ATOM     26  C   UNL     1      -2.701  11.924  23.214  0.00  0.00    +0.000 C 
ATOM     27  C   UNL     1      -1.754  12.041  22.010  0.00  0.00    +0.000 C 
BRANCH  25  28
ATOM     28  C   UNL     1      -4.657  13.511  22.716  0.00  0.00    +0.000 C 
ATOM     29  O   UNL     1      -5.154  14.632  22.626  0.00  0.00    +0.000 OA
ATOM     30  N   UNL     1      -5.135  12.420  21.995  0.00  0.00    +0.000 N 
ATOM     31  H   UNL     1      -4.727  11.506  22.142  0.00  0.00    +0.000 HD
BRANCH  30  32
ATOM     32  C   UNL     1      -6.157  12.587  20.952  0.00  0.00    +0.000 C 
ATOM     33  C   UNL     1      -5.553  12.733  19.538  0.00  0.00    +0.000 C 
ATOM     34  C   UNL     1      -5.494  11.458  18.699  0.00  0.00    +0.000 C 
ATOM     35  C   UNL     1      -6.819  10.713  18.726  0.00  0.00    +0.000 C 
ATOM     36  C   UNL     1      -7.147  10.322  20.159  0.00  0.00    +0.000 C 
ATOM     37  C   UNL     1      -7.286  11.547  21.060  0.00  0.00    +0.000 C 
ENDBRANCH  30  32
ENDBRANCH  25  28
ENDBRANCH  21  22
ENDBRANCH   5  21
TORSDOF 6
ENDMDL
MODEL 4
REMARK VINA RESULT:      -8.6      2.992      4.380
REMARK  Name = 
REMARK  6 active torsions:
REMARK  status: ('A' for Active; 'I' for Inactive)
REMARK    1  A    between atoms: C_2  and  C_26
REMARK    2  A    between atoms: N_3  and  C_4
REMARK    3  A    between atoms: C_8  and  C_9
REMARK    4  A    between atoms: C_9  and  N_10
REMARK    5  A    between atoms: C_13  and  C_14
REMARK    6  A    between atoms: N_16  and  C_17
REMARK                            x       y       z     vdW  Elec       q    Type
REMARK                         _______ _______ _______ _____ _____    ______ ____
ROOT
ATOM      1  C   UNL     1       2.780   6.319  18.757  0.00  0.00    +0.000 A 
ATOM      2  C   UNL     1       2.290   5.246  19.509  0.00  0.00    +0.000 A 
ATOM      3  C   UNL     1       1.473   5.453  20.621  0.00  0.00    +0.000 A 
ATOM      4  C   UNL     1       1.128   6.745  21.005  0.00  0.00    +0.000 A 
ATOM      5  C   UNL     1       1.581   7.848  20.270  0.00  0.00    +0.000 A 
ATOM      6  C   UNL     1       2.391   7.621  19.130  0.00  0.00    +0.000 A 
ENDROOT
BRANCH   1   9
ATOM      7  O   UNL     1       5.612   5.750  18.719  0.00  0.00    +0.000 OA
ATOM      8  C   UNL     1       4.955   5.751  17.678  0.00  0.00    +0.000 C 
ATOM      9  N   UNL     1       3.615   6.124  17.614  0.00  0.00    +0.000 N 
ATOM     10  H   UNL     1       3.199   6.345  16.723  0.00  0.00    +0.000 HD
BRANCH   8  11
ATOM     11  C   UNL     1       5.682   5.321  16.442  0.00  0.00    +0.000 A 
ATOM     12  C   UNL     1       7.002   5.630  16.142  0.00  0.00    +0.000 A 
ATOM     13  N   UNL     1       7.654   5.319  14.988  0.00  0.00    +0.000 NA
ATOM     14  C   UNL     1       6.921   4.634  14.078  0.00  0.00    +0.000 A 
ATOM     15  C   UNL     1       7.268   4.203  12.772  0.00  0.00    +0.000 A 
ATOM     16  C   UNL     1       6.174   3.536  12.250  0.00  0.00    +0.000 A 
ATOM     17  N   UNL     1       5.181   3.553  13.199  0.00  0.00    +0.000 N 
ATOM     18  C   UNL     1       5.608   4.244  14.309  0.00  0.00    +0.000 A 
ATOM     19  C   UNL     1       4.958   4.578  15.497  0.00  0.00    +0.000 A 
ATOM     20  H   UNL     1       4.265   3.135  13.093  0.00  0.00    +0.000 HD
ENDBRANCH   8  11
ENDBRANCH   1   9
BRANCH   5  21
ATOM     21  C   UNL     1       1.139   9.246  20.682  0.00  0.00    +0.000 C 
BRANCH  21  22
ATOM     22  N   UNL     1       0.615  10.101  19.579  0.00  0.00    +0.000 NA
ATOM     23  C   UNL     1      -0.731   9.666  19.181  0.00  0.00    +0.000 C 
ATOM     24  C   UNL     1      -1.355  10.566  18.110  0.00  0.00    +0.000 C 
ATOM     25  C   UNL     1      -1.441  12.026  18.545  0.00  0.00    +0.000 C 
ATOM     26  C   UNL     1      -0.068  12.489  19.056  0.00  0.00    +0.000 C 
ATOM     27  C   UNL     1       0.615  11.509  20.022  0.00  0.00    +0.000 C 
BRANCH  25  28
ATOM     28  C   UNL     1      -2.584  12.295  19.536  0.00  0.00    +0.000 C 
ATOM     29  O   UNL     1      -2.379  12.654  20.693  0.00  0.00    +0.000 OA
ATOM     30  N   UNL     1      -3.866  12.155  19.011  0.00  0.00    +0.000 N 
ATOM     31  H   UNL     1      -3.986  11.806  18.069  0.00  0.00    +0.000 HD
BRANCH  30  32
ATOM     32  C   UNL     1      -5.048  12.600  19.764  0.00  0.00    +0.000 C 
ATOM     33  C   UNL     1      -5.491  14.032  19.396  0.00  0.00    +0.000 C 
ATOM     34  C   UNL     1      -6.614  14.143  18.367  0.00  0.00    +0.000 C 
ATOM     35  C   UNL     1      -7.768  13.211  18.701  0.00  0.00    +0.000 C 
ATOM     36  C   UNL     1      -7.269  11.774  18.704  0.00  0.00    +0.000 C 
ATOM     37  C   UNL     1      -6.180  11.557  19.752  0.00  0.00    +0.000 C 
ENDBRANCH  30  32
ENDBRANCH  25  28
ENDBRANCH  21  22
ENDBRANCH   5  21
TORSDOF 6
ENDMDL
MODEL 5
REMARK VINA RESULT:      -8.4      2.631      4.014
REMARK  Name = 
REMARK  6 active torsions:
REMARK  status: ('A' for Active; 'I' for Inactive)
REMARK    1  A    between atoms: C_2  and  C_26
REMARK    2  A    between atoms: N_3  and  C_4
REMARK    3  A    between atoms: C_8  and  C_9
REMARK    4  A    between atoms: C_9  and  N_10
REMARK    5  A    between atoms: C_13  and  C_14
REMARK    6  A    between atoms: N_16  and  C_17
REMARK                            x       y       z     vdW  Elec       q    Type
REMARK                         _______ _______ _______ _____ _____    ______ ____
ROOT
ATOM      1  C   UNL     1       3.006   6.155  18.795  0.00  0.00    +0.000 A 
ATOM      2  C   UNL     1       2.446   5.012  19.375  0.00  0.00    +0.000 A 
ATOM      3  C   UNL     1       1.560   5.104  20.449  0.00  0.00    +0.000 A 
ATOM      4  C   UNL     1       1.215   6.348  20.967  0.00  0.00    +0.000 A 
ATOM      5  C   UNL     1       1.738   7.520  20.404  0.00  0.00    +0.000 A 
ATOM      6  C   UNL     1       2.618   7.412  19.299  0.00  0.00    +0.000 A 
ENDROOT
BRANCH   1   9
ATOM      7  O   UNL     1       5.522   4.741  18.676  0.00  0.00    +0.000 OA
ATOM      8  C   UNL     1       5.060   5.291  17.677  0.00  0.00    +0.000 C 
ATOM      9  N   UNL     1       3.912   6.078  17.692  0.00  0.00    +0.000 N 
ATOM     10  H   UNL     1       3.719   6.697  16.920  0.00  0.00    +0.000 HD
BRANCH   8  11
ATOM     11  C   UNL     1       5.810   5.069  16.400  0.00  0.00    +0.000 A 
ATOM     12  C   UNL     1       6.994   5.704  16.046  0.00  0.00    +0.000 A 
ATOM     13  N   UNL     1       7.645   5.579  14.858  0.00  0.00    +0.000 NA
ATOM     14  C   UNL     1       7.063   4.740  13.967  0.00  0.00    +0.000 A 
ATOM     15  C   UNL     1       7.442   4.423  12.638  0.00  0.00    +0.000 A 
ATOM     16  C   UNL     1       6.527   3.507  12.152  0.00  0.00    +0.000 A 
ATOM     17  N   UNL     1       5.609   3.264  13.144  0.00  0.00    +0.000 N 
ATOM     18  C   UNL     1       5.904   4.030  14.249  0.00  0.00    +0.000 A 
ATOM     19  C   UNL     1       5.250   4.177  15.473  0.00  0.00    +0.000 A 
ATOM     20  H   UNL     1       4.824   2.629  13.071  0.00  0.00    +0.000 HD
ENDBRANCH   8  11
ENDBRANCH   1   9
BRANCH   5  21
ATOM     21  C   UNL     1       1.296   8.869  20.956  0.00  0.00    +0.000 C 
BRANCH  21  22
ATOM     22  N   UNL     1       0.772   9.832  19.946  0.00  0.00    +0.000 NA
ATOM     23  C   UNL     1      -0.679   9.668  19.780  0.00  0.00    +0.000 C 
ATOM     24  C   UNL     1      -1.288  10.693  18.816  0.00  0.00    +0.000 C 
ATOM     25  C   UNL     1      -1.022  12.133  19.246  0.00  0.00    +0.000 C 
ATOM     26  C   UNL     1       0.479  12.317  19.519  0.00  0.00    +0.000 C 
ATOM     27  C   UNL     1       1.112  11.204  20.369  0.00  0.00    +0.000 C 
BRANCH  25  28
ATOM     28  C   UNL     1      -1.915  12.591  20.408  0.00  0.00    +0.000 C 
ATOM     29  O   UNL     1      -1.510  12.642  21.567  0.00  0.00    +0.000 OA
ATOM     30  N   UNL     1      -3.197  12.997  20.044  0.00  0.00    +0.000 N 
ATOM     31  H   UNL     1      -3.503  12.887  19.086  0.00  0.00    +0.000 HD
BRANCH  30  32
ATOM     32  C   UNL     1      -4.081  13.674  21.004  0.00  0.00    +0.000 C 
ATOM     33  C   UNL     1      -4.875  14.837  20.372  0.00  0.00    +0.000 C 
ATOM     34  C   UNL     1      -6.297  14.510  19.920  0.00  0.00    +0.000 C 
ATOM     35  C   UNL     1      -7.063  13.757  20.996  0.00  0.00    +0.000 C 
ATOM     36  C   UNL     1      -6.350  12.449  21.299  0.00  0.00    +0.000 C 
ATOM     37  C   UNL     1      -4.933  12.685  21.818  0.00  0.00    +0.000 C 
ENDBRANCH  30  32
ENDBRANCH  25  28
ENDBRANCH  21  22
ENDBRANCH   5  21
TORSDOF 6
ENDMDL
MODEL 6
REMARK VINA RESULT:      -8.4      2.365      3.465
REMARK  Name = 
REMARK  6 active torsions:
REMARK  status: ('A' for Active; 'I' for Inactive)
REMARK    1  A    between atoms: C_2  and  C_26
REMARK    2  A    between atoms: N_3  and  C_4
REMARK    3  A    between atoms: C_8  and  C_9
REMARK    4  A    between atoms: C_9  and  N_10
REMARK    5  A    between atoms: C_13  and  C_14
REMARK    6  A    between atoms: N_16  and  C_17
REMARK                            x       y       z     vdW  Elec       q    Type
REMARK                         _______ _______ _______ _____ _____    ______ ____
ROOT
ATOM      1  C   UNL     1       2.886   5.351  18.641  0.00  0.00    +0.000 A 
ATOM      2  C   UNL     1       2.333   4.129  19.036  0.00  0.00    +0.000 A 
ATOM      3  C   UNL     1       1.443   4.049  20.109  0.00  0.00    +0.000 A 
ATOM      4  C   UNL     1       1.089   5.196  20.810  0.00  0.00    +0.000 A 
ATOM      5  C   UNL     1       1.605   6.443  20.437  0.00  0.00    +0.000 A 
ATOM      6  C   UNL     1       2.489   6.512  19.332  0.00  0.00    +0.000 A 
ENDROOT
BRANCH   1   9
ATOM      7  O   UNL     1       5.643   4.494  18.551  0.00  0.00    +0.000 OA
ATOM      8  C   UNL     1       5.083   4.921  17.542  0.00  0.00    +0.000 C 
ATOM      9  N   UNL     1       3.796   5.450  17.543  0.00  0.00    +0.000 N 
ATOM     10  H   UNL     1       3.482   6.004  16.761  0.00  0.00    +0.000 HD
BRANCH   8  11
ATOM     11  C   UNL     1       5.871   4.844  16.271  0.00  0.00    +0.000 A 
ATOM     12  C   UNL     1       7.021   5.572  15.998  0.00  0.00    +0.000 A 
ATOM     13  N   UNL     1       7.703   5.579  14.820  0.00  0.00    +0.000 NA
ATOM     14  C   UNL     1       7.191   4.779  13.852  0.00  0.00    +0.000 A 
ATOM     15  C   UNL     1       7.615   4.590  12.513  0.00  0.00    +0.000 A 
ATOM     16  C   UNL     1       6.767   3.663  11.936  0.00  0.00    +0.000 A 
ATOM     17  N   UNL     1       5.846   3.289  12.883  0.00  0.00    +0.000 N 
ATOM     18  C   UNL     1       6.071   3.983  14.051  0.00  0.00    +0.000 A 
ATOM     19  C   UNL     1       5.385   3.996  15.265  0.00  0.00    +0.000 A 
ATOM     20  H   UNL     1       5.102   2.617  12.743  0.00  0.00    +0.000 HD
ENDBRANCH   8  11
ENDBRANCH   1   9
BRANCH   5  21
ATOM     21  C   UNL     1       1.153   7.689  21.189  0.00  0.00    +0.000 C 
BRANCH  21  22
ATOM     22  N   UNL     1       1.357   8.978  20.470  0.00  0.00    +0.000 NA
ATOM     23  C   UNL     1       0.478   9.061  19.296  0.00  0.00    +0.000 C 
ATOM     24  C   UNL     1       0.581  10.405  18.567  0.00  0.00    +0.000 C 
ATOM     25  C   UNL     1       0.269  11.591  19.475  0.00  0.00    +0.000 C 
ATOM     26  C   UNL     1       1.105  11.488  20.759  0.00  0.00    +0.000 C 
ATOM     27  C   UNL     1       1.110  10.093  21.405  0.00  0.00    +0.000 C 
BRANCH  25  28
ATOM     28  C   UNL     1      -1.234  11.770  19.738  0.00  0.00    +0.000 C 
ATOM     29  O   UNL     1      -2.091  11.196  19.071  0.00  0.00    +0.000 OA
ATOM     30  N   UNL     1      -1.551  12.587  20.821  0.00  0.00    +0.000 N 
ATOM     31  H   UNL     1      -0.815  13.081  21.307  0.00  0.00    +0.000 HD
BRANCH  30  32
ATOM     32  C   UNL     1      -2.926  12.667  21.335  0.00  0.00    +0.000 C 
ATOM     33  C   UNL     1      -3.031  12.300  22.830  0.00  0.00    +0.000 C 
ATOM     34  C   UNL     1      -3.034  13.471  23.810  0.00  0.00    +0.000 C 
ATOM     35  C   UNL     1      -4.006  14.556  23.376  0.00  0.00    +0.000 C 
ATOM     36  C   UNL     1      -3.594  15.083  22.011  0.00  0.00    +0.000 C 
ATOM     37  C   UNL     1      -3.622  13.985  20.950  0.00  0.00    +0.000 C 
ENDBRANCH  30  32
ENDBRANCH  25  28
ENDBRANCH  21  22
ENDBRANCH   5  21
TORSDOF 6
ENDMDL
MODEL 7
REMARK VINA RESULT:      -8.4      3.442     10.479
REMARK  Name = 
REMARK  6 active torsions:
REMARK  status: ('A' for Active; 'I' for Inactive)
REMARK    1  A    between atoms: C_2  and  C_26
REMARK    2  A    between atoms: N_3  and  C_4
REMARK    3  A    between atoms: C_8  and  C_9
REMARK    4  A    between atoms: C_9  and  N_10
REMARK    5  A    between atoms: C_13  and  C_14
REMARK    6  A    between atoms: N_16  and  C_17
REMARK                            x       y       z     vdW  Elec       q    Type
REMARK                         _______ _______ _______ _____ _____    ______ ____
ROOT
ATOM      1  C   UNL     1       1.020   9.638  19.107  0.00  0.00    +0.000 A 
ATOM      2  C   UNL     1       1.792   9.705  17.941  0.00  0.00    +0.000 A 
ATOM      3  C   UNL     1       2.708   8.702  17.620  0.00  0.00    +0.000 A 
ATOM      4  C   UNL     1       2.871   7.607  18.462  0.00  0.00    +0.000 A 
ATOM      5  C   UNL     1       2.106   7.491  19.630  0.00  0.00    +0.000 A 
ATOM      6  C   UNL     1       1.164   8.505  19.931  0.00  0.00    +0.000 A 
ENDROOT
BRANCH   1   9
ATOM      7  O   UNL     1      -1.382  10.367  17.678  0.00  0.00    +0.000 OA
ATOM      8  C   UNL     1      -1.115  10.879  18.764  0.00  0.00    +0.000 C 
ATOM      9  N   UNL     1       0.076  10.654  19.449  0.00  0.00    +0.000 N 
ATOM     10  H   UNL     1       0.351  11.276  20.194  0.00  0.00    +0.000 HD
BRANCH   8  11
ATOM     11  C   UNL     1      -2.160  11.786  19.337  0.00  0.00    +0.000 A 
ATOM     12  C   UNL     1      -1.965  12.662  20.397  0.00  0.00    +0.000 A 
ATOM     13  N   UNL     1      -2.921  13.432  20.985  0.00  0.00    +0.000 NA
ATOM     14  C   UNL     1      -4.162  13.316  20.454  0.00  0.00    +0.000 A 
ATOM     15  C   UNL     1      -5.380  13.924  20.851  0.00  0.00    +0.000 A 
ATOM     16  C   UNL     1      -6.364  13.490  19.982  0.00  0.00    +0.000 A 
ATOM     17  N   UNL     1      -5.779  12.639  19.077  0.00  0.00    +0.000 N 
ATOM     18  C   UNL     1      -4.441  12.498  19.367  0.00  0.00    +0.000 A 
ATOM     19  C   UNL     1      -3.446  11.714  18.782  0.00  0.00    +0.000 A 
ATOM     20  H   UNL     1      -6.260  12.172  18.318  0.00  0.00    +0.000 HD
ENDBRANCH   8  11
ENDBRANCH   1   9
BRANCH   5  21
ATOM     21  C   UNL     1       2.267   6.252  20.501  0.00  0.00    +0.000 C 
BRANCH  21  22
ATOM     22  N   UNL     1       2.180   4.950  19.783  0.00  0.00    +0.000 NA
ATOM     23  C   UNL     1       1.991   5.165  18.341  0.00  0.00    +0.000 C 
ATOM     24  C   UNL     1       1.983   3.859  17.540  0.00  0.00    +0.000 C 
ATOM     25  C   UNL     1       3.259   3.045  17.731  0.00  0.00    +0.000 C 
ATOM     26  C   UNL     1       3.539   2.878  19.232  0.00  0.00    +0.000 C 
ATOM     27  C   UNL     1       3.403   4.170  20.052  0.00  0.00    +0.000 C 
BRANCH  25  28
ATOM     28  C   UNL     1       4.455   3.602  16.945  0.00  0.00    +0.000 C 
ATOM     29  O   UNL     1       4.397   3.838  15.740  0.00  0.00    +0.000 OA
ATOM     30  N   UNL     1       5.589   3.871  17.707  0.00  0.00    +0.000 N 
ATOM     31  H   UNL     1       5.609   3.610  18.684  0.00  0.00    +0.000 HD
BRANCH  30  32
ATOM     32  C   UNL     1       6.724   4.616  17.143  0.00  0.00    +0.000 C 
ATOM     33  C   UNL     1       6.297   5.933  16.461  0.00  0.00    +0.000 C 
ATOM     34  C   UNL     1       6.419   7.198  17.309  0.00  0.00    +0.000 C 
ATOM     35  C   UNL     1       7.770   7.275  18.000  0.00  0.00    +0.000 C 
ATOM     36  C   UNL     1       7.936   6.073  18.917  0.00  0.00    +0.000 C 
ATOM     37  C   UNL     1       7.888   4.760  18.139  0.00  0.00    +0.000 C 
ENDBRANCH  30  32
ENDBRANCH  25  28
ENDBRANCH  21  22
ENDBRANCH   5  21
TORSDOF 6
ENDMDL
MODEL 8
REMARK VINA RESULT:      -8.3      3.388     10.560
REMARK  Name = 
REMARK  6 active torsions:
REMARK  status: ('A' for Active; 'I' for Inactive)
REMARK    1  A    between atoms: C_2  and  C_26
REMARK    2  A    between atoms: N_3  and  C_4
REMARK    3  A    between atoms: C_8  and  C_9
REMARK    4  A    between atoms: C_9  and  N_10
REMARK    5  A    between atoms: C_13  and  C_14
REMARK    6  A    between atoms: N_16  and  C_17
REMARK                            x       y       z     vdW  Elec       q    Type
REMARK                         _______ _______ _______ _____ _____    ______ ____
ROOT
ATOM      1  C   UNL     1       1.318   9.294  19.574  0.00  0.00    +0.000 A 
ATOM      2  C   UNL     1       1.923   9.308  18.312  0.00  0.00    +0.000 A 
ATOM      3  C   UNL     1       2.599   8.190  17.821  0.00  0.00    +0.000 A 
ATOM      4  C   UNL     1       2.686   7.032  18.586  0.00  0.00    +0.000 A 
ATOM      5  C   UNL     1       2.079   6.969  19.847  0.00  0.00    +0.000 A 
ATOM      6  C   UNL     1       1.376   8.103  20.323  0.00  0.00    +0.000 A 
ENDROOT
BRANCH   1   9
ATOM      7  O   UNL     1      -1.287  10.267  18.791  0.00  0.00    +0.000 OA
ATOM      8  C   UNL     1      -0.681  10.776  19.734  0.00  0.00    +0.000 C 
ATOM      9  N   UNL     1       0.619  10.428  20.090  0.00  0.00    +0.000 N 
ATOM     10  H   UNL     1       1.152  11.034  20.695  0.00  0.00    +0.000 HD
BRANCH   8  11
ATOM     11  C   UNL     1      -1.426  11.820  20.506  0.00  0.00    +0.000 A 
ATOM     12  C   UNL     1      -2.603  12.432  20.095  0.00  0.00    +0.000 A 
ATOM     13  N   UNL     1      -3.249  13.440  20.742  0.00  0.00    +0.000 NA
ATOM     14  C   UNL     1      -2.668  13.851  21.896  0.00  0.00    +0.000 A 
ATOM     15  C   UNL     1      -3.041  14.896  22.778  0.00  0.00    +0.000 A 
ATOM     16  C   UNL     1      -2.130  14.908  23.818  0.00  0.00    +0.000 A 
ATOM     17  N   UNL     1      -1.220  13.905  23.590  0.00  0.00    +0.000 N 
ATOM     18  C   UNL     1      -1.515  13.269  22.406  0.00  0.00    +0.000 A 
ATOM     19  C   UNL     1      -0.866  12.239  21.723  0.00  0.00    +0.000 A 
ATOM     20  H   UNL     1      -0.438  13.677  24.191  0.00  0.00    +0.000 HD
ENDBRANCH   8  11
ENDBRANCH   1   9
BRANCH   5  21
ATOM     21  C   UNL     1       2.142   5.667  20.636  0.00  0.00    +0.000 C 
BRANCH  21  22
ATOM     22  N   UNL     1       2.172   4.424  19.815  0.00  0.00    +0.000 NA
ATOM     23  C   UNL     1       1.905   4.729  18.403  0.00  0.00    +0.000 C 
ATOM     24  C   UNL     1       2.011   3.497  17.497  0.00  0.00    +0.000 C 
ATOM     25  C   UNL     1       3.375   2.820  17.582  0.00  0.00    +0.000 C 
ATOM     26  C   UNL     1       3.730   2.569  19.056  0.00  0.00    +0.000 C 
ATOM     27  C   UNL     1       3.484   3.769  19.983  0.00  0.00    +0.000 C 
BRANCH  25  28
ATOM     28  C   UNL     1       4.471   3.569  16.810  0.00  0.00    +0.000 C 
ATOM     29  O   UNL     1       4.266   4.083  15.713  0.00  0.00    +0.000 OA
ATOM     30  N   UNL     1       5.695   3.670  17.468  0.00  0.00    +0.000 N 
ATOM     31  H   UNL     1       5.832   3.185  18.345  0.00  0.00    +0.000 HD
BRANCH  30  32
ATOM     32  C   UNL     1       6.759   4.548  16.961  0.00  0.00    +0.000 C 
ATOM     33  C   UNL     1       6.219   5.869  16.375  0.00  0.00    +0.000 C 
ATOM     34  C   UNL     1       6.236   7.075  17.312  0.00  0.00    +0.000 C 
ATOM     35  C   UNL     1       7.578   7.218  18.011  0.00  0.00    +0.000 C 
ATOM     36  C   UNL     1       7.849   5.972  18.839  0.00  0.00    +0.000 C 
ATOM     37  C   UNL     1       7.911   4.718  17.968  0.00  0.00    +0.000 C 
ENDBRANCH  30  32
ENDBRANCH  25  28
ENDBRANCH  21  22
ENDBRANCH   5  21
TORSDOF 6
ENDMDL
MODEL 9
REMARK VINA RESULT:      -8.3      2.243      3.178
REMARK  Name = 
REMARK  6 active torsions:
REMARK  status: ('A' for Active; 'I' for Inactive)
REMARK    1  A    between atoms: C_2  and  C_26
REMARK    2  A    between atoms: N_3  and  C_4
REMARK    3  A    between atoms: C_8  and  C_9
REMARK    4  A    between atoms: C_9  and  N_10
REMARK    5  A    between atoms: C_13  and  C_14
REMARK    6  A    between atoms: N_16  and  C_17
REMARK                            x       y       z     vdW  Elec       q    Type
REMARK                         _______ _______ _______ _____ _____    ______ ____
ROOT
ATOM      1  C   UNL     1       3.061   6.114  18.835  0.00  0.00    +0.000 A 
ATOM      2  C   UNL     1       2.532   4.959  19.421  0.00  0.00    +0.000 A 
ATOM      3  C   UNL     1       1.603   5.033  20.460  0.00  0.00    +0.000 A 
ATOM      4  C   UNL     1       1.183   6.270  20.936  0.00  0.00    +0.000 A 
ATOM      5  C   UNL     1       1.673   7.453  20.366  0.00  0.00    +0.000 A 
ATOM      6  C   UNL     1       2.598   7.362  19.297  0.00  0.00    +0.000 A 
ENDROOT
BRANCH   1   9
ATOM      7  O   UNL     1       5.278   4.285  18.546  0.00  0.00    +0.000 OA
ATOM      8  C   UNL     1       4.993   5.077  17.648  0.00  0.00    +0.000 C 
ATOM      9  N   UNL     1       4.010   6.055  17.769  0.00  0.00    +0.000 N 
ATOM     10  H   UNL     1       3.986   6.824  17.116  0.00  0.00    +0.000 HD
BRANCH   8  11
ATOM     11  C   UNL     1       5.774   4.939  16.378  0.00  0.00    +0.000 A 
ATOM     12  C   UNL     1       6.931   5.643  16.070  0.00  0.00    +0.000 A 
ATOM     13  N   UNL     1       7.608   5.593  14.891  0.00  0.00    +0.000 NA
ATOM     14  C   UNL     1       7.083   4.760  13.959  0.00  0.00    +0.000 A 
ATOM     15  C   UNL     1       7.499   4.512  12.627  0.00  0.00    +0.000 A 
ATOM     16  C   UNL     1       6.639   3.571  12.091  0.00  0.00    +0.000 A 
ATOM     17  N   UNL     1       5.717   3.247  13.057  0.00  0.00    +0.000 N 
ATOM     18  C   UNL     1       5.955   3.985  14.194  0.00  0.00    +0.000 A 
ATOM     19  C   UNL     1       5.274   4.055  15.410  0.00  0.00    +0.000 A 
ATOM     20  H   UNL     1       4.965   2.578  12.947  0.00  0.00    +0.000 HD
ENDBRANCH   8  11
ENDBRANCH   1   9
BRANCH   5  21
ATOM     21  C   UNL     1       1.151   8.792  20.871  0.00  0.00    +0.000 C 
BRANCH  21  22
ATOM     22  N   UNL     1       0.872   9.807  19.816  0.00  0.00    +0.000 NA
ATOM     23  C   UNL     1      -0.493   9.650  19.295  0.00  0.00    +0.000 C 
ATOM     24  C   UNL     1      -0.865  10.726  18.268  0.00  0.00    +0.000 C 
ATOM     25  C   UNL     1      -0.732  12.140  18.824  0.00  0.00    +0.000 C 
ATOM     26  C   UNL     1       0.654  12.311  19.463  0.00  0.00    +0.000 C 
ATOM     27  C   UNL     1       1.079  11.155  20.381  0.00  0.00    +0.000 C 
BRANCH  25  28
ATOM     28  C   UNL     1      -1.887  12.533  19.758  0.00  0.00    +0.000 C 
ATOM     29  O   UNL     1      -3.028  12.102  19.609  0.00  0.00    +0.000 OA
ATOM     30  N   UNL     1      -1.534  13.367  20.816  0.00  0.00    +0.000 N 
ATOM     31  H   UNL     1      -0.594  13.739  20.868  0.00  0.00    +0.000 HD
BRANCH  30  32
ATOM     32  C   UNL     1      -2.472  13.639  21.915  0.00  0.00    +0.000 C 
ATOM     33  C   UNL     1      -1.859  13.374  23.307  0.00  0.00    +0.000 C 
ATOM     34  C   UNL     1      -1.294  14.592  24.035  0.00  0.00    +0.000 C 
ATOM     35  C   UNL     1      -2.270  15.758  24.006  0.00  0.00    +0.000 C 
ATOM     36  C   UNL     1      -2.540  16.152  22.563  0.00  0.00    +0.000 C 
ATOM     37  C   UNL     1      -3.166  15.005  21.772  0.00  0.00    +0.000 C 
ENDBRANCH  30  32
ENDBRANCH  25  28
ENDBRANCH  21  22
ENDBRANCH   5  21
TORSDOF 6
ENDMDL
