MODEL 1
REMARK VINA RESULT:      -8.0      0.000      0.000
REMARK  Name = 
REMARK  5 active torsions:
REMARK  status: ('A' for Active; 'I' for Inactive)
REMARK    1  A    between atoms: C_1  and  N_2
REMARK    2  A    between atoms: N_2  and  C_3
REMARK    3  A    between atoms: C_5  and  S_6
REMARK    4  A    between atoms: S_6  and  C_7
REMARK    5  A    between atoms: C_7  and  C_8
REMARK                            x       y       z     vdW  Elec       q    Type
REMARK                         _______ _______ _______ _____ _____    ______ ____
ROOT
ATOM      1  C   UNL     1       5.434   4.575  16.148  0.00  0.00    +0.000 A 
ATOM      2  N   UNL     1       4.602   3.583  16.507  0.00  0.00    +0.000 NA
ATOM      3  C   UNL     1       4.519   3.273  17.806  0.00  0.00    +0.000 A 
ATOM      4  N   UNL     1       5.254   3.841  18.772  0.00  0.00    +0.000 NA
ATOM      5  C   UNL     1       6.110   4.813  18.396  0.00  0.00    +0.000 A 
ATOM      6  C   UNL     1       6.206   5.261  17.082  0.00  0.00    +0.000 A 
ATOM      7  C   UNL     1       7.140   6.376  16.696  0.00  0.00    +0.000 C 
ATOM      8  C   UNL     1       7.608   7.211  17.889  0.00  0.00    +0.000 C 
ATOM      9  C   UNL     1       8.083   6.298  19.008  0.00  0.00    +0.000 C 
ATOM     10  C   UNL     1       6.929   5.428  19.503  0.00  0.00    +0.000 C 
ENDROOT
BRANCH   1  12
ATOM     11  C   UNL     1       6.269   3.901  13.990  0.00  0.00    +0.000 C 
ATOM     12  N   UNL     1       5.559   4.893  14.781  0.00  0.00    +0.000 N 
ATOM     13  H   UNL     1       4.644   5.088  14.391  0.00  0.00    +0.000 HD
ENDBRANCH   1  12
BRANCH   3  14
ATOM     14  S   UNL     1       3.300   2.080  18.318  0.00  0.00    +0.000 S 
BRANCH  14  15
ATOM     15  C   UNL     1       1.789   3.072  18.111  0.00  0.00    +0.000 C 
BRANCH  15  16
ATOM     16  C   UNL     1       1.898   4.436  18.758  0.00  0.00    +0.000 A 
ATOM     17  C   UNL     1       2.205   5.550  17.952  0.00  0.00    +0.000 A 
ATOM     18  C   UNL     1       2.341   6.826  18.507  0.00  0.00    +0.000 A 
ATOM     19  C   UNL     1       2.163   7.015  19.873  0.00  0.00    +0.000 A 
ATOM     20  C   UNL     1       1.845   5.929  20.686  0.00  0.00    +0.000 A 
ATOM     21  C   UNL     1       1.709   4.648  20.135  0.00  0.00    +0.000 A 
ATOM     22 CL   UNL     1       1.320   3.360  21.218  0.00  0.00    +0.000 Cl
ENDBRANCH  15  16
ENDBRANCH  14  15
ENDBRANCH   3  14
TORSDOF 4
ENDMDL
MODEL 2
REMARK VINA RESULT:      -7.0      4.157      6.693
REMARK  Name = 
REMARK  5 active torsions:
REMARK  status: ('A' for Active; 'I' for Inactive)
REMARK    1  A    between atoms: C_1  and  N_2
REMARK    2  A    between atoms: N_2  and  C_3
REMARK    3  A    between atoms: C_5  and  S_6
REMARK    4  A    between atoms: S_6  and  C_7
REMARK    5  A    between atoms: C_7  and  C_8
REMARK                            x       y       z     vdW  Elec       q    Type
REMARK                         _______ _______ _______ _____ _____    ______ ____
ROOT
ATOM      1  C   UNL     1       1.310  10.488  18.775  0.00  0.00    +0.000 A 
ATOM      2  N   UNL     1       2.023   9.564  18.108  0.00  0.00    +0.000 NA
ATOM      3  C   UNL     1       2.197   8.370  18.685  0.00  0.00    +0.000 A 
ATOM      4  N   UNL     1       1.762   8.046  19.912  0.00  0.00    +0.000 NA
ATOM      5  C   UNL     1       1.076   8.992  20.585  0.00  0.00    +0.000 A 
ATOM      6  C   UNL     1       0.774  10.234  20.035  0.00  0.00    +0.000 A 
ATOM      7  C   UNL     1      -0.028  11.257  20.793  0.00  0.00    +0.000 C 
ATOM      8  C   UNL     1      -0.807  10.663  21.968  0.00  0.00    +0.000 C 
ATOM      9  C   UNL     1       0.104   9.777  22.801  0.00  0.00    +0.000 C 
ATOM     10  C   UNL     1       0.607   8.602  21.964  0.00  0.00    +0.000 C 
ENDROOT
BRANCH   1  12
ATOM     11  C   UNL     1       2.341  12.590  18.201  0.00  0.00    +0.000 C 
ATOM     12  N   UNL     1       1.145  11.763  18.198  0.00  0.00    +0.000 N 
ATOM     13  H   UNL     1       0.766  11.667  17.262  0.00  0.00    +0.000 HD
ENDBRANCH   1  12
BRANCH   3  14
ATOM     14  S   UNL     1       2.991   7.081  17.747  0.00  0.00    +0.000 S 
BRANCH  14  15
ATOM     15  C   UNL     1       3.389   5.919  19.088  0.00  0.00    +0.000 C 
BRANCH  15  16
ATOM     16  C   UNL     1       2.601   4.630  18.991  0.00  0.00    +0.000 A 
ATOM     17  C   UNL     1       1.545   4.407  19.894  0.00  0.00    +0.000 A 
ATOM     18  C   UNL     1       0.804   3.222  19.860  0.00  0.00    +0.000 A 
ATOM     19  C   UNL     1       1.098   2.243  18.916  0.00  0.00    +0.000 A 
ATOM     20  C   UNL     1       2.129   2.451  18.003  0.00  0.00    +0.000 A 
ATOM     21  C   UNL     1       2.875   3.636  18.035  0.00  0.00    +0.000 A 
ATOM     22 CL   UNL     1       4.140   3.804  16.870  0.00  0.00    +0.000 Cl
ENDBRANCH  15  16
ENDBRANCH  14  15
ENDBRANCH   3  14
TORSDOF 4
ENDMDL
MODEL 3
REMARK VINA RESULT:      -7.0      3.173      6.332
REMARK  Name = 
REMARK  5 active torsions:
REMARK  status: ('A' for Active; 'I' for Inactive)
REMARK    1  A    between atoms: C_1  and  N_2
REMARK    2  A    between atoms: N_2  and  C_3
REMARK    3  A    between atoms: C_5  and  S_6
REMARK    4  A    between atoms: S_6  and  C_7
REMARK    5  A    between atoms: C_7  and  C_8
REMARK                            x       y       z     vdW  Elec       q    Type
REMARK                         _______ _______ _______ _____ _____    ______ ____
ROOT
ATOM      1  C   UNL     1       3.399   5.530  18.118  0.00  0.00    +0.000 A 
ATOM      2  N   UNL     1       4.625   5.579  17.570  0.00  0.00    +0.000 NA
ATOM      3  C   UNL     1       5.512   4.646  17.935  0.00  0.00    +0.000 A 
ATOM      4  N   UNL     1       5.286   3.700  18.857  0.00  0.00    +0.000 NA
ATOM      5  C   UNL     1       4.062   3.682  19.425  0.00  0.00    +0.000 A 
ATOM      6  C   UNL     1       3.049   4.558  19.051  0.00  0.00    +0.000 A 
ATOM      7  C   UNL     1       1.679   4.489  19.671  0.00  0.00    +0.000 C 
ATOM      8  C   UNL     1       1.404   3.161  20.379  0.00  0.00    +0.000 C 
ATOM      9  C   UNL     1       2.569   2.805  21.288  0.00  0.00    +0.000 C 
ATOM     10  C   UNL     1       3.840   2.611  20.464  0.00  0.00    +0.000 C 
ENDROOT
BRANCH   1  12
ATOM     11  C   UNL     1       2.858   7.879  18.118  0.00  0.00    +0.000 C 
ATOM     12  N   UNL     1       2.462   6.524  17.771  0.00  0.00    +0.000 N 
ATOM     13  H   UNL     1       2.233   6.449  16.786  0.00  0.00    +0.000 HD
ENDBRANCH   1  12
BRANCH   3  14
ATOM     14  S   UNL     1       7.081   4.592  17.094  0.00  0.00    +0.000 S 
BRANCH  14  15
ATOM     15  C   UNL     1       6.715   5.678  15.682  0.00  0.00    +0.000 C 
BRANCH  15  16
ATOM     16  C   UNL     1       6.488   4.905  14.400  0.00  0.00    +0.000 A 
ATOM     17  C   UNL     1       5.326   4.119  14.275  0.00  0.00    +0.000 A 
ATOM     18  C   UNL     1       5.084   3.368  13.121  0.00  0.00    +0.000 A 
ATOM     19  C   UNL     1       5.992   3.396  12.067  0.00  0.00    +0.000 A 
ATOM     20  C   UNL     1       7.140   4.180  12.165  0.00  0.00    +0.000 A 
ATOM     21  C   UNL     1       7.387   4.932  13.320  0.00  0.00    +0.000 A 
ATOM     22 CL   UNL     1       8.839   5.868  13.356  0.00  0.00    +0.000 Cl
ENDBRANCH  15  16
ENDBRANCH  14  15
ENDBRANCH   3  14
TORSDOF 4
ENDMDL
MODEL 4
REMARK VINA RESULT:      -6.9      2.482      5.968
REMARK  Name = 
REMARK  5 active torsions:
REMARK  status: ('A' for Active; 'I' for Inactive)
REMARK    1  A    between atoms: C_1  and  N_2
REMARK    2  A    between atoms: N_2  and  C_3
REMARK    3  A    between atoms: C_5  and  S_6
REMARK    4  A    between atoms: S_6  and  C_7
REMARK    5  A    between atoms: C_7  and  C_8
REMARK                            x       y       z     vdW  Elec       q    Type
REMARK                         _______ _______ _______ _____ _____    ______ ____
ROOT
ATOM      1  C   UNL     1       3.396   5.826  18.855  0.00  0.00    +0.000 A 
ATOM      2  N   UNL     1       4.629   5.863  18.321  0.00  0.00    +0.000 NA
ATOM      3  C   UNL     1       5.431   4.812  18.525  0.00  0.00    +0.000 A 
ATOM      4  N   UNL     1       5.117   3.748  19.277  0.00  0.00    +0.000 NA
ATOM      5  C   UNL     1       3.889   3.738  19.835  0.00  0.00    +0.000 A 
ATOM      6  C   UNL     1       2.955   4.745  19.613  0.00  0.00    +0.000 A 
ATOM      7  C   UNL     1       1.577   4.688  20.215  0.00  0.00    +0.000 C 
ATOM      8  C   UNL     1       1.184   3.289  20.692  0.00  0.00    +0.000 C 
ATOM      9  C   UNL     1       2.304   2.691  21.528  0.00  0.00    +0.000 C 
ATOM     10  C   UNL     1       3.566   2.532  20.682  0.00  0.00    +0.000 C 
ENDROOT
BRANCH   1  12
ATOM     11  C   UNL     1       3.080   7.976  17.810  0.00  0.00    +0.000 C 
ATOM     12  N   UNL     1       2.548   6.938  18.679  0.00  0.00    +0.000 N 
ATOM     13  H   UNL     1       1.637   6.626  18.364  0.00  0.00    +0.000 HD
ENDBRANCH   1  12
BRANCH   3  14
ATOM     14  S   UNL     1       7.002   4.769  17.685  0.00  0.00    +0.000 S 
BRANCH  14  15
ATOM     15  C   UNL     1       6.637   5.872  16.286  0.00  0.00    +0.000 C 
BRANCH  15  16
ATOM     16  C   UNL     1       6.580   5.134  14.965  0.00  0.00    +0.000 A 
ATOM     17  C   UNL     1       7.579   5.379  14.004  0.00  0.00    +0.000 A 
ATOM     18  C   UNL     1       7.556   4.741  12.761  0.00  0.00    +0.000 A 
ATOM     19  C   UNL     1       6.541   3.839  12.459  0.00  0.00    +0.000 A 
ATOM     20  C   UNL     1       5.551   3.571  13.402  0.00  0.00    +0.000 A 
ATOM     21  C   UNL     1       5.569   4.210  14.648  0.00  0.00    +0.000 A 
ATOM     22 CL   UNL     1       4.298   3.823  15.752  0.00  0.00    +0.000 Cl
ENDBRANCH  15  16
ENDBRANCH  14  15
ENDBRANCH   3  14
TORSDOF 4
ENDMDL
MODEL 5
REMARK VINA RESULT:      -6.9      2.430      5.747
REMARK  Name = 
REMARK  5 active torsions:
REMARK  status: ('A' for Active; 'I' for Inactive)
REMARK    1  A    between atoms: C_1  and  N_2
REMARK    2  A    between atoms: N_2  and  C_3
REMARK    3  A    between atoms: C_5  and  S_6
REMARK    4  A    between atoms: S_6  and  C_7
REMARK    5  A    between atoms: C_7  and  C_8
REMARK                            x       y       z     vdW  Elec       q    Type
REMARK                         _______ _______ _______ _____ _____    ______ ____
ROOT
ATOM      1  C   UNL     1       3.420   5.612  19.719  0.00  0.00    +0.000 A 
ATOM      2  N   UNL     1       4.723   5.939  19.743  0.00  0.00    +0.000 NA
ATOM      3  C   UNL     1       5.606   5.025  19.326  0.00  0.00    +0.000 A 
ATOM      4  N   UNL     1       5.290   3.780  18.943  0.00  0.00    +0.000 NA
ATOM      5  C   UNL     1       3.981   3.453  18.955  0.00  0.00    +0.000 A 
ATOM      6  C   UNL     1       2.984   4.361  19.293  0.00  0.00    +0.000 A 
ATOM      7  C   UNL     1       1.528   3.982  19.258  0.00  0.00    +0.000 C 
ATOM      8  C   UNL     1       1.253   2.721  18.436  0.00  0.00    +0.000 C 
ATOM      9  C   UNL     1       2.222   1.619  18.834  0.00  0.00    +0.000 C 
ATOM     10  C   UNL     1       3.657   2.044  18.526  0.00  0.00    +0.000 C 
ENDROOT
BRANCH   1  12
ATOM     11  C   UNL     1       2.228   7.662  19.283  0.00  0.00    +0.000 C 
ATOM     12  N   UNL     1       2.478   6.551  20.186  0.00  0.00    +0.000 N 
ATOM     13  H   UNL     1       1.616   6.076  20.431  0.00  0.00    +0.000 HD
ENDBRANCH   1  12
BRANCH   3  14
ATOM     14  S   UNL     1       7.318   5.498  19.190  0.00  0.00    +0.000 S 
BRANCH  14  15
ATOM     15  C   UNL     1       7.243   6.502  17.675  0.00  0.00    +0.000 C 
BRANCH  15  16
ATOM     16  C   UNL     1       6.644   5.746  16.508  0.00  0.00    +0.000 A 
ATOM     17  C   UNL     1       7.379   4.694  15.929  0.00  0.00    +0.000 A 
ATOM     18  C   UNL     1       6.880   3.983  14.834  0.00  0.00    +0.000 A 
ATOM     19  C   UNL     1       5.633   4.302  14.305  0.00  0.00    +0.000 A 
ATOM     20  C   UNL     1       4.884   5.330  14.873  0.00  0.00    +0.000 A 
ATOM     21  C   UNL     1       5.381   6.046  15.969  0.00  0.00    +0.000 A 
ATOM     22 CL   UNL     1       4.387   7.309  16.603  0.00  0.00    +0.000 Cl
ENDBRANCH  15  16
ENDBRANCH  14  15
ENDBRANCH   3  14
TORSDOF 4
ENDMDL
MODEL 6
REMARK VINA RESULT:      -6.8      4.096      6.696
REMARK  Name = 
REMARK  5 active torsions:
REMARK  status: ('A' for Active; 'I' for Inactive)
REMARK    1  A    between atoms: C_1  and  N_2
REMARK    2  A    between atoms: N_2  and  C_3
REMARK    3  A    between atoms: C_5  and  S_6
REMARK    4  A    between atoms: S_6  and  C_7
REMARK    5  A    between atoms: C_7  and  C_8
REMARK                            x       y       z     vdW  Elec       q    Type
REMARK                         _______ _______ _______ _____ _____    ______ ____
ROOT
ATOM      1  C   UNL     1       0.440   9.905  18.659  0.00  0.00    +0.000 A 
ATOM      2  N   UNL     1       1.305   9.145  17.966  0.00  0.00    +0.000 NA
ATOM      3  C   UNL     1       2.036   8.252  18.643  0.00  0.00    +0.000 A 
ATOM      4  N   UNL     1       2.014   8.103  19.976  0.00  0.00    +0.000 NA
ATOM      5  C   UNL     1       1.167   8.896  20.663  0.00  0.00    +0.000 A 
ATOM      6  C   UNL     1       0.307   9.795  20.041  0.00  0.00    +0.000 A 
ATOM      7  C   UNL     1      -0.658  10.638  20.830  0.00  0.00    +0.000 C 
ATOM      8  C   UNL     1      -0.896  10.115  22.247  0.00  0.00    +0.000 C 
ATOM      9  C   UNL     1       0.433   9.813  22.920  0.00  0.00    +0.000 C 
ATOM     10  C   UNL     1       1.170   8.711  22.160  0.00  0.00    +0.000 C 
ENDROOT
BRANCH   1  12
ATOM     11  C   UNL     1      -1.560  10.384  17.401  0.00  0.00    +0.000 C 
ATOM     12  N   UNL     1      -0.314  10.875  17.968  0.00  0.00    +0.000 N 
ATOM     13  H   UNL     1      -0.475  11.675  18.569  0.00  0.00    +0.000 HD
ENDBRANCH   1  12
BRANCH   3  14
ATOM     14  S   UNL     1       3.059   7.121  17.724  0.00  0.00    +0.000 S 
BRANCH  14  15
ATOM     15  C   UNL     1       3.478   5.939  19.041  0.00  0.00    +0.000 C 
BRANCH  15  16
ATOM     16  C   UNL     1       2.653   4.672  18.967  0.00  0.00    +0.000 A 
ATOM     17  C   UNL     1       1.614   4.481  19.898  0.00  0.00    +0.000 A 
ATOM     18  C   UNL     1       0.840   3.317  19.886  0.00  0.00    +0.000 A 
ATOM     19  C   UNL     1       1.083   2.327  18.938  0.00  0.00    +0.000 A 
ATOM     20  C   UNL     1       2.097   2.504  17.999  0.00  0.00    +0.000 A 
ATOM     21  C   UNL     1       2.875   3.668  18.009  0.00  0.00    +0.000 A 
ATOM     22 CL   UNL     1       4.115   3.798  16.812  0.00  0.00    +0.000 Cl
ENDBRANCH  15  16
ENDBRANCH  14  15
ENDBRANCH   3  14
TORSDOF 4
ENDMDL
MODEL 7
REMARK VINA RESULT:      -6.8      3.245      4.676
REMARK  Name = 
REMARK  5 active torsions:
REMARK  status: ('A' for Active; 'I' for Inactive)
REMARK    1  A    between atoms: C_1  and  N_2
REMARK    2  A    between atoms: N_2  and  C_3
REMARK    3  A    between atoms: C_5  and  S_6
REMARK    4  A    between atoms: S_6  and  C_7
REMARK    5  A    between atoms: C_7  and  C_8
REMARK                            x       y       z     vdW  Elec       q    Type
REMARK                         _______ _______ _______ _____ _____    ______ ____
ROOT
ATOM      1  C   UNL     1       3.997   3.639  18.543  0.00  0.00    +0.000 A 
ATOM      2  N   UNL     1       3.262   4.232  19.499  0.00  0.00    +0.000 NA
ATOM      3  C   UNL     1       2.997   5.537  19.367  0.00  0.00    +0.000 A 
ATOM      4  N   UNL     1       3.466   6.313  18.379  0.00  0.00    +0.000 NA
ATOM      5  C   UNL     1       4.230   5.713  17.443  0.00  0.00    +0.000 A 
ATOM      6  C   UNL     1       4.491   4.347  17.450  0.00  0.00    +0.000 A 
ATOM      7  C   UNL     1       5.314   3.696  16.371  0.00  0.00    +0.000 C 
ATOM      8  C   UNL     1       5.445   4.555  15.112  0.00  0.00    +0.000 C 
ATOM      9  C   UNL     1       5.839   5.974  15.489  0.00  0.00    +0.000 C 
ATOM     10  C   UNL     1       4.749   6.612  16.349  0.00  0.00    +0.000 C 
ENDROOT
BRANCH   1  12
ATOM     11  C   UNL     1       4.518   1.833  20.053  0.00  0.00    +0.000 C 
ATOM     12  N   UNL     1       4.314   2.273  18.682  0.00  0.00    +0.000 N 
ATOM     13  H   UNL     1       3.611   1.710  18.216  0.00  0.00    +0.000 HD
ENDBRANCH   1  12
BRANCH   3  14
ATOM     14  S   UNL     1       1.885   6.299  20.531  0.00  0.00    +0.000 S 
BRANCH  14  15
ATOM     15  C   UNL     1       1.819   7.981  19.841  0.00  0.00    +0.000 C 
BRANCH  15  16
ATOM     16  C   UNL     1       0.981   8.920  20.684  0.00  0.00    +0.000 A 
ATOM     17  C   UNL     1       0.993   8.772  22.084  0.00  0.00    +0.000 A 
ATOM     18  C   UNL     1       0.217   9.598  22.903  0.00  0.00    +0.000 A 
ATOM     19  C   UNL     1      -0.575  10.594  22.339  0.00  0.00    +0.000 A 
ATOM     20  C   UNL     1      -0.589  10.766  20.957  0.00  0.00    +0.000 A 
ATOM     21  C   UNL     1       0.185   9.939  20.133  0.00  0.00    +0.000 A 
ATOM     22 CL   UNL     1       0.100  10.219  18.430  0.00  0.00    +0.000 Cl
ENDBRANCH  15  16
ENDBRANCH  14  15
ENDBRANCH   3  14
TORSDOF 4
ENDMDL
MODEL 8
REMARK VINA RESULT:      -6.8      1.425      1.999
REMARK  Name = 
REMARK  5 active torsions:
REMARK  status: ('A' for Active; 'I' for Inactive)
REMARK    1  A    between atoms: C_1  and  N_2
REMARK    2  A    between atoms: N_2  and  C_3
REMARK    3  A    between atoms: C_5  and  S_6
REMARK    4  A    between atoms: S_6  and  C_7
REMARK    5  A    between atoms: C_7  and  C_8
REMARK                            x       y       z     vdW  Elec       q    Type
REMARK                         _______ _______ _______ _____ _____    ______ ____
ROOT
ATOM      1  C   UNL     1       6.001   4.997  15.695  0.00  0.00    +0.000 A 
ATOM      2  N   UNL     1       4.966   4.142  15.643  0.00  0.00    +0.000 NA
ATOM      3  C   UNL     1       4.437   3.728  16.800  0.00  0.00    +0.000 A 
ATOM      4  N   UNL     1       4.906   4.056  18.013  0.00  0.00    +0.000 NA
ATOM      5  C   UNL     1       5.966   4.889  18.051  0.00  0.00    +0.000 A 
ATOM      6  C   UNL     1       6.532   5.436  16.904  0.00  0.00    +0.000 A 
ATOM      7  C   UNL     1       7.690   6.395  16.977  0.00  0.00    +0.000 C 
ATOM      8  C   UNL     1       7.875   7.012  18.365  0.00  0.00    +0.000 C 
ATOM      9  C   UNL     1       7.839   5.924  19.426  0.00  0.00    +0.000 C 
ATOM     10  C   UNL     1       6.476   5.234  19.428  0.00  0.00    +0.000 C 
ENDROOT
BRANCH   1  12
ATOM     11  C   UNL     1       6.661   4.394  13.455  0.00  0.00    +0.000 C 
ATOM     12  N   UNL     1       6.593   5.417  14.486  0.00  0.00    +0.000 N 
ATOM     13  H   UNL     1       6.123   6.249  14.148  0.00  0.00    +0.000 HD
ENDBRANCH   1  12
BRANCH   3  14
ATOM     14  S   UNL     1       2.960   2.733  16.751  0.00  0.00    +0.000 S 
BRANCH  14  15
ATOM     15  C   UNL     1       1.793   3.867  17.562  0.00  0.00    +0.000 C 
BRANCH  15  16
ATOM     16  C   UNL     1       1.875   3.800  19.073  0.00  0.00    +0.000 A 
ATOM     17  C   UNL     1       1.600   2.579  19.716  0.00  0.00    +0.000 A 
ATOM     18  C   UNL     1       1.639   2.473  21.110  0.00  0.00    +0.000 A 
ATOM     19  C   UNL     1       1.963   3.582  21.885  0.00  0.00    +0.000 A 
ATOM     20  C   UNL     1       2.253   4.796  21.266  0.00  0.00    +0.000 A 
ATOM     21  C   UNL     1       2.213   4.907  19.871  0.00  0.00    +0.000 A 
ATOM     22 CL   UNL     1       2.579   6.453  19.191  0.00  0.00    +0.000 Cl
ENDBRANCH  15  16
ENDBRANCH  14  15
ENDBRANCH   3  14
TORSDOF 4
ENDMDL
MODEL 9
REMARK VINA RESULT:      -6.8      4.485      7.066
REMARK  Name = 
REMARK  5 active torsions:
REMARK  status: ('A' for Active; 'I' for Inactive)
REMARK    1  A    between atoms: C_1  and  N_2
REMARK    2  A    between atoms: N_2  and  C_3
REMARK    3  A    between atoms: C_5  and  S_6
REMARK    4  A    between atoms: S_6  and  C_7
REMARK    5  A    between atoms: C_7  and  C_8
REMARK                            x       y       z     vdW  Elec       q    Type
REMARK                         _______ _______ _______ _____ _____    ______ ____
ROOT
ATOM      1  C   UNL     1       0.942  11.054  18.979  0.00  0.00    +0.000 A 
ATOM      2  N   UNL     1       1.640  10.104  18.334  0.00  0.00    +0.000 NA
ATOM      3  C   UNL     1       1.737   8.899  18.908  0.00  0.00    +0.000 A 
ATOM      4  N   UNL     1       1.239   8.587  20.113  0.00  0.00    +0.000 NA
ATOM      5  C   UNL     1       0.569   9.559  20.765  0.00  0.00    +0.000 A 
ATOM      6  C   UNL     1       0.345  10.816  20.214  0.00  0.00    +0.000 A 
ATOM      7  C   UNL     1      -0.441  11.869  20.947  0.00  0.00    +0.000 C 
ATOM      8  C   UNL     1      -1.293  11.303  22.084  0.00  0.00    +0.000 C 
ATOM      9  C   UNL     1      -0.456  10.372  22.947  0.00  0.00    +0.000 C 
ATOM     10  C   UNL     1       0.027   9.181  22.121  0.00  0.00    +0.000 C 
ENDROOT
BRANCH   1  12
ATOM     11  C   UNL     1       2.132  13.022  18.257  0.00  0.00    +0.000 C 
ATOM     12  N   UNL     1       0.858  12.339  18.406  0.00  0.00    +0.000 N 
ATOM     13  H   UNL     1       0.364  12.286  17.522  0.00  0.00    +0.000 HD
ENDBRANCH   1  12
BRANCH   3  14
ATOM     14  S   UNL     1       2.511   7.582  17.991  0.00  0.00    +0.000 S 
BRANCH  14  15
ATOM     15  C   UNL     1       2.613   6.316  19.293  0.00  0.00    +0.000 C 
BRANCH  15  16
ATOM     16  C   UNL     1       2.612   4.909  18.733  0.00  0.00    +0.000 A 
ATOM     17  C   UNL     1       3.366   4.635  17.576  0.00  0.00    +0.000 A 
ATOM     18  C   UNL     1       3.377   3.358  17.008  0.00  0.00    +0.000 A 
ATOM     19  C   UNL     1       2.644   2.329  17.591  0.00  0.00    +0.000 A 
ATOM     20  C   UNL     1       1.903   2.575  18.744  0.00  0.00    +0.000 A 
ATOM     21  C   UNL     1       1.888   3.854  19.316  0.00  0.00    +0.000 A 
ATOM     22 CL   UNL     1       0.935   4.070  20.741  0.00  0.00    +0.000 Cl
ENDBRANCH  15  16
ENDBRANCH  14  15
ENDBRANCH   3  14
TORSDOF 4
ENDMDL
