MODEL 1
REMARK VINA RESULT:      -8.9      0.000      0.000
REMARK  Name = 
REMARK  3 active torsions:
REMARK  status: ('A' for Active; 'I' for Inactive)
REMARK    1  A    between atoms: C_2  and  C_10
REMARK    2  A    between atoms: N_3  and  C_4
REMARK    3  A    between atoms: C_14  and  C_15
REMARK                            x       y       z     vdW  Elec       q    Type
REMARK                         _______ _______ _______ _____ _____    ______ ____
ROOT
ATOM      1  C   UNL     1       4.081   5.600  17.480  0.00  0.00    +0.000 A 
ATOM      2  C   UNL     1       4.045   4.430  18.238  0.00  0.00    +0.000 A 
ATOM      3  C   UNL     1       3.314   4.406  19.423  0.00  0.00    +0.000 A 
ATOM      4  C   UNL     1       2.628   5.552  19.848  0.00  0.00    +0.000 A 
ATOM      5  C   UNL     1       2.656   6.749  19.110  0.00  0.00    +0.000 A 
ATOM      6  C   UNL     1       3.394   6.746  17.917  0.00  0.00    +0.000 A 
ENDROOT
BRANCH   5   7
ATOM      7  C   UNL     1       1.925   7.952  19.571  0.00  0.00    +0.000 A 
ATOM      8  C   UNL     1       1.622   9.009  18.696  0.00  0.00    +0.000 A 
ATOM      9  C   UNL     1       0.831  10.089  19.104  0.00  0.00    +0.000 A 
ATOM     10  C   UNL     1       0.313  10.144  20.403  0.00  0.00    +0.000 A 
ATOM     11  C   UNL     1      -0.580  11.154  20.794  0.00  0.00    +0.000 A 
ATOM     12  C   UNL     1      -1.084  11.195  22.093  0.00  0.00    +0.000 A 
ATOM     13  C   UNL     1      -0.656  10.262  23.033  0.00  0.00    +0.000 A 
ATOM     14  C   UNL     1       0.226   9.247  22.656  0.00  0.00    +0.000 A 
ATOM     15  C   UNL     1       0.683   9.150  21.331  0.00  0.00    +0.000 A 
ATOM     16  C   UNL     1       1.479   8.072  20.902  0.00  0.00    +0.000 A 
ENDBRANCH   5   7
BRANCH   1  18
ATOM     17  O   UNL     1       5.161   6.838  15.837  0.00  0.00    +0.000 OA
ATOM     18  C   UNL     1       4.888   5.710  16.238  0.00  0.00    +0.000 C 
ATOM     19  N   UNL     1       5.216   4.519  15.612  0.00  0.00    +0.000 N 
ATOM     20  H   UNL     1       4.748   3.679  15.929  0.00  0.00    +0.000 HD
BRANCH  19  21
ATOM     21  C   UNL     1       5.976   4.409  14.425  0.00  0.00    +0.000 A 
ATOM     22  C   UNL     1       7.167   5.105  14.219  0.00  0.00    +0.000 A 
ATOM     23  C   UNL     1       7.799   4.989  12.994  0.00  0.00    +0.000 A 
ATOM     24  N   UNL     1       7.341   4.227  11.983  0.00  0.00    +0.000 NA
ATOM     25  C   UNL     1       6.206   3.536  12.216  0.00  0.00    +0.000 A 
ATOM     26  C   UNL     1       5.504   3.578  13.413  0.00  0.00    +0.000 A 
ENDBRANCH  19  21
ENDBRANCH   1  18
TORSDOF 3
ENDMDL
MODEL 2
REMARK VINA RESULT:      -8.8      0.994      1.161
REMARK  Name = 
REMARK  3 active torsions:
REMARK  status: ('A' for Active; 'I' for Inactive)
REMARK    1  A    between atoms: C_2  and  C_10
REMARK    2  A    between atoms: N_3  and  C_4
REMARK    3  A    between atoms: C_14  and  C_15
REMARK                            x       y       z     vdW  Elec       q    Type
REMARK                         _______ _______ _______ _____ _____    ______ ____
ROOT
ATOM      1  C   UNL     1       4.648   4.532  17.837  0.00  0.00    +0.000 A 
ATOM      2  C   UNL     1       4.398   3.503  18.745  0.00  0.00    +0.000 A 
ATOM      3  C   UNL     1       3.481   3.706  19.772  0.00  0.00    +0.000 A 
ATOM      4  C   UNL     1       2.823   4.938  19.893  0.00  0.00    +0.000 A 
ATOM      5  C   UNL     1       3.065   5.998  19.000  0.00  0.00    +0.000 A 
ATOM      6  C   UNL     1       3.988   5.766  17.969  0.00  0.00    +0.000 A 
ENDROOT
BRANCH   5   7
ATOM      7  C   UNL     1       2.362   7.294  19.139  0.00  0.00    +0.000 A 
ATOM      8  C   UNL     1       2.183   8.155  18.043  0.00  0.00    +0.000 A 
ATOM      9  C   UNL     1       1.417   9.322  18.149  0.00  0.00    +0.000 A 
ATOM     10  C   UNL     1       0.802   9.664  19.359  0.00  0.00    +0.000 A 
ATOM     11  C   UNL     1      -0.067  10.762  19.454  0.00  0.00    +0.000 A 
ATOM     12  C   UNL     1      -0.670  11.089  20.669  0.00  0.00    +0.000 A 
ATOM     13  C   UNL     1      -0.365  10.359  21.814  0.00  0.00    +0.000 A 
ATOM     14  C   UNL     1       0.491   9.259  21.732  0.00  0.00    +0.000 A 
ATOM     15  C   UNL     1       1.046   8.873  20.500  0.00  0.00    +0.000 A 
ATOM     16  C   UNL     1       1.818   7.703  20.372  0.00  0.00    +0.000 A 
ENDBRANCH   5   7
BRANCH   1  18
ATOM     17  O   UNL     1       6.832   4.261  17.089  0.00  0.00    +0.000 OA
ATOM     18  C   UNL     1       5.657   4.400  16.756  0.00  0.00    +0.000 C 
ATOM     19  N   UNL     1       5.183   4.500  15.459  0.00  0.00    +0.000 N 
ATOM     20  H   UNL     1       4.234   4.827  15.332  0.00  0.00    +0.000 HD
BRANCH  19  21
ATOM     21  C   UNL     1       5.979   4.402  14.294  0.00  0.00    +0.000 A 
ATOM     22  C   UNL     1       7.127   5.167  14.093  0.00  0.00    +0.000 A 
ATOM     23  C   UNL     1       7.797   5.053  12.887  0.00  0.00    +0.000 A 
ATOM     24  N   UNL     1       7.414   4.230  11.893  0.00  0.00    +0.000 NA
ATOM     25  C   UNL     1       6.321   3.474  12.122  0.00  0.00    +0.000 A 
ATOM     26  C   UNL     1       5.588   3.509  13.300  0.00  0.00    +0.000 A 
ENDBRANCH  19  21
ENDBRANCH   1  18
TORSDOF 3
ENDMDL
MODEL 3
REMARK VINA RESULT:      -8.5      4.835     10.186
REMARK  Name = 
REMARK  3 active torsions:
REMARK  status: ('A' for Active; 'I' for Inactive)
REMARK    1  A    between atoms: C_2  and  C_10
REMARK    2  A    between atoms: N_3  and  C_4
REMARK    3  A    between atoms: C_14  and  C_15
REMARK                            x       y       z     vdW  Elec       q    Type
REMARK                         _______ _______ _______ _____ _____    ______ ____
ROOT
ATOM      1  C   UNL     1       0.694  10.118  20.536  0.00  0.00    +0.000 A 
ATOM      2  C   UNL     1       0.965  10.836  19.371  0.00  0.00    +0.000 A 
ATOM      3  C   UNL     1       1.579  10.192  18.300  0.00  0.00    +0.000 A 
ATOM      4  C   UNL     1       1.927   8.838  18.399  0.00  0.00    +0.000 A 
ATOM      5  C   UNL     1       1.678   8.093  19.567  0.00  0.00    +0.000 A 
ATOM      6  C   UNL     1       1.051   8.762  20.629  0.00  0.00    +0.000 A 
ENDROOT
BRANCH   5   7
ATOM      7  C   UNL     1       2.050   6.662  19.658  0.00  0.00    +0.000 A 
ATOM      8  C   UNL     1       1.763   5.899  20.802  0.00  0.00    +0.000 A 
ATOM      9  C   UNL     1       2.009   4.522  20.840  0.00  0.00    +0.000 A 
ATOM     10  C   UNL     1       2.547   3.862  19.730  0.00  0.00    +0.000 A 
ATOM     11  C   UNL     1       2.687   2.465  19.705  0.00  0.00    +0.000 A 
ATOM     12  C   UNL     1       3.228   1.824  18.590  0.00  0.00    +0.000 A 
ATOM     13  C   UNL     1       3.689   2.576  17.513  0.00  0.00    +0.000 A 
ATOM     14  C   UNL     1       3.548   3.965  17.522  0.00  0.00    +0.000 A 
ATOM     15  C   UNL     1       2.937   4.617  18.606  0.00  0.00    +0.000 A 
ATOM     16  C   UNL     1       2.682   6.001  18.586  0.00  0.00    +0.000 A 
ENDBRANCH   5   7
BRANCH   1  18
ATOM     17  O   UNL     1       0.418  10.318  22.835  0.00  0.00    +0.000 OA
ATOM     18  C   UNL     1       0.095  10.759  21.735  0.00  0.00    +0.000 C 
ATOM     19  N   UNL     1      -0.821  11.769  21.497  0.00  0.00    +0.000 N 
ATOM     20  H   UNL     1      -1.154  11.885  20.548  0.00  0.00    +0.000 HD
BRANCH  19  21
ATOM     21  C   UNL     1      -1.500  12.501  22.498  0.00  0.00    +0.000 A 
ATOM     22  C   UNL     1      -2.742  12.122  23.005  0.00  0.00    +0.000 A 
ATOM     23  C   UNL     1      -3.360  12.945  23.930  0.00  0.00    +0.000 A 
ATOM     24  N   UNL     1      -2.825  14.093  24.388  0.00  0.00    +0.000 NA
ATOM     25  C   UNL     1      -1.606  14.422  23.911  0.00  0.00    +0.000 A 
ATOM     26  C   UNL     1      -0.902  13.659  22.989  0.00  0.00    +0.000 A 
ENDBRANCH  19  21
ENDBRANCH   1  18
TORSDOF 3
ENDMDL
MODEL 4
REMARK VINA RESULT:      -8.4      1.224      1.477
REMARK  Name = 
REMARK  3 active torsions:
REMARK  status: ('A' for Active; 'I' for Inactive)
REMARK    1  A    between atoms: C_2  and  C_10
REMARK    2  A    between atoms: N_3  and  C_4
REMARK    3  A    between atoms: C_14  and  C_15
REMARK                            x       y       z     vdW  Elec       q    Type
REMARK                         _______ _______ _______ _____ _____    ______ ____
ROOT
ATOM      1  C   UNL     1       3.724   4.630  19.028  0.00  0.00    +0.000 A 
ATOM      2  C   UNL     1       3.241   3.575  19.802  0.00  0.00    +0.000 A 
ATOM      3  C   UNL     1       2.232   3.815  20.731  0.00  0.00    +0.000 A 
ATOM      4  C   UNL     1       1.715   5.108  20.889  0.00  0.00    +0.000 A 
ATOM      5  C   UNL     1       2.192   6.194  20.132  0.00  0.00    +0.000 A 
ATOM      6  C   UNL     1       3.204   5.925  19.198  0.00  0.00    +0.000 A 
ENDROOT
BRANCH   5   7
ATOM      7  C   UNL     1       1.637   7.556  20.309  0.00  0.00    +0.000 A 
ATOM      8  C   UNL     1       1.669   8.504  19.273  0.00  0.00    +0.000 A 
ATOM      9  C   UNL     1       1.039   9.747  19.402  0.00  0.00    +0.000 A 
ATOM     10  C   UNL     1       0.353  10.081  20.575  0.00  0.00    +0.000 A 
ATOM     11  C   UNL     1      -0.385  11.271  20.678  0.00  0.00    +0.000 A 
ATOM     12  C   UNL     1      -1.062  11.588  21.856  0.00  0.00    +0.000 A 
ATOM     13  C   UNL     1      -0.958  10.751  22.963  0.00  0.00    +0.000 A 
ATOM     14  C   UNL     1      -0.234   9.561  22.871  0.00  0.00    +0.000 A 
ATOM     15  C   UNL     1       0.389   9.192  21.667  0.00  0.00    +0.000 A 
ATOM     16  C   UNL     1       1.027   7.946  21.518  0.00  0.00    +0.000 A 
ENDBRANCH   5   7
BRANCH   1  18
ATOM     17  O   UNL     1       5.917   4.068  18.505  0.00  0.00    +0.000 OA
ATOM     18  C   UNL     1       4.838   4.454  18.062  0.00  0.00    +0.000 C 
ATOM     19  N   UNL     1       4.570   4.796  16.748  0.00  0.00    +0.000 N 
ATOM     20  H   UNL     1       3.713   5.301  16.561  0.00  0.00    +0.000 HD
BRANCH  19  21
ATOM     21  C   UNL     1       5.492   4.700  15.681  0.00  0.00    +0.000 A 
ATOM     22  C   UNL     1       6.683   5.424  15.640  0.00  0.00    +0.000 A 
ATOM     23  C   UNL     1       7.485   5.320  14.517  0.00  0.00    +0.000 A 
ATOM     24  N   UNL     1       7.193   4.543  13.457  0.00  0.00    +0.000 NA
ATOM     25  C   UNL     1       6.053   3.824  13.533  0.00  0.00    +0.000 A 
ATOM     26  C   UNL     1       5.189   3.853  14.619  0.00  0.00    +0.000 A 
ENDBRANCH  19  21
ENDBRANCH   1  18
TORSDOF 3
ENDMDL
MODEL 5
REMARK VINA RESULT:      -8.4      0.696      1.690
REMARK  Name = 
REMARK  3 active torsions:
REMARK  status: ('A' for Active; 'I' for Inactive)
REMARK    1  A    between atoms: C_2  and  C_10
REMARK    2  A    between atoms: N_3  and  C_4
REMARK    3  A    between atoms: C_14  and  C_15
REMARK                            x       y       z     vdW  Elec       q    Type
REMARK                         _______ _______ _______ _____ _____    ______ ____
ROOT
ATOM      1  C   UNL     1       4.339   5.435  17.472  0.00  0.00    +0.000 A 
ATOM      2  C   UNL     1       4.519   4.301  18.264  0.00  0.00    +0.000 A 
ATOM      3  C   UNL     1       3.884   4.224  19.500  0.00  0.00    +0.000 A 
ATOM      4  C   UNL     1       3.077   5.281  19.943  0.00  0.00    +0.000 A 
ATOM      5  C   UNL     1       2.889   6.443  19.172  0.00  0.00    +0.000 A 
ATOM      6  C   UNL     1       3.534   6.494  17.927  0.00  0.00    +0.000 A 
ENDROOT
BRANCH   5   7
ATOM      7  C   UNL     1       2.034   7.553  19.652  0.00  0.00    +0.000 A 
ATOM      8  C   UNL     1       1.471   7.544  20.940  0.00  0.00    +0.000 A 
ATOM      9  C   UNL     1       0.763   8.645  21.434  0.00  0.00    +0.000 A 
ATOM     10  C   UNL     1       0.597   9.795  20.654  0.00  0.00    +0.000 A 
ATOM     11  C   UNL     1      -0.003  10.953  21.174  0.00  0.00    +0.000 A 
ATOM     12  C   UNL     1      -0.161  12.090  20.382  0.00  0.00    +0.000 A 
ATOM     13  C   UNL     1       0.224  12.063  19.044  0.00  0.00    +0.000 A 
ATOM     14  C   UNL     1       0.829  10.921  18.517  0.00  0.00    +0.000 A 
ATOM     15  C   UNL     1       1.064   9.795  19.324  0.00  0.00    +0.000 A 
ATOM     16  C   UNL     1       1.774   8.678  18.846  0.00  0.00    +0.000 A 
ENDBRANCH   5   7
BRANCH   1  18
ATOM     17  O   UNL     1       5.096   6.741  15.705  0.00  0.00    +0.000 OA
ATOM     18  C   UNL     1       5.035   5.606  16.171  0.00  0.00    +0.000 C 
ATOM     19  N   UNL     1       5.507   4.451  15.571  0.00  0.00    +0.000 N 
ATOM     20  H   UNL     1       5.202   3.566  15.956  0.00  0.00    +0.000 HD
BRANCH  19  21
ATOM     21  C   UNL     1       6.194   4.400  14.337  0.00  0.00    +0.000 A 
ATOM     22  C   UNL     1       7.334   5.158  14.071  0.00  0.00    +0.000 A 
ATOM     23  C   UNL     1       7.892   5.096  12.806  0.00  0.00    +0.000 A 
ATOM     24  N   UNL     1       7.408   4.330  11.811  0.00  0.00    +0.000 NA
ATOM     25  C   UNL     1       6.325   3.578  12.100  0.00  0.00    +0.000 A 
ATOM     26  C   UNL     1       5.700   3.564  13.339  0.00  0.00    +0.000 A 
ENDBRANCH  19  21
ENDBRANCH   1  18
TORSDOF 3
ENDMDL
MODEL 6
REMARK VINA RESULT:      -8.3      2.877      9.009
REMARK  Name = 
REMARK  3 active torsions:
REMARK  status: ('A' for Active; 'I' for Inactive)
REMARK    1  A    between atoms: C_2  and  C_10
REMARK    2  A    between atoms: N_3  and  C_4
REMARK    3  A    between atoms: C_14  and  C_15
REMARK                            x       y       z     vdW  Elec       q    Type
REMARK                         _______ _______ _______ _____ _____    ______ ____
ROOT
ATOM      1  C   UNL     1       2.854   4.901  19.809  0.00  0.00    +0.000 A 
ATOM      2  C   UNL     1       2.971   3.651  20.416  0.00  0.00    +0.000 A 
ATOM      3  C   UNL     1       3.819   2.698  19.859  0.00  0.00    +0.000 A 
ATOM      4  C   UNL     1       4.541   2.995  18.695  0.00  0.00    +0.000 A 
ATOM      5  C   UNL     1       4.432   4.242  18.053  0.00  0.00    +0.000 A 
ATOM      6  C   UNL     1       3.577   5.188  18.638  0.00  0.00    +0.000 A 
ENDROOT
BRANCH   5   7
ATOM      7  C   UNL     1       5.201   4.542  16.824  0.00  0.00    +0.000 A 
ATOM      8  C   UNL     1       6.313   5.402  16.842  0.00  0.00    +0.000 A 
ATOM      9  C   UNL     1       7.107   5.592  15.706  0.00  0.00    +0.000 A 
ATOM     10  C   UNL     1       6.816   4.922  14.512  0.00  0.00    +0.000 A 
ATOM     11  C   UNL     1       7.669   5.003  13.400  0.00  0.00    +0.000 A 
ATOM     12  C   UNL     1       7.362   4.330  12.217  0.00  0.00    +0.000 A 
ATOM     13  C   UNL     1       6.171   3.618  12.113  0.00  0.00    +0.000 A 
ATOM     14  C   UNL     1       5.319   3.521  13.214  0.00  0.00    +0.000 A 
ATOM     15  C   UNL     1       5.652   4.132  14.435  0.00  0.00    +0.000 A 
ATOM     16  C   UNL     1       4.866   3.953  15.589  0.00  0.00    +0.000 A 
ENDBRANCH   5   7
BRANCH   1  18
ATOM     17  O   UNL     1       0.884   5.559  20.852  0.00  0.00    +0.000 OA
ATOM     18  C   UNL     1       1.923   5.940  20.319  0.00  0.00    +0.000 C 
ATOM     19  N   UNL     1       2.290   7.256  20.095  0.00  0.00    +0.000 N 
ATOM     20  H   UNL     1       3.058   7.425  19.458  0.00  0.00    +0.000 HD
BRANCH  19  21
ATOM     21  C   UNL     1       1.544   8.386  20.500  0.00  0.00    +0.000 A 
ATOM     22  C   UNL     1       1.256   8.667  21.835  0.00  0.00    +0.000 A 
ATOM     23  C   UNL     1       0.455   9.757  22.126  0.00  0.00    +0.000 A 
ATOM     24  N   UNL     1      -0.056  10.581  21.192  0.00  0.00    +0.000 NA
ATOM     25  C   UNL     1       0.264  10.312  19.910  0.00  0.00    +0.000 A 
ATOM     26  C   UNL     1       1.067   9.250  19.518  0.00  0.00    +0.000 A 
ENDBRANCH  19  21
ENDBRANCH   1  18
TORSDOF 3
ENDMDL
MODEL 7
REMARK VINA RESULT:      -8.2      5.035     10.071
REMARK  Name = 
REMARK  3 active torsions:
REMARK  status: ('A' for Active; 'I' for Inactive)
REMARK    1  A    between atoms: C_2  and  C_10
REMARK    2  A    between atoms: N_3  and  C_4
REMARK    3  A    between atoms: C_14  and  C_15
REMARK                            x       y       z     vdW  Elec       q    Type
REMARK                         _______ _______ _______ _____ _____    ______ ____
ROOT
ATOM      1  C   UNL     1       0.639  10.537  20.426  0.00  0.00    +0.000 A 
ATOM      2  C   UNL     1       0.901  11.384  19.350  0.00  0.00    +0.000 A 
ATOM      3  C   UNL     1       1.567  10.885  18.234  0.00  0.00    +0.000 A 
ATOM      4  C   UNL     1       1.975   9.544  18.200  0.00  0.00    +0.000 A 
ATOM      5  C   UNL     1       1.735   8.670  19.276  0.00  0.00    +0.000 A 
ATOM      6  C   UNL     1       1.056   9.195  20.386  0.00  0.00    +0.000 A 
ENDROOT
BRANCH   5   7
ATOM      7  C   UNL     1       2.171   7.255  19.227  0.00  0.00    +0.000 A 
ATOM      8  C   UNL     1       2.985   6.772  18.189  0.00  0.00    +0.000 A 
ATOM      9  C   UNL     1       3.492   5.467  18.207  0.00  0.00    +0.000 A 
ATOM     10  C   UNL     1       3.201   4.604  19.269  0.00  0.00    +0.000 A 
ATOM     11  C   UNL     1       3.797   3.336  19.366  0.00  0.00    +0.000 A 
ATOM     12  C   UNL     1       3.494   2.487  20.432  0.00  0.00    +0.000 A 
ATOM     13  C   UNL     1       2.549   2.872  21.378  0.00  0.00    +0.000 A 
ATOM     14  C   UNL     1       1.956   4.133  21.298  0.00  0.00    +0.000 A 
ATOM     15  C   UNL     1       2.308   5.027  20.273  0.00  0.00    +0.000 A 
ATOM     16  C   UNL     1       1.809   6.343  20.238  0.00  0.00    +0.000 A 
ENDBRANCH   5   7
BRANCH   1  18
ATOM     17  O   UNL     1       0.258  10.440  22.716  0.00  0.00    +0.000 OA
ATOM     18  C   UNL     1      -0.015  11.021  21.669  0.00  0.00    +0.000 C 
ATOM     19  N   UNL     1      -0.921  12.057  21.521  0.00  0.00    +0.000 N 
ATOM     20  H   UNL     1      -1.210  12.296  20.581  0.00  0.00    +0.000 HD
BRANCH  19  21
ATOM     21  C   UNL     1      -1.645  12.657  22.577  0.00  0.00    +0.000 A 
ATOM     22  C   UNL     1      -2.856  12.153  23.050  0.00  0.00    +0.000 A 
ATOM     23  C   UNL     1      -3.527  12.854  24.037  0.00  0.00    +0.000 A 
ATOM     24  N   UNL     1      -3.071  13.996  24.585  0.00  0.00    +0.000 NA
ATOM     25  C   UNL     1      -1.881  14.448  24.138  0.00  0.00    +0.000 A 
ATOM     26  C   UNL     1      -1.129  13.812  23.160  0.00  0.00    +0.000 A 
ENDBRANCH  19  21
ENDBRANCH   1  18
TORSDOF 3
ENDMDL
MODEL 8
REMARK VINA RESULT:      -8.2      1.293      2.157
REMARK  Name = 
REMARK  3 active torsions:
REMARK  status: ('A' for Active; 'I' for Inactive)
REMARK    1  A    between atoms: C_2  and  C_10
REMARK    2  A    between atoms: N_3  and  C_4
REMARK    3  A    between atoms: C_14  and  C_15
REMARK                            x       y       z     vdW  Elec       q    Type
REMARK                         _______ _______ _______ _____ _____    ______ ____
ROOT
ATOM      1  C   UNL     1       4.525   4.178  17.823  0.00  0.00    +0.000 A 
ATOM      2  C   UNL     1       4.225   2.998  18.503  0.00  0.00    +0.000 A 
ATOM      3  C   UNL     1       3.274   3.019  19.519  0.00  0.00    +0.000 A 
ATOM      4  C   UNL     1       2.632   4.218  19.857  0.00  0.00    +0.000 A 
ATOM      5  C   UNL     1       2.924   5.426  19.198  0.00  0.00    +0.000 A 
ATOM      6  C   UNL     1       3.881   5.378  18.172  0.00  0.00    +0.000 A 
ENDROOT
BRANCH   5   7
ATOM      7  C   UNL     1       2.238   6.687  19.565  0.00  0.00    +0.000 A 
ATOM      8  C   UNL     1       1.610   6.846  20.811  0.00  0.00    +0.000 A 
ATOM      9  C   UNL     1       1.066   8.075  21.202  0.00  0.00    +0.000 A 
ATOM     10  C   UNL     1       1.137   9.188  20.356  0.00  0.00    +0.000 A 
ATOM     11  C   UNL     1       0.707  10.456  20.776  0.00  0.00    +0.000 A 
ATOM     12  C   UNL     1       0.784  11.554  19.919  0.00  0.00    +0.000 A 
ATOM     13  C   UNL     1       1.235  11.385  18.613  0.00  0.00    +0.000 A 
ATOM     14  C   UNL     1       1.673  10.131  18.185  0.00  0.00    +0.000 A 
ATOM     15  C   UNL     1       1.672   9.032  19.061  0.00  0.00    +0.000 A 
ATOM     16  C   UNL     1       2.214   7.789  18.687  0.00  0.00    +0.000 A 
ENDBRANCH   5   7
BRANCH   1  18
ATOM     17  O   UNL     1       6.740   4.325  17.136  0.00  0.00    +0.000 OA
ATOM     18  C   UNL     1       5.571   4.236  16.770  0.00  0.00    +0.000 C 
ATOM     19  N   UNL     1       5.123   4.240  15.460  0.00  0.00    +0.000 N 
ATOM     20  H   UNL     1       4.133   4.380  15.305  0.00  0.00    +0.000 HD
BRANCH  19  21
ATOM     21  C   UNL     1       5.956   4.290  14.319  0.00  0.00    +0.000 A 
ATOM     22  C   UNL     1       7.070   5.123  14.228  0.00  0.00    +0.000 A 
ATOM     23  C   UNL     1       7.779   5.157  13.040  0.00  0.00    +0.000 A 
ATOM     24  N   UNL     1       7.466   4.416  11.960  0.00  0.00    +0.000 NA
ATOM     25  C   UNL     1       6.405   3.591  12.082  0.00  0.00    +0.000 A 
ATOM     26  C   UNL     1       5.638   3.479  13.233  0.00  0.00    +0.000 A 
ENDBRANCH  19  21
ENDBRANCH   1  18
TORSDOF 3
ENDMDL
MODEL 9
REMARK VINA RESULT:      -8.1      2.986      9.372
REMARK  Name = 
REMARK  3 active torsions:
REMARK  status: ('A' for Active; 'I' for Inactive)
REMARK    1  A    between atoms: C_2  and  C_10
REMARK    2  A    between atoms: N_3  and  C_4
REMARK    3  A    between atoms: C_14  and  C_15
REMARK                            x       y       z     vdW  Elec       q    Type
REMARK                         _______ _______ _______ _____ _____    ______ ____
ROOT
ATOM      1  C   UNL     1       2.648   6.490  19.422  0.00  0.00    +0.000 A 
ATOM      2  C   UNL     1       2.479   5.340  20.192  0.00  0.00    +0.000 A 
ATOM      3  C   UNL     1       3.131   4.168  19.820  0.00  0.00    +0.000 A 
ATOM      4  C   UNL     1       3.942   4.146  18.677  0.00  0.00    +0.000 A 
ATOM      5  C   UNL     1       4.120   5.287  17.874  0.00  0.00    +0.000 A 
ATOM      6  C   UNL     1       3.459   6.459  18.274  0.00  0.00    +0.000 A 
ENDROOT
BRANCH   5   7
ATOM      7  C   UNL     1       4.980   5.251  16.669  0.00  0.00    +0.000 A 
ATOM      8  C   UNL     1       6.222   5.907  16.631  0.00  0.00    +0.000 A 
ATOM      9  C   UNL     1       7.085   5.774  15.538  0.00  0.00    +0.000 A 
ATOM     10  C   UNL     1       6.733   4.975  14.445  0.00  0.00    +0.000 A 
ATOM     11  C   UNL     1       7.633   4.731  13.395  0.00  0.00    +0.000 A 
ATOM     12  C   UNL     1       7.264   3.933  12.312  0.00  0.00    +0.000 A 
ATOM     13  C   UNL     1       5.973   3.419  12.237  0.00  0.00    +0.000 A 
ATOM     14  C   UNL     1       5.071   3.646  13.278  0.00  0.00    +0.000 A 
ATOM     15  C   UNL     1       5.453   4.385  14.410  0.00  0.00    +0.000 A 
ATOM     16  C   UNL     1       4.600   4.530  15.520  0.00  0.00    +0.000 A 
ENDBRANCH   5   7
BRANCH   1  18
ATOM     17  O   UNL     1       1.799   8.567  18.817  0.00  0.00    +0.000 OA
ATOM     18  C   UNL     1       1.935   7.756  19.729  0.00  0.00    +0.000 C 
ATOM     19  N   UNL     1       1.534   7.931  21.043  0.00  0.00    +0.000 N 
ATOM     20  H   UNL     1       1.898   7.286  21.733  0.00  0.00    +0.000 HD
BRANCH  19  21
ATOM     21  C   UNL     1       0.845   9.062  21.537  0.00  0.00    +0.000 A 
ATOM     22  C   UNL     1       0.945  10.325  20.957  0.00  0.00    +0.000 A 
ATOM     23  C   UNL     1       0.290  11.386  21.558  0.00  0.00    +0.000 A 
ATOM     24  N   UNL     1      -0.458  11.270  22.671  0.00  0.00    +0.000 NA
ATOM     25  C   UNL     1      -0.570  10.032  23.197  0.00  0.00    +0.000 A 
ATOM     26  C   UNL     1       0.039   8.905  22.662  0.00  0.00    +0.000 A 
ENDBRANCH  19  21
ENDBRANCH   1  18
TORSDOF 3
ENDMDL
