MODEL 1
REMARK VINA RESULT:      -7.7      0.000      0.000
REMARK  Name = 
REMARK  4 active torsions:
REMARK  status: ('A' for Active; 'I' for Inactive)
REMARK    1  A    between atoms: C_2  and  C_3
REMARK    2  A    between atoms: C_3  and  N_4
REMARK    3  A    between atoms: C_5  and  C_6
REMARK    4  A    between atoms: N_18  and  C_19
REMARK                            x       y       z     vdW  Elec       q    Type
REMARK                         _______ _______ _______ _____ _____    ______ ____
ROOT
ATOM      1  N   UNL     1       4.231   5.686  18.343  0.00  0.00    +0.000 N 
ATOM      2  C   UNL     1       4.297   4.683  19.286  0.00  0.00    +0.000 A 
ATOM      3  N   UNL     1       5.534   4.541  19.734  0.00  0.00    +0.000 NA
ATOM      4  C   UNL     1       6.280   5.478  19.075  0.00  0.00    +0.000 A 
ATOM      5  C   UNL     1       7.651   5.766  19.195  0.00  0.00    +0.000 A 
ATOM      6  C   UNL     1       8.197   6.795  18.421  0.00  0.00    +0.000 A 
ATOM      7  C   UNL     1       7.397   7.520  17.539  0.00  0.00    +0.000 A 
ATOM      8  C   UNL     1       6.031   7.244  17.401  0.00  0.00    +0.000 A 
ATOM      9  C   UNL     1       5.500   6.214  18.189  0.00  0.00    +0.000 A 
ENDROOT
BRANCH   2  10
ATOM     10  C   UNL     1       3.162   3.832  19.772  0.00  0.00    +0.000 A 
ATOM     11  C   UNL     1       2.544   4.053  20.988  0.00  0.00    +0.000 A 
ATOM     12  S   UNL     1       1.365   2.841  21.275  0.00  0.00    +0.000 S 
ATOM     13  C   UNL     1       1.758   2.136  19.763  0.00  0.00    +0.000 A 
ATOM     14  N   UNL     1       2.656   2.771  19.042  0.00  0.00    +0.000 NA
ENDBRANCH   2  10
BRANCH   1  15
ATOM     15  C   UNL     1       3.034   6.201  17.701  0.00  0.00    +0.000 C 
BRANCH  15  17
ATOM     16  O   UNL     1       2.357   7.449  19.654  0.00  0.00    +0.000 OA
ATOM     17  C   UNL     1       2.427   7.391  18.430  0.00  0.00    +0.000 C 
ATOM     18  N   UNL     1       1.961   8.387  17.575  0.00  0.00    +0.000 N 
ATOM     19  H   UNL     1       1.764   8.128  16.617  0.00  0.00    +0.000 HD
BRANCH  18  20
ATOM     20  C   UNL     1       1.480   9.649  17.989  0.00  0.00    +0.000 A 
ATOM     21  C   UNL     1       2.308  10.768  18.142  0.00  0.00    +0.000 A 
ATOM     22  C   UNL     1       1.788  11.979  18.606  0.00  0.00    +0.000 A 
ATOM     23  C   UNL     1       0.438  12.071  18.910  0.00  0.00    +0.000 A 
ATOM     24  F   UNL     1      -0.056  13.221  19.388  0.00  0.00    +0.000 F 
ATOM     25  C   UNL     1      -0.409  10.984  18.725  0.00  0.00    +0.000 A 
ATOM     26  C   UNL     1       0.109   9.777  18.248  0.00  0.00    +0.000 A 
ENDBRANCH  18  20
ENDBRANCH  15  17
ENDBRANCH   1  15
TORSDOF 4
ENDMDL
MODEL 2
REMARK VINA RESULT:      -7.7      1.659      1.782
REMARK  Name = 
REMARK  4 active torsions:
REMARK  status: ('A' for Active; 'I' for Inactive)
REMARK    1  A    between atoms: C_2  and  C_3
REMARK    2  A    between atoms: C_3  and  N_4
REMARK    3  A    between atoms: C_5  and  C_6
REMARK    4  A    between atoms: N_18  and  C_19
REMARK                            x       y       z     vdW  Elec       q    Type
REMARK                         _______ _______ _______ _____ _____    ______ ____
ROOT
ATOM      1  N   UNL     1       4.285   5.656  18.281  0.00  0.00    +0.000 N 
ATOM      2  C   UNL     1       4.325   4.683  19.256  0.00  0.00    +0.000 A 
ATOM      3  N   UNL     1       5.547   4.565  19.751  0.00  0.00    +0.000 NA
ATOM      4  C   UNL     1       6.309   5.488  19.089  0.00  0.00    +0.000 A 
ATOM      5  C   UNL     1       7.672   5.792  19.248  0.00  0.00    +0.000 A 
ATOM      6  C   UNL     1       8.237   6.802  18.462  0.00  0.00    +0.000 A 
ATOM      7  C   UNL     1       7.463   7.493  17.532  0.00  0.00    +0.000 A 
ATOM      8  C   UNL     1       6.104   7.201  17.355  0.00  0.00    +0.000 A 
ATOM      9  C   UNL     1       5.554   6.191  18.155  0.00  0.00    +0.000 A 
ENDROOT
BRANCH   2  10
ATOM     10  C   UNL     1       3.181   3.837  19.728  0.00  0.00    +0.000 A 
ATOM     11  C   UNL     1       2.533   4.077  20.925  0.00  0.00    +0.000 A 
ATOM     12  S   UNL     1       1.350   2.866  21.203  0.00  0.00    +0.000 S 
ATOM     13  C   UNL     1       1.782   2.137  19.713  0.00  0.00    +0.000 A 
ATOM     14  N   UNL     1       2.696   2.763  19.004  0.00  0.00    +0.000 NA
ENDBRANCH   2  10
BRANCH   1  15
ATOM     15  C   UNL     1       3.107   6.141  17.583  0.00  0.00    +0.000 C 
BRANCH  15  17
ATOM     16  O   UNL     1       2.612   8.500  17.450  0.00  0.00    +0.000 OA
ATOM     17  C   UNL     1       2.597   7.471  18.118  0.00  0.00    +0.000 C 
ATOM     18  N   UNL     1       2.128   7.400  19.428  0.00  0.00    +0.000 N 
ATOM     19  H   UNL     1       2.443   6.624  19.997  0.00  0.00    +0.000 HD
BRANCH  18  20
ATOM     20  C   UNL     1       1.479   8.450  20.114  0.00  0.00    +0.000 A 
ATOM     21  C   UNL     1       0.964   9.579  19.466  0.00  0.00    +0.000 A 
ATOM     22  C   UNL     1       0.377  10.614  20.200  0.00  0.00    +0.000 A 
ATOM     23  C   UNL     1       0.302  10.514  21.581  0.00  0.00    +0.000 A 
ATOM     24  F   UNL     1      -0.227  11.520  22.290  0.00  0.00    +0.000 F 
ATOM     25  C   UNL     1       0.770   9.383  22.239  0.00  0.00    +0.000 A 
ATOM     26  C   UNL     1       1.343   8.342  21.504  0.00  0.00    +0.000 A 
ENDBRANCH  18  20
ENDBRANCH  15  17
ENDBRANCH   1  15
TORSDOF 4
ENDMDL
MODEL 3
REMARK VINA RESULT:      -7.5      4.721      6.623
REMARK  Name = 
REMARK  4 active torsions:
REMARK  status: ('A' for Active; 'I' for Inactive)
REMARK    1  A    between atoms: C_2  and  C_3
REMARK    2  A    between atoms: C_3  and  N_4
REMARK    3  A    between atoms: C_5  and  C_6
REMARK    4  A    between atoms: N_18  and  C_19
REMARK                            x       y       z     vdW  Elec       q    Type
REMARK                         _______ _______ _______ _____ _____    ______ ____
ROOT
ATOM      1  N   UNL     1       5.539   4.884  15.190  0.00  0.00    +0.000 N 
ATOM      2  C   UNL     1       6.851   5.087  15.563  0.00  0.00    +0.000 A 
ATOM      3  N   UNL     1       7.678   4.628  14.637  0.00  0.00    +0.000 NA
ATOM      4  C   UNL     1       6.885   4.128  13.642  0.00  0.00    +0.000 A 
ATOM      5  C   UNL     1       7.258   3.543  12.419  0.00  0.00    +0.000 A 
ATOM      6  C   UNL     1       6.257   3.116  11.539  0.00  0.00    +0.000 A 
ATOM      7  C   UNL     1       4.912   3.265  11.871  0.00  0.00    +0.000 A 
ATOM      8  C   UNL     1       4.520   3.840  13.087  0.00  0.00    +0.000 A 
ATOM      9  C   UNL     1       5.536   4.267  13.953  0.00  0.00    +0.000 A 
ENDROOT
BRANCH   2  10
ATOM     10  C   UNL     1       7.335   5.725  16.830  0.00  0.00    +0.000 A 
ATOM     11  C   UNL     1       7.510   5.006  17.997  0.00  0.00    +0.000 A 
ATOM     12  S   UNL     1       7.970   6.060  19.270  0.00  0.00    +0.000 S 
ATOM     13  C   UNL     1       7.916   7.373  18.170  0.00  0.00    +0.000 A 
ATOM     14  N   UNL     1       7.639   7.072  16.920  0.00  0.00    +0.000 NA
ENDBRANCH   2  10
BRANCH   1  15
ATOM     15  C   UNL     1       4.353   5.341  15.893  0.00  0.00    +0.000 C 
BRANCH  15  17
ATOM     16  O   UNL     1       4.457   3.319  17.207  0.00  0.00    +0.000 OA
ATOM     17  C   UNL     1       3.922   4.406  17.013  0.00  0.00    +0.000 C 
ATOM     18  N   UNL     1       2.869   4.903  17.777  0.00  0.00    +0.000 N 
ATOM     19  H   UNL     1       2.292   5.625  17.365  0.00  0.00    +0.000 HD
BRANCH  18  20
ATOM     20  C   UNL     1       2.369   4.303  18.954  0.00  0.00    +0.000 A 
ATOM     21  C   UNL     1       2.767   4.695  20.238  0.00  0.00    +0.000 A 
ATOM     22  C   UNL     1       2.280   4.030  21.367  0.00  0.00    +0.000 A 
ATOM     23  C   UNL     1       1.390   2.978  21.210  0.00  0.00    +0.000 A 
ATOM     24  F   UNL     1       0.949   2.317  22.288  0.00  0.00    +0.000 F 
ATOM     25  C   UNL     1       0.951   2.601  19.946  0.00  0.00    +0.000 A 
ATOM     26  C   UNL     1       1.426   3.275  18.818  0.00  0.00    +0.000 A 
ENDBRANCH  18  20
ENDBRANCH  15  17
ENDBRANCH   1  15
TORSDOF 4
ENDMDL
MODEL 4
REMARK VINA RESULT:      -7.4      1.800      2.002
REMARK  Name = 
REMARK  4 active torsions:
REMARK  status: ('A' for Active; 'I' for Inactive)
REMARK    1  A    between atoms: C_2  and  C_3
REMARK    2  A    between atoms: C_3  and  N_4
REMARK    3  A    between atoms: C_5  and  C_6
REMARK    4  A    between atoms: N_18  and  C_19
REMARK                            x       y       z     vdW  Elec       q    Type
REMARK                         _______ _______ _______ _____ _____    ______ ____
ROOT
ATOM      1  N   UNL     1       4.296   5.782  18.260  0.00  0.00    +0.000 N 
ATOM      2  C   UNL     1       4.283   4.824  19.251  0.00  0.00    +0.000 A 
ATOM      3  N   UNL     1       5.490   4.674  19.773  0.00  0.00    +0.000 NA
ATOM      4  C   UNL     1       6.296   5.560  19.113  0.00  0.00    +0.000 A 
ATOM      5  C   UNL     1       7.665   5.821  19.296  0.00  0.00    +0.000 A 
ATOM      6  C   UNL     1       8.280   6.798  18.506  0.00  0.00    +0.000 A 
ATOM      7  C   UNL     1       7.549   7.499  17.549  0.00  0.00    +0.000 A 
ATOM      8  C   UNL     1       6.185   7.249  17.348  0.00  0.00    +0.000 A 
ATOM      9  C   UNL     1       5.585   6.272  18.152  0.00  0.00    +0.000 A 
ENDROOT
BRANCH   2  10
ATOM     10  C   UNL     1       3.101   4.026  19.712  0.00  0.00    +0.000 A 
ATOM     11  C   UNL     1       2.778   2.803  19.158  0.00  0.00    +0.000 A 
ATOM     12  S   UNL     1       1.318   2.217  19.843  0.00  0.00    +0.000 S 
ATOM     13  C   UNL     1       1.245   3.620  20.825  0.00  0.00    +0.000 A 
ATOM     14  N   UNL     1       2.255   4.455  20.720  0.00  0.00    +0.000 NA
ENDBRANCH   2  10
BRANCH   1  15
ATOM     15  C   UNL     1       3.149   6.295  17.529  0.00  0.00    +0.000 C 
BRANCH  15  17
ATOM     16  O   UNL     1       2.513   8.623  17.476  0.00  0.00    +0.000 OA
ATOM     17  C   UNL     1       2.588   7.580  18.119  0.00  0.00    +0.000 C 
ATOM     18  N   UNL     1       2.184   7.453  19.446  0.00  0.00    +0.000 N 
ATOM     19  H   UNL     1       2.569   6.684  19.981  0.00  0.00    +0.000 HD
BRANCH  18  20
ATOM     20  C   UNL     1       1.506   8.447  20.185  0.00  0.00    +0.000 A 
ATOM     21  C   UNL     1       1.354   8.393  21.576  0.00  0.00    +0.000 A 
ATOM     22  C   UNL     1       0.629   9.378  22.251  0.00  0.00    +0.000 A 
ATOM     23  C   UNL     1       0.061  10.421  21.533  0.00  0.00    +0.000 A 
ATOM     24  F   UNL     1      -0.665  11.347  22.173  0.00  0.00    +0.000 F 
ATOM     25  C   UNL     1       0.236  10.515  20.157  0.00  0.00    +0.000 A 
ATOM     26  C   UNL     1       0.974   9.538  19.484  0.00  0.00    +0.000 A 
ENDBRANCH  18  20
ENDBRANCH  15  17
ENDBRANCH   1  15
TORSDOF 4
ENDMDL
MODEL 5
REMARK VINA RESULT:      -7.3      4.908      7.546
REMARK  Name = 
REMARK  4 active torsions:
REMARK  status: ('A' for Active; 'I' for Inactive)
REMARK    1  A    between atoms: C_2  and  C_3
REMARK    2  A    between atoms: C_3  and  N_4
REMARK    3  A    between atoms: C_5  and  C_6
REMARK    4  A    between atoms: N_18  and  C_19
REMARK                            x       y       z     vdW  Elec       q    Type
REMARK                         _______ _______ _______ _____ _____    ______ ____
ROOT
ATOM      1  N   UNL     1       4.127   3.840  18.436  0.00  0.00    +0.000 N 
ATOM      2  C   UNL     1       4.588   4.953  19.105  0.00  0.00    +0.000 A 
ATOM      3  N   UNL     1       3.691   5.380  19.980  0.00  0.00    +0.000 NA
ATOM      4  C   UNL     1       2.633   4.518  19.881  0.00  0.00    +0.000 A 
ATOM      5  C   UNL     1       1.427   4.507  20.603  0.00  0.00    +0.000 A 
ATOM      6  C   UNL     1       0.489   3.504  20.339  0.00  0.00    +0.000 A 
ATOM      7  C   UNL     1       0.742   2.533  19.372  0.00  0.00    +0.000 A 
ATOM      8  C   UNL     1       1.936   2.531  18.637  0.00  0.00    +0.000 A 
ATOM      9  C   UNL     1       2.866   3.540  18.920  0.00  0.00    +0.000 A 
ENDROOT
BRANCH   2  10
ATOM     10  C   UNL     1       5.908   5.636  18.908  0.00  0.00    +0.000 A 
ATOM     11  C   UNL     1       6.111   6.573  17.914  0.00  0.00    +0.000 A 
ATOM     12  S   UNL     1       7.753   7.071  17.906  0.00  0.00    +0.000 S 
ATOM     13  C   UNL     1       8.053   6.019  19.225  0.00  0.00    +0.000 A 
ATOM     14  N   UNL     1       7.011   5.375  19.703  0.00  0.00    +0.000 NA
ENDBRANCH   2  10
BRANCH   1  15
ATOM     15  C   UNL     1       4.862   3.032  17.479  0.00  0.00    +0.000 C 
BRANCH  15  17
ATOM     16  O   UNL     1       4.165   4.461  15.663  0.00  0.00    +0.000 OA
ATOM     17  C   UNL     1       5.011   3.698  16.120  0.00  0.00    +0.000 C 
ATOM     18  N   UNL     1       6.185   3.350  15.456  0.00  0.00    +0.000 N 
ATOM     19  H   UNL     1       6.650   2.498  15.742  0.00  0.00    +0.000 HD
BRANCH  18  20
ATOM     20  C   UNL     1       6.633   3.928  14.247  0.00  0.00    +0.000 A 
ATOM     21  C   UNL     1       7.554   4.981  14.201  0.00  0.00    +0.000 A 
ATOM     22  C   UNL     1       7.923   5.550  12.979  0.00  0.00    +0.000 A 
ATOM     23  C   UNL     1       7.373   5.059  11.804  0.00  0.00    +0.000 A 
ATOM     24  F   UNL     1       7.697   5.626  10.634  0.00  0.00    +0.000 F 
ATOM     25  C   UNL     1       6.489   3.987  11.825  0.00  0.00    +0.000 A 
ATOM     26  C   UNL     1       6.132   3.409  13.046  0.00  0.00    +0.000 A 
ENDBRANCH  18  20
ENDBRANCH  15  17
ENDBRANCH   1  15
TORSDOF 4
ENDMDL
MODEL 6
REMARK VINA RESULT:      -7.1      2.078      4.217
REMARK  Name = 
REMARK  4 active torsions:
REMARK  status: ('A' for Active; 'I' for Inactive)
REMARK    1  A    between atoms: C_2  and  C_3
REMARK    2  A    between atoms: C_3  and  N_4
REMARK    3  A    between atoms: C_5  and  C_6
REMARK    4  A    between atoms: N_18  and  C_19
REMARK                            x       y       z     vdW  Elec       q    Type
REMARK                         _______ _______ _______ _____ _____    ______ ____
ROOT
ATOM      1  N   UNL     1       3.227   4.915  18.676  0.00  0.00    +0.000 N 
ATOM      2  C   UNL     1       4.518   4.450  18.544  0.00  0.00    +0.000 A 
ATOM      3  N   UNL     1       4.753   3.468  19.399  0.00  0.00    +0.000 NA
ATOM      4  C   UNL     1       3.587   3.287  20.091  0.00  0.00    +0.000 A 
ATOM      5  C   UNL     1       3.290   2.356  21.101  0.00  0.00    +0.000 A 
ATOM      6  C   UNL     1       2.006   2.346  21.656  0.00  0.00    +0.000 A 
ATOM      7  C   UNL     1       1.038   3.248  21.218  0.00  0.00    +0.000 A 
ATOM      8  C   UNL     1       1.317   4.188  20.217  0.00  0.00    +0.000 A 
ATOM      9  C   UNL     1       2.606   4.179  19.669  0.00  0.00    +0.000 A 
ENDROOT
BRANCH   2  10
ATOM     10  C   UNL     1       5.559   4.952  17.588  0.00  0.00    +0.000 A 
ATOM     11  C   UNL     1       5.846   4.301  16.404  0.00  0.00    +0.000 A 
ATOM     12  S   UNL     1       7.151   5.082  15.608  0.00  0.00    +0.000 S 
ATOM     13  C   UNL     1       7.216   6.221  16.888  0.00  0.00    +0.000 A 
ATOM     14  N   UNL     1       6.303   6.094  17.825  0.00  0.00    +0.000 NA
ENDBRANCH   2  10
BRANCH   1  15
ATOM     15  C   UNL     1       2.571   5.911  17.848  0.00  0.00    +0.000 C 
BRANCH  15  17
ATOM     16  O   UNL     1       2.598   7.385  19.759  0.00  0.00    +0.000 OA
ATOM     17  C   UNL     1       2.311   7.221  18.577  0.00  0.00    +0.000 C 
ATOM     18  N   UNL     1       1.716   8.194  17.778  0.00  0.00    +0.000 N 
ATOM     19  H   UNL     1       1.232   7.884  16.945  0.00  0.00    +0.000 HD
BRANCH  18  20
ATOM     20  C   UNL     1       1.494   9.534  18.164  0.00  0.00    +0.000 A 
ATOM     21  C   UNL     1       2.397  10.568  17.886  0.00  0.00    +0.000 A 
ATOM     22  C   UNL     1       2.151  11.867  18.338  0.00  0.00    +0.000 A 
ATOM     23  C   UNL     1       0.999  12.131  19.063  0.00  0.00    +0.000 A 
ATOM     24  F   UNL     1       0.778  13.368  19.529  0.00  0.00    +0.000 F 
ATOM     25  C   UNL     1       0.070  11.128  19.314  0.00  0.00    +0.000 A 
ATOM     26  C   UNL     1       0.308   9.832  18.849  0.00  0.00    +0.000 A 
ENDBRANCH  18  20
ENDBRANCH  15  17
ENDBRANCH   1  15
TORSDOF 4
ENDMDL
MODEL 7
REMARK VINA RESULT:      -7.0      1.384      1.655
REMARK  Name = 
REMARK  4 active torsions:
REMARK  status: ('A' for Active; 'I' for Inactive)
REMARK    1  A    between atoms: C_2  and  C_3
REMARK    2  A    between atoms: C_3  and  N_4
REMARK    3  A    between atoms: C_5  and  C_6
REMARK    4  A    between atoms: N_18  and  C_19
REMARK                            x       y       z     vdW  Elec       q    Type
REMARK                         _______ _______ _______ _____ _____    ______ ____
ROOT
ATOM      1  N   UNL     1       4.694   5.383  18.053  0.00  0.00    +0.000 N 
ATOM      2  C   UNL     1       4.688   4.479  19.094  0.00  0.00    +0.000 A 
ATOM      3  N   UNL     1       5.829   4.527  19.762  0.00  0.00    +0.000 NA
ATOM      4  C   UNL     1       6.583   5.488  19.149  0.00  0.00    +0.000 A 
ATOM      5  C   UNL     1       7.870   5.949  19.475  0.00  0.00    +0.000 A 
ATOM      6  C   UNL     1       8.440   6.968  18.704  0.00  0.00    +0.000 A 
ATOM      7  C   UNL     1       7.746   7.514  17.626  0.00  0.00    +0.000 A 
ATOM      8  C   UNL     1       6.465   7.063  17.281  0.00  0.00    +0.000 A 
ATOM      9  C   UNL     1       5.907   6.047  18.068  0.00  0.00    +0.000 A 
ENDROOT
BRANCH   2  10
ATOM     10  C   UNL     1       3.577   3.541  19.461  0.00  0.00    +0.000 A 
ATOM     11  C   UNL     1       2.770   3.752  20.562  0.00  0.00    +0.000 A 
ATOM     12  S   UNL     1       1.679   2.441  20.747  0.00  0.00    +0.000 S 
ATOM     13  C   UNL     1       2.354   1.715  19.349  0.00  0.00    +0.000 A 
ATOM     14  N   UNL     1       3.285   2.405  18.728  0.00  0.00    +0.000 NA
ENDBRANCH   2  10
BRANCH   1  15
ATOM     15  C   UNL     1       3.589   5.694  17.162  0.00  0.00    +0.000 C 
BRANCH  15  17
ATOM     16  O   UNL     1       1.339   5.761  18.033  0.00  0.00    +0.000 OA
ATOM     17  C   UNL     1       2.409   6.340  17.873  0.00  0.00    +0.000 C 
ATOM     18  N   UNL     1       2.665   7.638  18.307  0.00  0.00    +0.000 N 
ATOM     19  H   UNL     1       3.424   8.139  17.864  0.00  0.00    +0.000 HD
BRANCH  18  20
ATOM     20  C   UNL     1       1.794   8.410  19.108  0.00  0.00    +0.000 A 
ATOM     21  C   UNL     1       1.574   8.148  20.465  0.00  0.00    +0.000 A 
ATOM     22  C   UNL     1       0.661   8.912  21.198  0.00  0.00    +0.000 A 
ATOM     23  C   UNL     1      -0.026   9.941  20.572  0.00  0.00    +0.000 A 
ATOM     24  F   UNL     1      -0.927  10.652  21.262  0.00  0.00    +0.000 F 
ATOM     25  C   UNL     1       0.209  10.244  19.236  0.00  0.00    +0.000 A 
ATOM     26  C   UNL     1       1.133   9.490  18.507  0.00  0.00    +0.000 A 
ENDBRANCH  18  20
ENDBRANCH  15  17
ENDBRANCH   1  15
TORSDOF 4
ENDMDL
MODEL 8
REMARK VINA RESULT:      -6.9      1.573      1.833
REMARK  Name = 
REMARK  4 active torsions:
REMARK  status: ('A' for Active; 'I' for Inactive)
REMARK    1  A    between atoms: C_2  and  C_3
REMARK    2  A    between atoms: C_3  and  N_4
REMARK    3  A    between atoms: C_5  and  C_6
REMARK    4  A    between atoms: N_18  and  C_19
REMARK                            x       y       z     vdW  Elec       q    Type
REMARK                         _______ _______ _______ _____ _____    ______ ____
ROOT
ATOM      1  N   UNL     1       4.823   5.528  17.863  0.00  0.00    +0.000 N 
ATOM      2  C   UNL     1       4.881   4.505  18.786  0.00  0.00    +0.000 A 
ATOM      3  N   UNL     1       6.029   4.532  19.444  0.00  0.00    +0.000 NA
ATOM      4  C   UNL     1       6.723   5.599  18.943  0.00  0.00    +0.000 A 
ATOM      5  C   UNL     1       7.990   6.084  19.310  0.00  0.00    +0.000 A 
ATOM      6  C   UNL     1       8.495   7.217  18.662  0.00  0.00    +0.000 A 
ATOM      7  C   UNL     1       7.755   7.852  17.666  0.00  0.00    +0.000 A 
ATOM      8  C   UNL     1       6.493   7.379  17.282  0.00  0.00    +0.000 A 
ATOM      9  C   UNL     1       6.002   6.248  17.946  0.00  0.00    +0.000 A 
ENDROOT
BRANCH   2  10
ATOM     10  C   UNL     1       3.826   3.473  19.049  0.00  0.00    +0.000 A 
ATOM     11  C   UNL     1       3.022   3.511  20.171  0.00  0.00    +0.000 A 
ATOM     12  S   UNL     1       2.003   2.131  20.209  0.00  0.00    +0.000 S 
ATOM     13  C   UNL     1       2.700   1.608  18.733  0.00  0.00    +0.000 A 
ATOM     14  N   UNL     1       3.586   2.414  18.191  0.00  0.00    +0.000 NA
ENDBRANCH   2  10
BRANCH   1  15
ATOM     15  C   UNL     1       3.690   5.885  17.029  0.00  0.00    +0.000 C 
BRANCH  15  17
ATOM     16  O   UNL     1       1.502   5.734  18.038  0.00  0.00    +0.000 OA
ATOM     17  C   UNL     1       2.503   6.411  17.822  0.00  0.00    +0.000 C 
ATOM     18  N   UNL     1       2.665   7.723  18.261  0.00  0.00    +0.000 N 
ATOM     19  H   UNL     1       3.346   8.296  17.780  0.00  0.00    +0.000 HD
BRANCH  18  20
ATOM     20  C   UNL     1       1.781   8.401  19.128  0.00  0.00    +0.000 A 
ATOM     21  C   UNL     1       0.989   9.481  18.717  0.00  0.00    +0.000 A 
ATOM     22  C   UNL     1       0.170  10.150  19.630  0.00  0.00    +0.000 A 
ATOM     23  C   UNL     1       0.139   9.734  20.952  0.00  0.00    +0.000 A 
ATOM     24  F   UNL     1      -0.618  10.396  21.838  0.00  0.00    +0.000 F 
ATOM     25  C   UNL     1       0.885   8.639  21.372  0.00  0.00    +0.000 A 
ATOM     26  C   UNL     1       1.693   7.960  20.455  0.00  0.00    +0.000 A 
ENDBRANCH  18  20
ENDBRANCH  15  17
ENDBRANCH   1  15
TORSDOF 4
ENDMDL
MODEL 9
REMARK VINA RESULT:      -6.9      2.464      4.418
REMARK  Name = 
REMARK  4 active torsions:
REMARK  status: ('A' for Active; 'I' for Inactive)
REMARK    1  A    between atoms: C_2  and  C_3
REMARK    2  A    between atoms: C_3  and  N_4
REMARK    3  A    between atoms: C_5  and  C_6
REMARK    4  A    between atoms: N_18  and  C_19
REMARK                            x       y       z     vdW  Elec       q    Type
REMARK                         _______ _______ _______ _____ _____    ______ ____
ROOT
ATOM      1  N   UNL     1       3.233   4.746  18.605  0.00  0.00    +0.000 N 
ATOM      2  C   UNL     1       4.534   4.308  18.478  0.00  0.00    +0.000 A 
ATOM      3  N   UNL     1       4.805   3.375  19.376  0.00  0.00    +0.000 NA
ATOM      4  C   UNL     1       3.653   3.198  20.091  0.00  0.00    +0.000 A 
ATOM      5  C   UNL     1       3.392   2.309  21.148  0.00  0.00    +0.000 A 
ATOM      6  C   UNL     1       2.115   2.293  21.720  0.00  0.00    +0.000 A 
ATOM      7  C   UNL     1       1.118   3.148  21.253  0.00  0.00    +0.000 A 
ATOM      8  C   UNL     1       1.361   4.045  20.205  0.00  0.00    +0.000 A 
ATOM      9  C   UNL     1       2.643   4.043  19.640  0.00  0.00    +0.000 A 
ENDROOT
BRANCH   2  10
ATOM     10  C   UNL     1       5.550   4.790  17.486  0.00  0.00    +0.000 A 
ATOM     11  C   UNL     1       5.773   4.142  16.287  0.00  0.00    +0.000 A 
ATOM     12  S   UNL     1       7.066   4.894  15.446  0.00  0.00    +0.000 S 
ATOM     13  C   UNL     1       7.211   6.021  16.730  0.00  0.00    +0.000 A 
ATOM     14  N   UNL     1       6.332   5.911  17.701  0.00  0.00    +0.000 NA
ENDBRANCH   2  10
BRANCH   1  15
ATOM     15  C   UNL     1       2.541   5.684  17.739  0.00  0.00    +0.000 C 
BRANCH  15  17
ATOM     16  O   UNL     1       3.468   7.908  17.890  0.00  0.00    +0.000 OA
ATOM     17  C   UNL     1       2.597   7.119  18.243  0.00  0.00    +0.000 C 
ATOM     18  N   UNL     1       1.578   7.434  19.139  0.00  0.00    +0.000 N 
ATOM     19  H   UNL     1       1.116   6.667  19.611  0.00  0.00    +0.000 HD
BRANCH  18  20
ATOM     20  C   UNL     1       1.318   8.725  19.648  0.00  0.00    +0.000 A 
ATOM     21  C   UNL     1       1.243   9.864  18.837  0.00  0.00    +0.000 A 
ATOM     22  C   UNL     1       1.036  11.125  19.401  0.00  0.00    +0.000 A 
ATOM     23  C   UNL     1       0.899  11.245  20.776  0.00  0.00    +0.000 A 
ATOM     24  F   UNL     1       0.736  12.457  21.323  0.00  0.00    +0.000 F 
ATOM     25  C   UNL     1       0.929  10.122  21.595  0.00  0.00    +0.000 A 
ATOM     26  C   UNL     1       1.122   8.859  21.029  0.00  0.00    +0.000 A 
ENDBRANCH  18  20
ENDBRANCH  15  17
ENDBRANCH   1  15
TORSDOF 4
ENDMDL
