MODEL 1
REMARK VINA RESULT:      -8.2      0.000      0.000
REMARK  Name = 
REMARK  5 active torsions:
REMARK  status: ('A' for Active; 'I' for Inactive)
REMARK    1  A    between atoms: C_1  and  C_2
REMARK    2  A    between atoms: C_8  and  C_9
REMARK    3  A    between atoms: C_9  and  N_10
REMARK    4  A    between atoms: C_11  and  C_13
REMARK    5  A    between atoms: C_17  and  O_18
REMARK                            x       y       z     vdW  Elec       q    Type
REMARK                         _______ _______ _______ _____ _____    ______ ____
ROOT
ATOM      1  N   UNL     1       5.245   5.444  18.184  0.00  0.00    +0.000 N 
ATOM      2  C   UNL     1       4.546   4.585  18.990  0.00  0.00    +0.000 C 
ATOM      3  O   UNL     1       5.047   3.556  19.433  0.00  0.00    +0.000 OA
ATOM      4  H   UNL     1       4.817   6.286  17.814  0.00  0.00    +0.000 HD
ENDROOT
BRANCH   2   5
ATOM      5  C   UNL     1       3.082   4.983  19.224  0.00  0.00    +0.000 C 
ATOM      6  C   UNL     1       2.144   4.423  18.143  0.00  0.00    +0.000 C 
ATOM      7  C   UNL     1       1.867   2.926  18.285  0.00  0.00    +0.000 C 
ATOM      8  C   UNL     1       1.461   2.515  19.696  0.00  0.00    +0.000 C 
ATOM      9  C   UNL     1       2.364   3.102  20.778  0.00  0.00    +0.000 C 
ATOM     10  C   UNL     1       2.560   4.607  20.614  0.00  0.00    +0.000 C 
BRANCH   9  11
ATOM     11  O   UNL     1       1.785   2.851  22.058  0.00  0.00    +0.000 OA
ATOM     12  H   UNL     1       2.441   3.080  22.738  0.00  0.00    +0.000 HD
ENDBRANCH   9  11
ENDBRANCH   2   5
BRANCH   1  13
ATOM     13  C   UNL     1       6.633   5.216  17.817  0.00  0.00    +0.000 C 
BRANCH  13  21
ATOM     14  C   UNL     1       8.788   6.001  12.672  0.00  0.00    +0.000 C 
ATOM     15  C   UNL     1       7.652   5.072  12.978  0.00  0.00    +0.000 A 
ATOM     16  C   UNL     1       7.043   4.313  11.957  0.00  0.00    +0.000 A 
ATOM     17  C   UNL     1       5.980   3.436  12.219  0.00  0.00    +0.000 A 
ATOM     18  C   UNL     1       5.474   3.274  13.514  0.00  0.00    +0.000 A 
ATOM     19  C   UNL     1       6.089   4.033  14.501  0.00  0.00    +0.000 A 
ATOM     20  O   UNL     1       5.789   4.061  15.832  0.00  0.00    +0.000 OA
ATOM     21  C   UNL     1       6.689   4.960  16.351  0.00  0.00    +0.000 A 
ATOM     22  N   UNL     1       7.514   5.496  15.464  0.00  0.00    +0.000 NA
ATOM     23  C   UNL     1       7.141   4.907  14.279  0.00  0.00    +0.000 A 
ENDBRANCH  13  21
ENDBRANCH   1  13
TORSDOF 4
ENDMDL
MODEL 2
REMARK VINA RESULT:      -8.2      1.301      1.827
REMARK  Name = 
REMARK  5 active torsions:
REMARK  status: ('A' for Active; 'I' for Inactive)
REMARK    1  A    between atoms: C_1  and  C_2
REMARK    2  A    between atoms: C_8  and  C_9
REMARK    3  A    between atoms: C_9  and  N_10
REMARK    4  A    between atoms: C_11  and  C_13
REMARK    5  A    between atoms: C_17  and  O_18
REMARK                            x       y       z     vdW  Elec       q    Type
REMARK                         _______ _______ _______ _____ _____    ______ ____
ROOT
ATOM      1  N   UNL     1       5.741   3.764  18.349  0.00  0.00    +0.000 N 
ATOM      2  C   UNL     1       4.415   3.773  18.696  0.00  0.00    +0.000 C 
ATOM      3  O   UNL     1       3.725   4.782  18.598  0.00  0.00    +0.000 OA
ATOM      4  H   UNL     1       6.305   2.926  18.445  0.00  0.00    +0.000 HD
ENDROOT
BRANCH   2   5
ATOM      5  C   UNL     1       3.901   2.448  19.276  0.00  0.00    +0.000 C 
ATOM      6  C   UNL     1       3.711   2.511  20.799  0.00  0.00    +0.000 C 
ATOM      7  C   UNL     1       2.473   3.300  21.231  0.00  0.00    +0.000 C 
ATOM      8  C   UNL     1       1.205   2.892  20.489  0.00  0.00    +0.000 C 
ATOM      9  C   UNL     1       1.399   2.786  18.979  0.00  0.00    +0.000 C 
ATOM     10  C   UNL     1       2.618   1.945  18.609  0.00  0.00    +0.000 C 
BRANCH   9  11
ATOM     11  O   UNL     1       0.238   2.191  18.398  0.00  0.00    +0.000 OA
ATOM     12  H   UNL     1      -0.439   2.108  19.091  0.00  0.00    +0.000 HD
ENDBRANCH   9  11
ENDBRANCH   2   5
BRANCH   1  13
ATOM     13  C   UNL     1       6.418   4.936  17.818  0.00  0.00    +0.000 C 
BRANCH  13  21
ATOM     14  C   UNL     1       8.855   6.001  12.853  0.00  0.00    +0.000 C 
ATOM     15  C   UNL     1       7.697   5.068  13.040  0.00  0.00    +0.000 A 
ATOM     16  C   UNL     1       7.139   4.377  11.945  0.00  0.00    +0.000 A 
ATOM     17  C   UNL     1       6.056   3.497  12.097  0.00  0.00    +0.000 A 
ATOM     18  C   UNL     1       5.479   3.264  13.350  0.00  0.00    +0.000 A 
ATOM     19  C   UNL     1       6.046   3.957  14.413  0.00  0.00    +0.000 A 
ATOM     20  O   UNL     1       5.674   3.909  15.725  0.00  0.00    +0.000 OA
ATOM     21  C   UNL     1       6.551   4.766  16.344  0.00  0.00    +0.000 A 
ATOM     22  N   UNL     1       7.427   5.345  15.536  0.00  0.00    +0.000 NA
ATOM     23  C   UNL     1       7.114   4.832  14.300  0.00  0.00    +0.000 A 
ENDBRANCH  13  21
ENDBRANCH   1  13
TORSDOF 4
ENDMDL
MODEL 3
REMARK VINA RESULT:      -7.9      1.207      1.496
REMARK  Name = 
REMARK  5 active torsions:
REMARK  status: ('A' for Active; 'I' for Inactive)
REMARK    1  A    between atoms: C_1  and  C_2
REMARK    2  A    between atoms: C_8  and  C_9
REMARK    3  A    between atoms: C_9  and  N_10
REMARK    4  A    between atoms: C_11  and  C_13
REMARK    5  A    between atoms: C_17  and  O_18
REMARK                            x       y       z     vdW  Elec       q    Type
REMARK                         _______ _______ _______ _____ _____    ______ ____
ROOT
ATOM      1  N   UNL     1       4.603   5.007  17.589  0.00  0.00    +0.000 N 
ATOM      2  C   UNL     1       3.702   4.008  17.846  0.00  0.00    +0.000 C 
ATOM      3  O   UNL     1       4.044   2.834  17.946  0.00  0.00    +0.000 OA
ATOM      4  H   UNL     1       4.307   5.973  17.496  0.00  0.00    +0.000 HD
ENDROOT
BRANCH   2   5
ATOM      5  C   UNL     1       2.241   4.474  17.923  0.00  0.00    +0.000 C 
ATOM      6  C   UNL     1       1.291   3.350  18.365  0.00  0.00    +0.000 C 
ATOM      7  C   UNL     1       1.375   3.025  19.857  0.00  0.00    +0.000 C 
ATOM      8  C   UNL     1       1.294   4.257  20.750  0.00  0.00    +0.000 C 
ATOM      9  C   UNL     1       2.204   5.394  20.293  0.00  0.00    +0.000 C 
ATOM     10  C   UNL     1       2.039   5.707  18.808  0.00  0.00    +0.000 C 
BRANCH   9  11
ATOM     11  O   UNL     1       1.901   6.569  21.046  0.00  0.00    +0.000 OA
ATOM     12  H   UNL     1       0.963   6.534  21.298  0.00  0.00    +0.000 HD
ENDBRANCH   9  11
ENDBRANCH   2   5
BRANCH   1  13
ATOM     13  C   UNL     1       6.028   4.757  17.442  0.00  0.00    +0.000 C 
BRANCH  13  21
ATOM     14  C   UNL     1       8.988   6.091  12.840  0.00  0.00    +0.000 C 
ATOM     15  C   UNL     1       7.842   5.125  12.854  0.00  0.00    +0.000 A 
ATOM     16  C   UNL     1       7.430   4.471  11.673  0.00  0.00    +0.000 A 
ATOM     17  C   UNL     1       6.361   3.563  11.663  0.00  0.00    +0.000 A 
ATOM     18  C   UNL     1       5.651   3.263  12.831  0.00  0.00    +0.000 A 
ATOM     19  C   UNL     1       6.074   3.921  13.980  0.00  0.00    +0.000 A 
ATOM     20  O   UNL     1       5.555   3.807  15.237  0.00  0.00    +0.000 OA
ATOM     21  C   UNL     1       6.333   4.655  15.988  0.00  0.00    +0.000 A 
ATOM     22  N   UNL     1       7.281   5.287  15.311  0.00  0.00    +0.000 NA
ATOM     23  C   UNL     1       7.125   4.822  14.027  0.00  0.00    +0.000 A 
ENDBRANCH  13  21
ENDBRANCH   1  13
TORSDOF 4
ENDMDL
MODEL 4
REMARK VINA RESULT:      -7.9      1.478      2.306
REMARK  Name = 
REMARK  5 active torsions:
REMARK  status: ('A' for Active; 'I' for Inactive)
REMARK    1  A    between atoms: C_1  and  C_2
REMARK    2  A    between atoms: C_8  and  C_9
REMARK    3  A    between atoms: C_9  and  N_10
REMARK    4  A    between atoms: C_11  and  C_13
REMARK    5  A    between atoms: C_17  and  O_18
REMARK                            x       y       z     vdW  Elec       q    Type
REMARK                         _______ _______ _______ _____ _____    ______ ____
ROOT
ATOM      1  N   UNL     1       4.525   4.594  17.594  0.00  0.00    +0.000 N 
ATOM      2  C   UNL     1       3.595   3.603  17.761  0.00  0.00    +0.000 C 
ATOM      3  O   UNL     1       3.905   2.415  17.768  0.00  0.00    +0.000 OA
ATOM      4  H   UNL     1       4.256   5.573  17.577  0.00  0.00    +0.000 HD
ENDROOT
BRANCH   2   5
ATOM      5  C   UNL     1       2.146   4.101  17.862  0.00  0.00    +0.000 C 
ATOM      6  C   UNL     1       1.193   3.022  18.398  0.00  0.00    +0.000 C 
ATOM      7  C   UNL     1       1.323   2.779  19.902  0.00  0.00    +0.000 C 
ATOM      8  C   UNL     1       1.296   4.060  20.727  0.00  0.00    +0.000 C 
ATOM      9  C   UNL     1       2.209   5.152  20.176  0.00  0.00    +0.000 C 
ATOM     10  C   UNL     1       1.997   5.385  18.683  0.00  0.00    +0.000 C 
BRANCH   9  11
ATOM     11  O   UNL     1       1.954   6.372  20.872  0.00  0.00    +0.000 OA
ATOM     12  H   UNL     1       1.645   6.152  21.767  0.00  0.00    +0.000 HD
ENDBRANCH   9  11
ENDBRANCH   2   5
BRANCH   1  13
ATOM     13  C   UNL     1       5.944   4.318  17.441  0.00  0.00    +0.000 C 
BRANCH  13  21
ATOM     14  C   UNL     1       5.278   2.655  12.101  0.00  0.00    +0.000 C 
ATOM     15  C   UNL     1       6.250   3.708  12.541  0.00  0.00    +0.000 A 
ATOM     16  C   UNL     1       7.077   4.366  11.606  0.00  0.00    +0.000 A 
ATOM     17  C   UNL     1       7.992   5.355  11.994  0.00  0.00    +0.000 A 
ATOM     18  C   UNL     1       8.127   5.736  13.335  0.00  0.00    +0.000 A 
ATOM     19  C   UNL     1       7.303   5.072  14.235  0.00  0.00    +0.000 A 
ATOM     20  O   UNL     1       7.238   5.254  15.587  0.00  0.00    +0.000 OA
ATOM     21  C   UNL     1       6.271   4.364  15.988  0.00  0.00    +0.000 A 
ATOM     22  N   UNL     1       5.737   3.645  15.013  0.00  0.00    +0.000 NA
ATOM     23  C   UNL     1       6.388   4.092  13.888  0.00  0.00    +0.000 A 
ENDBRANCH  13  21
ENDBRANCH   1  13
TORSDOF 4
ENDMDL
MODEL 5
REMARK VINA RESULT:      -7.9      1.495      1.682
REMARK  Name = 
REMARK  5 active torsions:
REMARK  status: ('A' for Active; 'I' for Inactive)
REMARK    1  A    between atoms: C_1  and  C_2
REMARK    2  A    between atoms: C_8  and  C_9
REMARK    3  A    between atoms: C_9  and  N_10
REMARK    4  A    between atoms: C_11  and  C_13
REMARK    5  A    between atoms: C_17  and  O_18
REMARK                            x       y       z     vdW  Elec       q    Type
REMARK                         _______ _______ _______ _____ _____    ______ ____
ROOT
ATOM      1  N   UNL     1       5.541   4.974  18.543  0.00  0.00    +0.000 N 
ATOM      2  C   UNL     1       4.264   5.421  18.763  0.00  0.00    +0.000 C 
ATOM      3  O   UNL     1       3.899   6.540  18.417  0.00  0.00    +0.000 OA
ATOM      4  H   UNL     1       5.836   4.051  18.844  0.00  0.00    +0.000 HD
ENDROOT
BRANCH   2   5
ATOM      5  C   UNL     1       3.371   4.438  19.534  0.00  0.00    +0.000 C 
ATOM      6  C   UNL     1       1.922   4.441  19.024  0.00  0.00    +0.000 C 
ATOM      7  C   UNL     1       1.739   3.720  17.687  0.00  0.00    +0.000 C 
ATOM      8  C   UNL     1       2.379   2.337  17.653  0.00  0.00    +0.000 C 
ATOM      9  C   UNL     1       3.805   2.319  18.198  0.00  0.00    +0.000 C 
ATOM     10  C   UNL     1       3.914   3.007  19.556  0.00  0.00    +0.000 C 
BRANCH   9  11
ATOM     11  O   UNL     1       4.238   0.965  18.334  0.00  0.00    +0.000 OA
ATOM     12  H   UNL     1       3.624   0.399  17.835  0.00  0.00    +0.000 HD
ENDBRANCH   9  11
ENDBRANCH   2   5
BRANCH   1  13
ATOM     13  C   UNL     1       6.544   5.778  17.864  0.00  0.00    +0.000 C 
BRANCH  13  21
ATOM     14  C   UNL     1       8.725   5.889  12.672  0.00  0.00    +0.000 C 
ATOM     15  C   UNL     1       7.556   5.042  13.077  0.00  0.00    +0.000 A 
ATOM     16  C   UNL     1       6.920   4.193  12.148  0.00  0.00    +0.000 A 
ATOM     17  C   UNL     1       5.826   3.391  12.504  0.00  0.00    +0.000 A 
ATOM     18  C   UNL     1       5.314   3.397  13.807  0.00  0.00    +0.000 A 
ATOM     19  C   UNL     1       5.957   4.242  14.704  0.00  0.00    +0.000 A 
ATOM     20  O   UNL     1       5.658   4.433  16.022  0.00  0.00    +0.000 OA
ATOM     21  C   UNL     1       6.590   5.352  16.437  0.00  0.00    +0.000 A 
ATOM     22  N   UNL     1       7.434   5.753  15.498  0.00  0.00    +0.000 NA
ATOM     23  C   UNL     1       7.039   5.047  14.387  0.00  0.00    +0.000 A 
ENDBRANCH  13  21
ENDBRANCH   1  13
TORSDOF 4
ENDMDL
MODEL 6
REMARK VINA RESULT:      -7.8      5.014      8.313
REMARK  Name = 
REMARK  5 active torsions:
REMARK  status: ('A' for Active; 'I' for Inactive)
REMARK    1  A    between atoms: C_1  and  C_2
REMARK    2  A    between atoms: C_8  and  C_9
REMARK    3  A    between atoms: C_9  and  N_10
REMARK    4  A    between atoms: C_11  and  C_13
REMARK    5  A    between atoms: C_17  and  O_18
REMARK                            x       y       z     vdW  Elec       q    Type
REMARK                         _______ _______ _______ _____ _____    ______ ____
ROOT
ATOM      1  N   UNL     1       2.183   6.045  20.057  0.00  0.00    +0.000 N 
ATOM      2  C   UNL     1       3.133   5.058  20.061  0.00  0.00    +0.000 C 
ATOM      3  O   UNL     1       4.236   5.216  19.545  0.00  0.00    +0.000 OA
ATOM      4  H   UNL     1       1.270   5.899  20.476  0.00  0.00    +0.000 HD
ENDROOT
BRANCH   2   5
ATOM      5  C   UNL     1       2.675   3.736  20.692  0.00  0.00    +0.000 C 
ATOM      6  C   UNL     1       1.190   3.445  20.427  0.00  0.00    +0.000 C 
ATOM      7  C   UNL     1       0.900   2.983  18.997  0.00  0.00    +0.000 C 
ATOM      8  C   UNL     1       1.819   1.863  18.525  0.00  0.00    +0.000 C 
ATOM      9  C   UNL     1       3.293   2.126  18.823  0.00  0.00    +0.000 C 
ATOM     10  C   UNL     1       3.526   2.533  20.276  0.00  0.00    +0.000 C 
BRANCH   9  11
ATOM     11  O   UNL     1       4.045   0.944  18.551  0.00  0.00    +0.000 OA
ATOM     12  H   UNL     1       3.621   0.479  17.809  0.00  0.00    +0.000 HD
ENDBRANCH   9  11
ENDBRANCH   2   5
BRANCH   1  13
ATOM     13  C   UNL     1       2.416   7.354  19.470  0.00  0.00    +0.000 C 
BRANCH  13  21
ATOM     14  C   UNL     1      -0.835  11.952  19.589  0.00  0.00    +0.000 C 
ATOM     15  C   UNL     1      -0.568  11.077  20.777  0.00  0.00    +0.000 A 
ATOM     16  C   UNL     1      -1.142  11.366  22.033  0.00  0.00    +0.000 A 
ATOM     17  C   UNL     1      -0.908  10.561  23.157  0.00  0.00    +0.000 A 
ATOM     18  C   UNL     1      -0.089   9.428  23.083  0.00  0.00    +0.000 A 
ATOM     19  C   UNL     1       0.465   9.165  21.836  0.00  0.00    +0.000 A 
ATOM     20  O   UNL     1       1.291   8.133  21.498  0.00  0.00    +0.000 OA
ATOM     21  C   UNL     1       1.536   8.336  20.162  0.00  0.00    +0.000 A 
ATOM     22  N   UNL     1       0.944   9.402  19.643  0.00  0.00    +0.000 NA
ATOM     23  C   UNL     1       0.255   9.937  20.705  0.00  0.00    +0.000 A 
ENDBRANCH  13  21
ENDBRANCH   1  13
TORSDOF 4
ENDMDL
MODEL 7
REMARK VINA RESULT:      -7.7      0.919      1.173
REMARK  Name = 
REMARK  5 active torsions:
REMARK  status: ('A' for Active; 'I' for Inactive)
REMARK    1  A    between atoms: C_1  and  C_2
REMARK    2  A    between atoms: C_8  and  C_9
REMARK    3  A    between atoms: C_9  and  N_10
REMARK    4  A    between atoms: C_11  and  C_13
REMARK    5  A    between atoms: C_17  and  O_18
REMARK                            x       y       z     vdW  Elec       q    Type
REMARK                         _______ _______ _______ _____ _____    ______ ____
ROOT
ATOM      1  N   UNL     1       5.468   5.612  18.510  0.00  0.00    +0.000 N 
ATOM      2  C   UNL     1       4.938   4.620  19.291  0.00  0.00    +0.000 C 
ATOM      3  O   UNL     1       5.580   3.619  19.594  0.00  0.00    +0.000 OA
ATOM      4  H   UNL     1       4.923   6.430  18.255  0.00  0.00    +0.000 HD
ENDROOT
BRANCH   2   5
ATOM      5  C   UNL     1       3.469   4.835  19.683  0.00  0.00    +0.000 C 
ATOM      6  C   UNL     1       2.684   5.605  18.610  0.00  0.00    +0.000 C 
ATOM      7  C   UNL     1       2.340   4.765  17.379  0.00  0.00    +0.000 C 
ATOM      8  C   UNL     1       1.716   3.417  17.721  0.00  0.00    +0.000 C 
ATOM      9  C   UNL     1       2.467   2.665  18.816  0.00  0.00    +0.000 C 
ATOM     10  C   UNL     1       2.736   3.538  20.038  0.00  0.00    +0.000 C 
BRANCH   9  11
ATOM     11  O   UNL     1       1.696   1.534  19.221  0.00  0.00    +0.000 OA
ATOM     12  H   UNL     1       2.147   0.731  18.907  0.00  0.00    +0.000 HD
ENDBRANCH   9  11
ENDBRANCH   2   5
BRANCH   1  13
ATOM     13  C   UNL     1       6.831   5.569  18.007  0.00  0.00    +0.000 C 
BRANCH  13  21
ATOM     14  C   UNL     1       8.690   5.908  12.701  0.00  0.00    +0.000 C 
ATOM     15  C   UNL     1       7.532   5.062  13.135  0.00  0.00    +0.000 A 
ATOM     16  C   UNL     1       6.823   4.272  12.206  0.00  0.00    +0.000 A 
ATOM     17  C   UNL     1       5.737   3.471  12.590  0.00  0.00    +0.000 A 
ATOM     18  C   UNL     1       5.307   3.419  13.921  0.00  0.00    +0.000 A 
ATOM     19  C   UNL     1       6.020   4.206  14.817  0.00  0.00    +0.000 A 
ATOM     20  O   UNL     1       5.807   4.335  16.159  0.00  0.00    +0.000 OA
ATOM     21  C   UNL     1       6.781   5.216  16.560  0.00  0.00    +0.000 A 
ATOM     22  N   UNL     1       7.573   5.650  15.591  0.00  0.00    +0.000 NA
ATOM     23  C   UNL     1       7.097   5.008  14.473  0.00  0.00    +0.000 A 
ENDBRANCH  13  21
ENDBRANCH   1  13
TORSDOF 4
ENDMDL
MODEL 8
REMARK VINA RESULT:      -7.6      0.942      1.802
REMARK  Name = 
REMARK  5 active torsions:
REMARK  status: ('A' for Active; 'I' for Inactive)
REMARK    1  A    between atoms: C_1  and  C_2
REMARK    2  A    between atoms: C_8  and  C_9
REMARK    3  A    between atoms: C_9  and  N_10
REMARK    4  A    between atoms: C_11  and  C_13
REMARK    5  A    between atoms: C_17  and  O_18
REMARK                            x       y       z     vdW  Elec       q    Type
REMARK                         _______ _______ _______ _____ _____    ______ ____
ROOT
ATOM      1  N   UNL     1       5.145   4.697  17.710  0.00  0.00    +0.000 N 
ATOM      2  C   UNL     1       4.539   4.263  18.859  0.00  0.00    +0.000 C 
ATOM      3  O   UNL     1       5.123   3.558  19.676  0.00  0.00    +0.000 OA
ATOM      4  H   UNL     1       4.649   5.270  17.035  0.00  0.00    +0.000 HD
ENDROOT
BRANCH   2   5
ATOM      5  C   UNL     1       3.065   4.670  18.992  0.00  0.00    +0.000 C 
ATOM      6  C   UNL     1       2.175   4.006  17.930  0.00  0.00    +0.000 C 
ATOM      7  C   UNL     1       1.898   2.526  18.200  0.00  0.00    +0.000 C 
ATOM      8  C   UNL     1       1.433   2.247  19.625  0.00  0.00    +0.000 C 
ATOM      9  C   UNL     1       2.287   2.939  20.684  0.00  0.00    +0.000 C 
ATOM     10  C   UNL     1       2.486   4.423  20.388  0.00  0.00    +0.000 C 
BRANCH   9  11
ATOM     11  O   UNL     1       1.655   2.805  21.957  0.00  0.00    +0.000 OA
ATOM     12  H   UNL     1       2.174   3.308  22.608  0.00  0.00    +0.000 HD
ENDBRANCH   9  11
ENDBRANCH   2   5
BRANCH   1  13
ATOM     13  C   UNL     1       6.527   4.379  17.387  0.00  0.00    +0.000 C 
BRANCH  13  21
ATOM     14  C   UNL     1       5.217   2.674  12.181  0.00  0.00    +0.000 C 
ATOM     15  C   UNL     1       6.236   3.728  12.491  0.00  0.00    +0.000 A 
ATOM     16  C   UNL     1       6.945   4.377  11.458  0.00  0.00    +0.000 A 
ATOM     17  C   UNL     1       7.902   5.367  11.724  0.00  0.00    +0.000 A 
ATOM     18  C   UNL     1       8.199   5.758  13.035  0.00  0.00    +0.000 A 
ATOM     19  C   UNL     1       7.489   5.104  14.034  0.00  0.00    +0.000 A 
ATOM     20  O   UNL     1       7.588   5.297  15.382  0.00  0.00    +0.000 OA
ATOM     21  C   UNL     1       6.676   4.413  15.905  0.00  0.00    +0.000 A 
ATOM     22  N   UNL     1       6.026   3.687  15.007  0.00  0.00    +0.000 NA
ATOM     23  C   UNL     1       6.537   4.123  13.809  0.00  0.00    +0.000 A 
ENDBRANCH  13  21
ENDBRANCH   1  13
TORSDOF 4
ENDMDL
MODEL 9
REMARK VINA RESULT:      -7.6      1.003      1.047
REMARK  Name = 
REMARK  5 active torsions:
REMARK  status: ('A' for Active; 'I' for Inactive)
REMARK    1  A    between atoms: C_1  and  C_2
REMARK    2  A    between atoms: C_8  and  C_9
REMARK    3  A    between atoms: C_9  and  N_10
REMARK    4  A    between atoms: C_11  and  C_13
REMARK    5  A    between atoms: C_17  and  O_18
REMARK                            x       y       z     vdW  Elec       q    Type
REMARK                         _______ _______ _______ _____ _____    ______ ____
ROOT
ATOM      1  N   UNL     1       4.281   4.744  17.686  0.00  0.00    +0.000 N 
ATOM      2  C   UNL     1       3.407   5.410  18.503  0.00  0.00    +0.000 C 
ATOM      3  O   UNL     1       3.741   6.404  19.140  0.00  0.00    +0.000 OA
ATOM      4  H   UNL     1       3.996   3.915  17.173  0.00  0.00    +0.000 HD
ENDROOT
BRANCH   2   5
ATOM      5  C   UNL     1       2.016   4.768  18.605  0.00  0.00    +0.000 C 
ATOM      6  C   UNL     1       1.904   3.482  17.773  0.00  0.00    +0.000 C 
ATOM      7  C   UNL     1       2.618   2.281  18.397  0.00  0.00    +0.000 C 
ATOM      8  C   UNL     1       2.275   2.071  19.867  0.00  0.00    +0.000 C 
ATOM      9  C   UNL     1       2.344   3.353  20.692  0.00  0.00    +0.000 C 
ATOM     10  C   UNL     1       1.571   4.499  20.045  0.00  0.00    +0.000 C 
BRANCH   9  11
ATOM     11  O   UNL     1       1.799   3.107  21.988  0.00  0.00    +0.000 OA
ATOM     12  H   UNL     1       1.019   2.535  21.886  0.00  0.00    +0.000 HD
ENDBRANCH   9  11
ENDBRANCH   2   5
BRANCH   1  13
ATOM     13  C   UNL     1       5.655   5.177  17.492  0.00  0.00    +0.000 C 
BRANCH  13  21
ATOM     14  C   UNL     1       8.886   5.966  12.946  0.00  0.00    +0.000 C 
ATOM     15  C   UNL     1       7.692   5.061  12.984  0.00  0.00    +0.000 A 
ATOM     16  C   UNL     1       7.302   4.327  11.844  0.00  0.00    +0.000 A 
ATOM     17  C   UNL     1       6.190   3.473  11.858  0.00  0.00    +0.000 A 
ATOM     18  C   UNL     1       5.412   3.308  13.010  0.00  0.00    +0.000 A 
ATOM     19  C   UNL     1       5.816   4.042  14.119  0.00  0.00    +0.000 A 
ATOM     20  O   UNL     1       5.236   4.063  15.354  0.00  0.00    +0.000 OA
ATOM     21  C   UNL     1       6.021   4.935  16.068  0.00  0.00    +0.000 A 
ATOM     22  N   UNL     1       7.029   5.461  15.388  0.00  0.00    +0.000 NA
ATOM     23  C   UNL     1       6.908   4.894  14.142  0.00  0.00    +0.000 A 
ENDBRANCH  13  21
ENDBRANCH   1  13
TORSDOF 4
ENDMDL
