MODEL 1
REMARK VINA RESULT:      -7.9      0.000      0.000
REMARK  Name = 
REMARK  12 active torsions:
REMARK  status: ('A' for Active; 'I' for Inactive)
REMARK    1  A    between atoms: C_1  and  N_2
REMARK    2  A    between atoms: C_6  and  C_7
REMARK    3  A    between atoms: N_9  and  C_10
REMARK    4  A    between atoms: C_10  and  C_11
REMARK    5  A    between atoms: C_11  and  O_12
REMARK    6  A    between atoms: O_12  and  C_13
REMARK    7  A    between atoms: C_13  and  C_15
REMARK    8  A    between atoms: C_19  and  N_20
REMARK    9  A    between atoms: C_21  and  C_23
REMARK   10  A    between atoms: C_23  and  C_24
REMARK   11  A    between atoms: C_32  and  C_33
REMARK   12  A    between atoms: C_32  and  C_34
REMARK                            x       y       z     vdW  Elec       q    Type
REMARK                         _______ _______ _______ _____ _____    ______ ____
ROOT
ATOM      1  C   UNL     1      -0.561  10.281  20.060  0.00  0.00    +0.000 C 
ATOM      2  N   UNL     1      -0.816  10.745  18.687  0.00  0.00    +0.000 N 
ATOM      3  C   UNL     1      -1.934  10.287  18.027  0.00  0.00    +0.000 C 
ATOM      4  O   UNL     1      -2.488   9.212  18.086  0.00  0.00    +0.000 OA
ATOM      5  C   UNL     1      -2.295  11.699  17.526  0.00  0.00    +0.000 C 
ATOM      6  C   UNL     1      -1.183  12.162  18.488  0.00  0.00    +0.000 C 
ATOM      7  S   UNL     1      -1.677  12.716  20.176  0.00  0.00    +0.000 S 
ATOM      8  C   UNL     1      -0.461  11.556  20.934  0.00  0.00    +0.000 C 
ATOM      9  C   UNL     1      -0.853  11.309  22.394  0.00  0.00    +0.000 C 
ATOM     10  C   UNL     1       0.883  12.286  20.848  0.00  0.00    +0.000 C 
ENDROOT
BRANCH   5  11
ATOM     11  N   UNL     1      -3.669  12.164  17.829  0.00  0.00    +0.000 N 
ATOM     12  C   UNL     1      -4.725  11.817  17.016  0.00  0.00    +0.000 C 
ATOM     13  O   UNL     1      -4.583  11.100  16.028  0.00  0.00    +0.000 OA
ATOM     14  H   UNL     1      -3.839  12.746  18.643  0.00  0.00    +0.000 HD
BRANCH  12  15
ATOM     15  C   UNL     1      -6.065  12.379  17.449  0.00  0.00    +0.000 C 
BRANCH  15  16
ATOM     16  C   UNL     1      -6.613  11.661  18.655  0.00  0.00    +0.000 A 
ATOM     17  C   UNL     1      -6.692  10.263  18.685  0.00  0.00    +0.000 A 
ATOM     18  C   UNL     1      -7.248   9.611  19.786  0.00  0.00    +0.000 A 
ATOM     19  C   UNL     1      -7.722  10.349  20.870  0.00  0.00    +0.000 A 
ATOM     20  C   UNL     1      -7.623  11.735  20.864  0.00  0.00    +0.000 A 
ATOM     21  C   UNL     1      -7.067  12.391  19.763  0.00  0.00    +0.000 A 
ENDBRANCH  15  16
ENDBRANCH  12  15
ENDBRANCH   5  11
BRANCH   1  22
ATOM     22  C   UNL     1       0.668   9.356  20.089  0.00  0.00    +0.000 C 
ATOM     23  O   UNL     1       1.286   9.023  21.091  0.00  0.00    +0.000 OA
BRANCH  22  24
ATOM     24  O   UNL     1       0.994   8.934  18.833  0.00  0.00    +0.000 OA
BRANCH  24  25
ATOM     25  C   UNL     1       2.356   9.167  18.421  0.00  0.00    +0.000 C 
BRANCH  25  26
ATOM     26  C   UNL     1       2.861   7.919  17.676  0.00  0.00    +0.000 C 
BRANCH  26  29
ATOM     27  C   UNL     1       2.262   5.615  18.423  0.00  0.00    +0.000 C 
ATOM     28  O   UNL     1       1.542   5.364  17.472  0.00  0.00    +0.000 OA
ATOM     29  N   UNL     1       3.011   6.762  18.561  0.00  0.00    +0.000 N 
ATOM     30  H   UNL     1       3.720   6.839  19.277  0.00  0.00    +0.000 HD
BRANCH  27  36
ATOM     31  C   UNL     1       4.703   1.849  20.456  0.00  0.00    +0.000 C 
ATOM     32  N   UNL     1       3.543   2.761  20.466  0.00  0.00    +0.000 N 
ATOM     33  C   UNL     1       2.574   2.599  21.398  0.00  0.00    +0.000 A 
ATOM     34  C   UNL     1       1.462   3.433  21.412  0.00  0.00    +0.000 A 
ATOM     35  C   UNL     1       1.346   4.441  20.461  0.00  0.00    +0.000 A 
ATOM     36  C   UNL     1       2.359   4.608  19.511  0.00  0.00    +0.000 A 
ATOM     37  C   UNL     1       3.451   3.738  19.528  0.00  0.00    +0.000 A 
ENDBRANCH  27  36
ENDBRANCH  26  29
ENDBRANCH  25  26
ENDBRANCH  24  25
ENDBRANCH  22  24
ENDBRANCH   1  22
TORSDOF 9
ENDMDL
MODEL 2
REMARK VINA RESULT:      -7.6      4.490     10.857
REMARK  Name = 
REMARK  12 active torsions:
REMARK  status: ('A' for Active; 'I' for Inactive)
REMARK    1  A    between atoms: C_1  and  N_2
REMARK    2  A    between atoms: C_6  and  C_7
REMARK    3  A    between atoms: N_9  and  C_10
REMARK    4  A    between atoms: C_10  and  C_11
REMARK    5  A    between atoms: C_11  and  O_12
REMARK    6  A    between atoms: O_12  and  C_13
REMARK    7  A    between atoms: C_13  and  C_15
REMARK    8  A    between atoms: C_19  and  N_20
REMARK    9  A    between atoms: C_21  and  C_23
REMARK   10  A    between atoms: C_23  and  C_24
REMARK   11  A    between atoms: C_32  and  C_33
REMARK   12  A    between atoms: C_32  and  C_34
REMARK                            x       y       z     vdW  Elec       q    Type
REMARK                         _______ _______ _______ _____ _____    ______ ____
ROOT
ATOM      1  C   UNL     1       3.351   3.738  19.662  0.00  0.00    +0.000 C 
ATOM      2  N   UNL     1       3.827   5.018  19.111  0.00  0.00    +0.000 N 
ATOM      3  C   UNL     1       5.179   5.276  19.100  0.00  0.00    +0.000 C 
ATOM      4  O   UNL     1       6.040   4.951  19.885  0.00  0.00    +0.000 OA
ATOM      5  C   UNL     1       5.133   5.789  17.647  0.00  0.00    +0.000 C 
ATOM      6  C   UNL     1       3.691   5.243  17.657  0.00  0.00    +0.000 C 
ATOM      7  S   UNL     1       3.406   3.549  16.989  0.00  0.00    +0.000 S 
ATOM      8  C   UNL     1       2.529   3.064  18.536  0.00  0.00    +0.000 C 
ATOM      9  C   UNL     1       2.516   1.535  18.643  0.00  0.00    +0.000 C 
ATOM     10  C   UNL     1       1.107   3.609  18.369  0.00  0.00    +0.000 C 
ENDROOT
BRANCH   5  11
ATOM     11  N   UNL     1       6.077   5.148  16.702  0.00  0.00    +0.000 N 
ATOM     12  C   UNL     1       6.183   5.593  15.403  0.00  0.00    +0.000 C 
ATOM     13  O   UNL     1       5.526   6.540  14.979  0.00  0.00    +0.000 OA
ATOM     14  H   UNL     1       6.652   4.371  17.010  0.00  0.00    +0.000 HD
BRANCH  12  15
ATOM     15  C   UNL     1       7.181   4.828  14.555  0.00  0.00    +0.000 C 
BRANCH  15  16
ATOM     16  C   UNL     1       6.507   4.069  13.441  0.00  0.00    +0.000 A 
ATOM     17  C   UNL     1       5.113   3.939  13.401  0.00  0.00    +0.000 A 
ATOM     18  C   UNL     1       4.503   3.192  12.392  0.00  0.00    +0.000 A 
ATOM     19  C   UNL     1       5.280   2.576  11.411  0.00  0.00    +0.000 A 
ATOM     20  C   UNL     1       6.662   2.722  11.425  0.00  0.00    +0.000 A 
ATOM     21  C   UNL     1       7.275   3.469  12.433  0.00  0.00    +0.000 A 
ENDBRANCH  15  16
ENDBRANCH  12  15
ENDBRANCH   5  11
BRANCH   1  22
ATOM     22  C   UNL     1       2.600   3.975  20.984  0.00  0.00    +0.000 C 
ATOM     23  O   UNL     1       2.100   3.106  21.684  0.00  0.00    +0.000 OA
BRANCH  22  24
ATOM     24  O   UNL     1       2.564   5.303  21.296  0.00  0.00    +0.000 OA
BRANCH  24  25
ATOM     25  C   UNL     1       1.368   6.011  20.908  0.00  0.00    +0.000 C 
BRANCH  25  26
ATOM     26  C   UNL     1       1.726   7.493  20.695  0.00  0.00    +0.000 C 
BRANCH  26  29
ATOM     27  C   UNL     1       0.497   9.663  20.638  0.00  0.00    +0.000 C 
ATOM     28  O   UNL     1       1.076  10.103  19.658  0.00  0.00    +0.000 OA
ATOM     29  N   UNL     1       0.665   8.394  21.147  0.00  0.00    +0.000 N 
ATOM     30  H   UNL     1       0.036   8.026  21.845  0.00  0.00    +0.000 HD
BRANCH  27  36
ATOM     31  C   UNL     1      -2.557  13.524  20.430  0.00  0.00    +0.000 C 
ATOM     32  N   UNL     1      -1.931  12.443  21.216  0.00  0.00    +0.000 N 
ATOM     33  C   UNL     1      -2.189  12.346  22.543  0.00  0.00    +0.000 A 
ATOM     34  C   UNL     1      -1.593  11.350  23.307  0.00  0.00    +0.000 A 
ATOM     35  C   UNL     1      -0.725  10.447  22.702  0.00  0.00    +0.000 A 
ATOM     36  C   UNL     1      -0.475  10.547  21.330  0.00  0.00    +0.000 A 
ATOM     37  C   UNL     1      -1.087  11.573  20.605  0.00  0.00    +0.000 A 
ENDBRANCH  27  36
ENDBRANCH  26  29
ENDBRANCH  25  26
ENDBRANCH  24  25
ENDBRANCH  22  24
ENDBRANCH   1  22
TORSDOF 9
ENDMDL
MODEL 3
REMARK VINA RESULT:      -7.4      4.421     10.742
REMARK  Name = 
REMARK  12 active torsions:
REMARK  status: ('A' for Active; 'I' for Inactive)
REMARK    1  A    between atoms: C_1  and  N_2
REMARK    2  A    between atoms: C_6  and  C_7
REMARK    3  A    between atoms: N_9  and  C_10
REMARK    4  A    between atoms: C_10  and  C_11
REMARK    5  A    between atoms: C_11  and  O_12
REMARK    6  A    between atoms: O_12  and  C_13
REMARK    7  A    between atoms: C_13  and  C_15
REMARK    8  A    between atoms: C_19  and  N_20
REMARK    9  A    between atoms: C_21  and  C_23
REMARK   10  A    between atoms: C_23  and  C_24
REMARK   11  A    between atoms: C_32  and  C_33
REMARK   12  A    between atoms: C_32  and  C_34
REMARK                            x       y       z     vdW  Elec       q    Type
REMARK                         _______ _______ _______ _____ _____    ______ ____
ROOT
ATOM      1  C   UNL     1       3.332   3.893  19.743  0.00  0.00    +0.000 C 
ATOM      2  N   UNL     1       3.805   5.140  19.121  0.00  0.00    +0.000 N 
ATOM      3  C   UNL     1       5.157   5.395  19.084  0.00  0.00    +0.000 C 
ATOM      4  O   UNL     1       6.025   5.110  19.878  0.00  0.00    +0.000 OA
ATOM      5  C   UNL     1       5.098   5.831  17.607  0.00  0.00    +0.000 C 
ATOM      6  C   UNL     1       3.656   5.289  17.659  0.00  0.00    +0.000 C 
ATOM      7  S   UNL     1       3.362   3.563  17.083  0.00  0.00    +0.000 S 
ATOM      8  C   UNL     1       2.498   3.162  18.661  0.00  0.00    +0.000 C 
ATOM      9  C   UNL     1       2.484   1.641  18.848  0.00  0.00    +0.000 C 
ATOM     10  C   UNL     1       1.076   3.700  18.478  0.00  0.00    +0.000 C 
ENDROOT
BRANCH   5  11
ATOM     11  N   UNL     1       6.033   5.139  16.688  0.00  0.00    +0.000 N 
ATOM     12  C   UNL     1       6.179   5.559  15.385  0.00  0.00    +0.000 C 
ATOM     13  O   UNL     1       5.566   6.524  14.935  0.00  0.00    +0.000 OA
ATOM     14  H   UNL     1       6.573   4.345  17.018  0.00  0.00    +0.000 HD
BRANCH  12  15
ATOM     15  C   UNL     1       7.160   4.743  14.566  0.00  0.00    +0.000 C 
BRANCH  15  16
ATOM     16  C   UNL     1       6.478   4.002  13.445  0.00  0.00    +0.000 A 
ATOM     17  C   UNL     1       7.224   3.397  12.425  0.00  0.00    +0.000 A 
ATOM     18  C   UNL     1       6.581   2.757  11.365  0.00  0.00    +0.000 A 
ATOM     19  C   UNL     1       5.187   2.708  11.319  0.00  0.00    +0.000 A 
ATOM     20  C   UNL     1       4.438   3.280  12.341  0.00  0.00    +0.000 A 
ATOM     21  C   UNL     1       5.079   3.922  13.403  0.00  0.00    +0.000 A 
ENDBRANCH  15  16
ENDBRANCH  12  15
ENDBRANCH   5  11
BRANCH   1  22
ATOM     22  C   UNL     1       2.593   4.200  21.057  0.00  0.00    +0.000 C 
ATOM     23  O   UNL     1       2.072   3.373  21.791  0.00  0.00    +0.000 OA
BRANCH  22  24
ATOM     24  O   UNL     1       2.594   5.539  21.318  0.00  0.00    +0.000 OA
BRANCH  24  25
ATOM     25  C   UNL     1       1.414   6.264  20.915  0.00  0.00    +0.000 C 
BRANCH  25  26
ATOM     26  C   UNL     1       1.633   7.758  21.211  0.00  0.00    +0.000 C 
BRANCH  26  29
ATOM     27  C   UNL     1       0.449   9.919  20.816  0.00  0.00    +0.000 C 
ATOM     28  O   UNL     1       1.058  10.546  21.667  0.00  0.00    +0.000 OA
ATOM     29  N   UNL     1       0.718   8.617  20.456  0.00  0.00    +0.000 N 
ATOM     30  H   UNL     1       0.304   8.209  19.631  0.00  0.00    +0.000 HD
BRANCH  27  36
ATOM     31  C   UNL     1      -2.401  10.232  16.810  0.00  0.00    +0.000 C 
ATOM     32  N   UNL     1      -2.008  10.759  18.131  0.00  0.00    +0.000 N 
ATOM     33  C   UNL     1      -2.593  11.887  18.601  0.00  0.00    +0.000 A 
ATOM     34  C   UNL     1      -2.223  12.414  19.832  0.00  0.00    +0.000 A 
ATOM     35  C   UNL     1      -1.243  11.778  20.586  0.00  0.00    +0.000 A 
ATOM     36  C   UNL     1      -0.653  10.606  20.098  0.00  0.00    +0.000 A 
ATOM     37  C   UNL     1      -1.049  10.121  18.849  0.00  0.00    +0.000 A 
ENDBRANCH  27  36
ENDBRANCH  26  29
ENDBRANCH  25  26
ENDBRANCH  24  25
ENDBRANCH  22  24
ENDBRANCH   1  22
TORSDOF 9
ENDMDL
MODEL 4
REMARK VINA RESULT:      -7.3      4.448     10.712
REMARK  Name = 
REMARK  12 active torsions:
REMARK  status: ('A' for Active; 'I' for Inactive)
REMARK    1  A    between atoms: C_1  and  N_2
REMARK    2  A    between atoms: C_6  and  C_7
REMARK    3  A    between atoms: N_9  and  C_10
REMARK    4  A    between atoms: C_10  and  C_11
REMARK    5  A    between atoms: C_11  and  O_12
REMARK    6  A    between atoms: O_12  and  C_13
REMARK    7  A    between atoms: C_13  and  C_15
REMARK    8  A    between atoms: C_19  and  N_20
REMARK    9  A    between atoms: C_21  and  C_23
REMARK   10  A    between atoms: C_23  and  C_24
REMARK   11  A    between atoms: C_32  and  C_33
REMARK   12  A    between atoms: C_32  and  C_34
REMARK                            x       y       z     vdW  Elec       q    Type
REMARK                         _______ _______ _______ _____ _____    ______ ____
ROOT
ATOM      1  C   UNL     1       3.327   3.986  19.677  0.00  0.00    +0.000 C 
ATOM      2  N   UNL     1       3.760   5.220  19.003  0.00  0.00    +0.000 N 
ATOM      3  C   UNL     1       5.104   5.509  18.942  0.00  0.00    +0.000 C 
ATOM      4  O   UNL     1       5.987   5.279  19.738  0.00  0.00    +0.000 OA
ATOM      5  C   UNL     1       5.021   5.885  17.450  0.00  0.00    +0.000 C 
ATOM      6  C   UNL     1       3.595   5.307  17.537  0.00  0.00    +0.000 C 
ATOM      7  S   UNL     1       3.343   3.552  17.032  0.00  0.00    +0.000 S 
ATOM      8  C   UNL     1       2.504   3.191  18.634  0.00  0.00    +0.000 C 
ATOM      9  C   UNL     1       2.533   1.679  18.881  0.00  0.00    +0.000 C 
ATOM     10  C   UNL     1       1.066   3.683  18.444  0.00  0.00    +0.000 C 
ENDROOT
BRANCH   5  11
ATOM     11  N   UNL     1       5.966   5.182  16.550  0.00  0.00    +0.000 N 
ATOM     12  C   UNL     1       6.122   5.582  15.241  0.00  0.00    +0.000 C 
ATOM     13  O   UNL     1       5.509   6.538  14.771  0.00  0.00    +0.000 OA
ATOM     14  H   UNL     1       6.506   4.395  16.896  0.00  0.00    +0.000 HD
BRANCH  12  15
ATOM     15  C   UNL     1       7.113   4.757  14.444  0.00  0.00    +0.000 C 
BRANCH  15  16
ATOM     16  C   UNL     1       6.439   3.972  13.348  0.00  0.00    +0.000 A 
ATOM     17  C   UNL     1       7.193   3.291  12.383  0.00  0.00    +0.000 A 
ATOM     18  C   UNL     1       6.559   2.609  11.345  0.00  0.00    +0.000 A 
ATOM     19  C   UNL     1       5.166   2.594  11.265  0.00  0.00    +0.000 A 
ATOM     20  C   UNL     1       4.408   3.242  12.233  0.00  0.00    +0.000 A 
ATOM     21  C   UNL     1       5.039   3.926  13.274  0.00  0.00    +0.000 A 
ENDBRANCH  15  16
ENDBRANCH  12  15
ENDBRANCH   5  11
BRANCH   1  22
ATOM     22  C   UNL     1       2.591   4.326  20.986  0.00  0.00    +0.000 C 
ATOM     23  O   UNL     1       2.066   3.517  21.738  0.00  0.00    +0.000 OA
BRANCH  22  24
ATOM     24  O   UNL     1       2.601   5.670  21.218  0.00  0.00    +0.000 OA
BRANCH  24  25
ATOM     25  C   UNL     1       1.398   6.382  20.862  0.00  0.00    +0.000 C 
BRANCH  25  26
ATOM     26  C   UNL     1       1.529   7.836  21.348  0.00  0.00    +0.000 C 
BRANCH  26  29
ATOM     27  C   UNL     1       0.985   9.213  19.339  0.00  0.00    +0.000 C 
ATOM     28  O   UNL     1       1.894   8.782  18.649  0.00  0.00    +0.000 OA
ATOM     29  N   UNL     1       0.669   8.755  20.599  0.00  0.00    +0.000 N 
ATOM     30  H   UNL     1      -0.194   9.023  21.049  0.00  0.00    +0.000 HD
BRANCH  27  36
ATOM     31  C   UNL     1       0.020  14.034  19.021  0.00  0.00    +0.000 C 
ATOM     32  N   UNL     1      -0.328  12.645  18.666  0.00  0.00    +0.000 N 
ATOM     33  C   UNL     1      -1.439  12.403  17.928  0.00  0.00    +0.000 A 
ATOM     34  C   UNL     1      -1.798  11.101  17.600  0.00  0.00    +0.000 A 
ATOM     35  C   UNL     1      -1.010  10.040  18.034  0.00  0.00    +0.000 A 
ATOM     36  C   UNL     1       0.142  10.301  18.783  0.00  0.00    +0.000 A 
ATOM     37  C   UNL     1       0.456  11.625  19.099  0.00  0.00    +0.000 A 
ENDBRANCH  27  36
ENDBRANCH  26  29
ENDBRANCH  25  26
ENDBRANCH  24  25
ENDBRANCH  22  24
ENDBRANCH   1  22
TORSDOF 9
ENDMDL
MODEL 5
REMARK VINA RESULT:      -7.2      1.367      1.835
REMARK  Name = 
REMARK  12 active torsions:
REMARK  status: ('A' for Active; 'I' for Inactive)
REMARK    1  A    between atoms: C_1  and  N_2
REMARK    2  A    between atoms: C_6  and  C_7
REMARK    3  A    between atoms: N_9  and  C_10
REMARK    4  A    between atoms: C_10  and  C_11
REMARK    5  A    between atoms: C_11  and  O_12
REMARK    6  A    between atoms: O_12  and  C_13
REMARK    7  A    between atoms: C_13  and  C_15
REMARK    8  A    between atoms: C_19  and  N_20
REMARK    9  A    between atoms: C_21  and  C_23
REMARK   10  A    between atoms: C_23  and  C_24
REMARK   11  A    between atoms: C_32  and  C_33
REMARK   12  A    between atoms: C_32  and  C_34
REMARK                            x       y       z     vdW  Elec       q    Type
REMARK                         _______ _______ _______ _____ _____    ______ ____
ROOT
ATOM      1  C   UNL     1      -0.793  10.875  20.598  0.00  0.00    +0.000 C 
ATOM      2  N   UNL     1      -1.349  11.537  19.407  0.00  0.00    +0.000 N 
ATOM      3  C   UNL     1      -2.183  10.823  18.577  0.00  0.00    +0.000 C 
ATOM      4  O   UNL     1      -2.173   9.648  18.286  0.00  0.00    +0.000 OA
ATOM      5  C   UNL     1      -3.194  11.983  18.489  0.00  0.00    +0.000 C 
ATOM      6  C   UNL     1      -2.342  12.613  19.609  0.00  0.00    +0.000 C 
ATOM      7  S   UNL     1      -2.890  12.365  21.352  0.00  0.00    +0.000 S 
ATOM      8  C   UNL     1      -1.217  11.741  21.810  0.00  0.00    +0.000 C 
ATOM      9  C   UNL     1      -1.325  10.934  23.109  0.00  0.00    +0.000 C 
ATOM     10  C   UNL     1      -0.371  13.001  22.022  0.00  0.00    +0.000 C 
ENDROOT
BRANCH   5  11
ATOM     11  N   UNL     1      -4.596  11.648  18.833  0.00  0.00    +0.000 N 
ATOM     12  C   UNL     1      -5.520  11.389  17.845  0.00  0.00    +0.000 C 
ATOM     13  O   UNL     1      -5.226  11.403  16.652  0.00  0.00    +0.000 OA
ATOM     14  H   UNL     1      -4.885  11.610  19.805  0.00  0.00    +0.000 HD
BRANCH  12  15
ATOM     15  C   UNL     1      -6.915  11.076  18.352  0.00  0.00    +0.000 C 
BRANCH  15  16
ATOM     16  C   UNL     1      -7.284  11.923  19.542  0.00  0.00    +0.000 A 
ATOM     17  C   UNL     1      -7.541  13.293  19.397  0.00  0.00    +0.000 A 
ATOM     18  C   UNL     1      -7.833  14.078  20.513  0.00  0.00    +0.000 A 
ATOM     19  C   UNL     1      -7.879  13.500  21.782  0.00  0.00    +0.000 A 
ATOM     20  C   UNL     1      -7.653  12.137  21.934  0.00  0.00    +0.000 A 
ATOM     21  C   UNL     1      -7.361  11.349  20.819  0.00  0.00    +0.000 A 
ENDBRANCH  15  16
ENDBRANCH  12  15
ENDBRANCH   5  11
BRANCH   1  22
ATOM     22  C   UNL     1       0.721  10.662  20.429  0.00  0.00    +0.000 C 
ATOM     23  O   UNL     1       1.597  11.385  20.882  0.00  0.00    +0.000 OA
BRANCH  22  24
ATOM     24  O   UNL     1       0.980   9.537  19.702  0.00  0.00    +0.000 OA
BRANCH  24  25
ATOM     25  C   UNL     1       1.350   9.746  18.323  0.00  0.00    +0.000 C 
BRANCH  25  26
ATOM     26  C   UNL     1       2.583   8.880  18.011  0.00  0.00    +0.000 C 
BRANCH  26  29
ATOM     27  C   UNL     1       3.165   6.454  17.975  0.00  0.00    +0.000 C 
ATOM     28  O   UNL     1       4.119   6.571  17.224  0.00  0.00    +0.000 OA
ATOM     29  N   UNL     1       2.432   7.502  18.485  0.00  0.00    +0.000 N 
ATOM     30  H   UNL     1       1.771   7.360  19.235  0.00  0.00    +0.000 HD
BRANCH  27  36
ATOM     31  C   UNL     1       4.347   2.230  20.218  0.00  0.00    +0.000 C 
ATOM     32  N   UNL     1       3.369   3.030  19.456  0.00  0.00    +0.000 N 
ATOM     33  C   UNL     1       2.192   2.471  19.086  0.00  0.00    +0.000 A 
ATOM     34  C   UNL     1       1.266   3.200  18.349  0.00  0.00    +0.000 A 
ATOM     35  C   UNL     1       1.552   4.512  17.989  0.00  0.00    +0.000 A 
ATOM     36  C   UNL     1       2.765   5.085  18.387  0.00  0.00    +0.000 A 
ATOM     37  C   UNL     1       3.670   4.310  19.116  0.00  0.00    +0.000 A 
ENDBRANCH  27  36
ENDBRANCH  26  29
ENDBRANCH  25  26
ENDBRANCH  24  25
ENDBRANCH  22  24
ENDBRANCH   1  22
TORSDOF 9
ENDMDL
MODEL 6
REMARK VINA RESULT:      -7.2      2.162      2.660
REMARK  Name = 
REMARK  12 active torsions:
REMARK  status: ('A' for Active; 'I' for Inactive)
REMARK    1  A    between atoms: C_1  and  N_2
REMARK    2  A    between atoms: C_6  and  C_7
REMARK    3  A    between atoms: N_9  and  C_10
REMARK    4  A    between atoms: C_10  and  C_11
REMARK    5  A    between atoms: C_11  and  O_12
REMARK    6  A    between atoms: O_12  and  C_13
REMARK    7  A    between atoms: C_13  and  C_15
REMARK    8  A    between atoms: C_19  and  N_20
REMARK    9  A    between atoms: C_21  and  C_23
REMARK   10  A    between atoms: C_23  and  C_24
REMARK   11  A    between atoms: C_32  and  C_33
REMARK   12  A    between atoms: C_32  and  C_34
REMARK                            x       y       z     vdW  Elec       q    Type
REMARK                         _______ _______ _______ _____ _____    ______ ____
ROOT
ATOM      1  C   UNL     1      -0.699  10.492  20.456  0.00  0.00    +0.000 C 
ATOM      2  N   UNL     1      -0.803  10.901  19.046  0.00  0.00    +0.000 N 
ATOM      3  C   UNL     1      -1.814  10.376  18.273  0.00  0.00    +0.000 C 
ATOM      4  O   UNL     1      -2.330   9.282  18.304  0.00  0.00    +0.000 OA
ATOM      5  C   UNL     1      -2.164  11.756  17.681  0.00  0.00    +0.000 C 
ATOM      6  C   UNL     1      -1.196  12.295  18.752  0.00  0.00    +0.000 C 
ATOM      7  S   UNL     1      -1.912  12.880  20.347  0.00  0.00    +0.000 S 
ATOM      8  C   UNL     1      -0.754  11.797  21.288  0.00  0.00    +0.000 C 
ATOM      9  C   UNL     1      -1.311  11.580  22.699  0.00  0.00    +0.000 C 
ATOM     10  C   UNL     1       0.562  12.579  21.338  0.00  0.00    +0.000 C 
ENDROOT
BRANCH   5  11
ATOM     11  N   UNL     1      -3.582  12.172  17.801  0.00  0.00    +0.000 N 
ATOM     12  C   UNL     1      -4.526  11.718  16.906  0.00  0.00    +0.000 C 
ATOM     13  O   UNL     1      -4.246  10.943  15.995  0.00  0.00    +0.000 OA
ATOM     14  H   UNL     1      -3.865  12.800  18.546  0.00  0.00    +0.000 HD
BRANCH  12  15
ATOM     15  C   UNL     1      -5.928  12.243  17.150  0.00  0.00    +0.000 C 
BRANCH  15  16
ATOM     16  C   UNL     1      -6.494  11.748  18.456  0.00  0.00    +0.000 A 
ATOM     17  C   UNL     1      -6.597  10.376  18.721  0.00  0.00    +0.000 A 
ATOM     18  C   UNL     1      -7.169   9.928  19.912  0.00  0.00    +0.000 A 
ATOM     19  C   UNL     1      -7.636  10.847  20.852  0.00  0.00    +0.000 A 
ATOM     20  C   UNL     1      -7.513  12.210  20.612  0.00  0.00    +0.000 A 
ATOM     21  C   UNL     1      -6.941  12.662  19.421  0.00  0.00    +0.000 A 
ENDBRANCH  15  16
ENDBRANCH  12  15
ENDBRANCH   5  11
BRANCH   1  22
ATOM     22  C   UNL     1       0.552   9.621  20.666  0.00  0.00    +0.000 C 
ATOM     23  O   UNL     1       0.808   8.974  21.671  0.00  0.00    +0.000 OA
BRANCH  22  24
ATOM     24  O   UNL     1       1.359   9.650  19.567  0.00  0.00    +0.000 OA
BRANCH  24  25
ATOM     25  C   UNL     1       1.874   8.376  19.126  0.00  0.00    +0.000 C 
BRANCH  25  26
ATOM     26  C   UNL     1       2.257   8.492  17.640  0.00  0.00    +0.000 C 
BRANCH  26  29
ATOM     27  C   UNL     1       3.869   6.655  18.140  0.00  0.00    +0.000 C 
ATOM     28  O   UNL     1       3.374   6.350  19.212  0.00  0.00    +0.000 OA
ATOM     29  N   UNL     1       3.352   7.593  17.274  0.00  0.00    +0.000 N 
ATOM     30  H   UNL     1       3.701   7.678  16.330  0.00  0.00    +0.000 HD
BRANCH  27  36
ATOM     31  C   UNL     1       6.495   4.545  14.546  0.00  0.00    +0.000 C 
ATOM     32  N   UNL     1       6.359   4.913  15.968  0.00  0.00    +0.000 N 
ATOM     33  C   UNL     1       7.315   4.534  16.850  0.00  0.00    +0.000 A 
ATOM     34  C   UNL     1       7.197   4.851  18.198  0.00  0.00    +0.000 A 
ATOM     35  C   UNL     1       6.088   5.562  18.643  0.00  0.00    +0.000 A 
ATOM     36  C   UNL     1       5.113   5.960  17.722  0.00  0.00    +0.000 A 
ATOM     37  C   UNL     1       5.268   5.608  16.379  0.00  0.00    +0.000 A 
ENDBRANCH  27  36
ENDBRANCH  26  29
ENDBRANCH  25  26
ENDBRANCH  24  25
ENDBRANCH  22  24
ENDBRANCH   1  22
TORSDOF 9
ENDMDL
MODEL 7
REMARK VINA RESULT:      -7.2      2.559      8.740
REMARK  Name = 
REMARK  12 active torsions:
REMARK  status: ('A' for Active; 'I' for Inactive)
REMARK    1  A    between atoms: C_1  and  N_2
REMARK    2  A    between atoms: C_6  and  C_7
REMARK    3  A    between atoms: N_9  and  C_10
REMARK    4  A    between atoms: C_10  and  C_11
REMARK    5  A    between atoms: C_11  and  O_12
REMARK    6  A    between atoms: O_12  and  C_13
REMARK    7  A    between atoms: C_13  and  C_15
REMARK    8  A    between atoms: C_19  and  N_20
REMARK    9  A    between atoms: C_21  and  C_23
REMARK   10  A    between atoms: C_23  and  C_24
REMARK   11  A    between atoms: C_32  and  C_33
REMARK   12  A    between atoms: C_32  and  C_34
REMARK                            x       y       z     vdW  Elec       q    Type
REMARK                         _______ _______ _______ _____ _____    ______ ____
ROOT
ATOM      1  C   UNL     1      -0.909  11.230  21.121  0.00  0.00    +0.000 C 
ATOM      2  N   UNL     1       0.015  10.269  21.745  0.00  0.00    +0.000 N 
ATOM      3  C   UNL     1      -0.130   8.929  21.466  0.00  0.00    +0.000 C 
ATOM      4  O   UNL     1      -1.129   8.283  21.249  0.00  0.00    +0.000 OA
ATOM      5  C   UNL     1       1.385   8.747  21.243  0.00  0.00    +0.000 C 
ATOM      6  C   UNL     1       1.430  10.286  21.318  0.00  0.00    +0.000 C 
ATOM      7  S   UNL     1       1.385  11.229  19.734  0.00  0.00    +0.000 S 
ATOM      8  C   UNL     1      -0.023  12.243  20.355  0.00  0.00    +0.000 C 
ATOM      9  C   UNL     1      -0.744  12.878  19.160  0.00  0.00    +0.000 C 
ATOM     10  C   UNL     1       0.624  13.319  21.232  0.00  0.00    +0.000 C 
ENDROOT
BRANCH   5  11
ATOM     11  N   UNL     1       1.781   8.135  19.953  0.00  0.00    +0.000 N 
ATOM     12  C   UNL     1       2.023   6.782  19.860  0.00  0.00    +0.000 C 
ATOM     13  O   UNL     1       1.903   6.028  20.823  0.00  0.00    +0.000 OA
ATOM     14  H   UNL     1       1.879   8.715  19.126  0.00  0.00    +0.000 HD
BRANCH  12  15
ATOM     15  C   UNL     1       2.433   6.308  18.479  0.00  0.00    +0.000 C 
BRANCH  15  16
ATOM     16  C   UNL     1       2.613   4.813  18.428  0.00  0.00    +0.000 A 
ATOM     17  C   UNL     1       1.527   3.967  18.166  0.00  0.00    +0.000 A 
ATOM     18  C   UNL     1       1.696   2.582  18.171  0.00  0.00    +0.000 A 
ATOM     19  C   UNL     1       2.950   2.031  18.428  0.00  0.00    +0.000 A 
ATOM     20  C   UNL     1       4.040   2.861  18.661  0.00  0.00    +0.000 A 
ATOM     21  C   UNL     1       3.876   4.248  18.657  0.00  0.00    +0.000 A 
ENDBRANCH  15  16
ENDBRANCH  12  15
ENDBRANCH   5  11
BRANCH   1  22
ATOM     22  C   UNL     1      -1.845  11.834  22.183  0.00  0.00    +0.000 C 
ATOM     23  O   UNL     1      -1.915  11.484  23.353  0.00  0.00    +0.000 OA
BRANCH  22  24
ATOM     24  O   UNL     1      -2.602  12.837  21.654  0.00  0.00    +0.000 OA
BRANCH  24  25
ATOM     25  C   UNL     1      -4.027  12.725  21.851  0.00  0.00    +0.000 C 
BRANCH  25  26
ATOM     26  C   UNL     1      -4.735  13.166  20.557  0.00  0.00    +0.000 C 
BRANCH  26  29
ATOM     27  C   UNL     1      -4.628  11.533  18.674  0.00  0.00    +0.000 C 
ATOM     28  O   UNL     1      -5.731  11.051  18.870  0.00  0.00    +0.000 OA
ATOM     29  N   UNL     1      -4.106  12.609  19.358  0.00  0.00    +0.000 N 
ATOM     30  H   UNL     1      -3.269  13.074  19.038  0.00  0.00    +0.000 HD
BRANCH  27  36
ATOM     31  C   UNL     1      -4.115  10.249  13.945  0.00  0.00    +0.000 C 
ATOM     32  N   UNL     1      -3.566  10.292  15.314  0.00  0.00    +0.000 N 
ATOM     33  C   UNL     1      -2.367   9.715  15.571  0.00  0.00    +0.000 A 
ATOM     34  C   UNL     1      -1.841   9.724  16.858  0.00  0.00    +0.000 A 
ATOM     35  C   UNL     1      -2.553  10.330  17.887  0.00  0.00    +0.000 A 
ATOM     36  C   UNL     1      -3.783  10.935  17.609  0.00  0.00    +0.000 A 
ATOM     37  C   UNL     1      -4.278  10.890  16.303  0.00  0.00    +0.000 A 
ENDBRANCH  27  36
ENDBRANCH  26  29
ENDBRANCH  25  26
ENDBRANCH  24  25
ENDBRANCH  22  24
ENDBRANCH   1  22
TORSDOF 9
ENDMDL
MODEL 8
REMARK VINA RESULT:      -7.1      1.942      2.654
REMARK  Name = 
REMARK  12 active torsions:
REMARK  status: ('A' for Active; 'I' for Inactive)
REMARK    1  A    between atoms: C_1  and  N_2
REMARK    2  A    between atoms: C_6  and  C_7
REMARK    3  A    between atoms: N_9  and  C_10
REMARK    4  A    between atoms: C_10  and  C_11
REMARK    5  A    between atoms: C_11  and  O_12
REMARK    6  A    between atoms: O_12  and  C_13
REMARK    7  A    between atoms: C_13  and  C_15
REMARK    8  A    between atoms: C_19  and  N_20
REMARK    9  A    between atoms: C_21  and  C_23
REMARK   10  A    between atoms: C_23  and  C_24
REMARK   11  A    between atoms: C_32  and  C_33
REMARK   12  A    between atoms: C_32  and  C_34
REMARK                            x       y       z     vdW  Elec       q    Type
REMARK                         _______ _______ _______ _____ _____    ______ ____
ROOT
ATOM      1  C   UNL     1      -0.648  10.739  19.863  0.00  0.00    +0.000 C 
ATOM      2  N   UNL     1      -1.357  11.368  18.737  0.00  0.00    +0.000 N 
ATOM      3  C   UNL     1      -2.293  10.634  18.046  0.00  0.00    +0.000 C 
ATOM      4  O   UNL     1      -2.323   9.451  17.793  0.00  0.00    +0.000 OA
ATOM      5  C   UNL     1      -3.307  11.796  18.059  0.00  0.00    +0.000 C 
ATOM      6  C   UNL     1      -2.313  12.454  19.037  0.00  0.00    +0.000 C 
ATOM      7  S   UNL     1      -2.624  12.261  20.844  0.00  0.00    +0.000 S 
ATOM      8  C   UNL     1      -0.906  11.643  21.094  0.00  0.00    +0.000 C 
ATOM      9  C   UNL     1      -0.841  10.876  22.419  0.00  0.00    +0.000 C 
ATOM     10  C   UNL     1      -0.039  12.905  21.154  0.00  0.00    +0.000 C 
ENDROOT
BRANCH   5  11
ATOM     11  N   UNL     1      -4.651  11.478  18.595  0.00  0.00    +0.000 N 
ATOM     12  C   UNL     1      -5.787  11.906  17.946  0.00  0.00    +0.000 C 
ATOM     13  O   UNL     1      -5.741  12.544  16.896  0.00  0.00    +0.000 OA
ATOM     14  H   UNL     1      -4.741  10.941  19.452  0.00  0.00    +0.000 HD
BRANCH  12  15
ATOM     15  C   UNL     1      -7.086  11.515  18.623  0.00  0.00    +0.000 C 
BRANCH  15  16
ATOM     16  C   UNL     1      -7.286  12.251  19.923  0.00  0.00    +0.000 A 
ATOM     17  C   UNL     1      -7.476  11.553  21.123  0.00  0.00    +0.000 A 
ATOM     18  C   UNL     1      -7.711  12.244  22.312  0.00  0.00    +0.000 A 
ATOM     19  C   UNL     1      -7.748  13.638  22.315  0.00  0.00    +0.000 A 
ATOM     20  C   UNL     1      -7.532  14.342  21.136  0.00  0.00    +0.000 A 
ATOM     21  C   UNL     1      -7.298  13.654  19.944  0.00  0.00    +0.000 A 
ENDBRANCH  15  16
ENDBRANCH  12  15
ENDBRANCH   5  11
BRANCH   1  22
ATOM     22  C   UNL     1       0.831  10.514  19.501  0.00  0.00    +0.000 C 
ATOM     23  O   UNL     1       1.622  11.383  19.164  0.00  0.00    +0.000 OA
BRANCH  22  24
ATOM     24  O   UNL     1       1.166   9.196  19.611  0.00  0.00    +0.000 OA
BRANCH  24  25
ATOM     25  C   UNL     1       1.464   8.728  20.943  0.00  0.00    +0.000 C 
BRANCH  25  26
ATOM     26  C   UNL     1       1.549   7.192  20.914  0.00  0.00    +0.000 C 
BRANCH  26  29
ATOM     27  C   UNL     1       2.872   5.389  19.806  0.00  0.00    +0.000 C 
ATOM     28  O   UNL     1       2.394   4.474  20.457  0.00  0.00    +0.000 OA
ATOM     29  N   UNL     1       2.464   6.702  19.881  0.00  0.00    +0.000 N 
ATOM     30  H   UNL     1       2.769   7.382  19.199  0.00  0.00    +0.000 HD
BRANCH  27  36
ATOM     31  C   UNL     1       7.678   5.497  18.730  0.00  0.00    +0.000 C 
ATOM     32  N   UNL     1       6.297   5.160  18.334  0.00  0.00    +0.000 N 
ATOM     33  C   UNL     1       6.061   4.662  17.097  0.00  0.00    +0.000 A 
ATOM     34  C   UNL     1       4.765   4.358  16.694  0.00  0.00    +0.000 A 
ATOM     35  C   UNL     1       3.706   4.569  17.570  0.00  0.00    +0.000 A 
ATOM     36  C   UNL     1       3.962   5.071  18.850  0.00  0.00    +0.000 A 
ATOM     37  C   UNL     1       5.279   5.374  19.206  0.00  0.00    +0.000 A 
ENDBRANCH  27  36
ENDBRANCH  26  29
ENDBRANCH  25  26
ENDBRANCH  24  25
ENDBRANCH  22  24
ENDBRANCH   1  22
TORSDOF 9
ENDMDL
MODEL 9
REMARK VINA RESULT:      -7.1      1.883      2.324
REMARK  Name = 
REMARK  12 active torsions:
REMARK  status: ('A' for Active; 'I' for Inactive)
REMARK    1  A    between atoms: C_1  and  N_2
REMARK    2  A    between atoms: C_6  and  C_7
REMARK    3  A    between atoms: N_9  and  C_10
REMARK    4  A    between atoms: C_10  and  C_11
REMARK    5  A    between atoms: C_11  and  O_12
REMARK    6  A    between atoms: O_12  and  C_13
REMARK    7  A    between atoms: C_13  and  C_15
REMARK    8  A    between atoms: C_19  and  N_20
REMARK    9  A    between atoms: C_21  and  C_23
REMARK   10  A    between atoms: C_23  and  C_24
REMARK   11  A    between atoms: C_32  and  C_33
REMARK   12  A    between atoms: C_32  and  C_34
REMARK                            x       y       z     vdW  Elec       q    Type
REMARK                         _______ _______ _______ _____ _____    ______ ____
ROOT
ATOM      1  C   UNL     1      -0.938  11.116  20.985  0.00  0.00    +0.000 C 
ATOM      2  N   UNL     1      -1.116  11.582  19.600  0.00  0.00    +0.000 N 
ATOM      3  C   UNL     1      -1.950  10.878  18.762  0.00  0.00    +0.000 C 
ATOM      4  O   UNL     1      -2.177   9.690  18.708  0.00  0.00    +0.000 OA
ATOM      5  C   UNL     1      -2.622  12.165  18.245  0.00  0.00    +0.000 C 
ATOM      6  C   UNL     1      -1.838  12.852  19.381  0.00  0.00    +0.000 C 
ATOM      7  S   UNL     1      -2.706  13.131  20.983  0.00  0.00    +0.000 S 
ATOM      8  C   UNL     1      -1.332  12.307  21.894  0.00  0.00    +0.000 C 
ATOM      9  C   UNL     1      -1.842  11.861  23.268  0.00  0.00    +0.000 C 
ATOM     10  C   UNL     1      -0.253  13.385  22.037  0.00  0.00    +0.000 C 
ENDROOT
BRANCH   5  11
ATOM     11  N   UNL     1      -4.101  12.208  18.341  0.00  0.00    +0.000 N 
ATOM     12  C   UNL     1      -4.887  11.775  17.296  0.00  0.00    +0.000 C 
ATOM     13  O   UNL     1      -4.407  11.321  16.260  0.00  0.00    +0.000 OA
ATOM     14  H   UNL     1      -4.544  12.561  19.183  0.00  0.00    +0.000 HD
BRANCH  12  15
ATOM     15  C   UNL     1      -6.379  11.895  17.539  0.00  0.00    +0.000 C 
BRANCH  15  16
ATOM     16  C   UNL     1      -6.821  11.087  18.731  0.00  0.00    +0.000 A 
ATOM     17  C   UNL     1      -6.664   9.695  18.755  0.00  0.00    +0.000 A 
ATOM     18  C   UNL     1      -7.123   8.952  19.843  0.00  0.00    +0.000 A 
ATOM     19  C   UNL     1      -7.735   9.593  20.920  0.00  0.00    +0.000 A 
ATOM     20  C   UNL     1      -7.870  10.976  20.920  0.00  0.00    +0.000 A 
ATOM     21  C   UNL     1      -7.412  11.723  19.833  0.00  0.00    +0.000 A 
ENDBRANCH  15  16
ENDBRANCH  12  15
ENDBRANCH   5  11
BRANCH   1  22
ATOM     22  C   UNL     1       0.486  10.569  21.183  0.00  0.00    +0.000 C 
ATOM     23  O   UNL     1       0.980  10.239  22.252  0.00  0.00    +0.000 OA
BRANCH  22  24
ATOM     24  O   UNL     1       1.149  10.486  19.994  0.00  0.00    +0.000 OA
BRANCH  24  25
ATOM     25  C   UNL     1       1.497   9.156  19.555  0.00  0.00    +0.000 C 
BRANCH  25  26
ATOM     26  C   UNL     1       1.785   9.201  18.044  0.00  0.00    +0.000 C 
BRANCH  26  29
ATOM     27  C   UNL     1       2.581   6.856  18.350  0.00  0.00    +0.000 C 
ATOM     28  O   UNL     1       2.076   6.701  19.449  0.00  0.00    +0.000 OA
ATOM     29  N   UNL     1       2.417   7.972  17.559  0.00  0.00    +0.000 N 
ATOM     30  H   UNL     1       2.709   7.973  16.593  0.00  0.00    +0.000 HD
BRANCH  27  36
ATOM     31  C   UNL     1       6.596   5.497  15.839  0.00  0.00    +0.000 C 
ATOM     32  N   UNL     1       5.365   5.123  16.560  0.00  0.00    +0.000 N 
ATOM     33  C   UNL     1       5.001   3.819  16.628  0.00  0.00    +0.000 A 
ATOM     34  C   UNL     1       3.834   3.446  17.284  0.00  0.00    +0.000 A 
ATOM     35  C   UNL     1       3.034   4.419  17.872  0.00  0.00    +0.000 A 
ATOM     36  C   UNL     1       3.425   5.761  17.808  0.00  0.00    +0.000 A 
ATOM     37  C   UNL     1       4.600   6.090  17.128  0.00  0.00    +0.000 A 
ENDBRANCH  27  36
ENDBRANCH  26  29
ENDBRANCH  25  26
ENDBRANCH  24  25
ENDBRANCH  22  24
ENDBRANCH   1  22
TORSDOF 9
ENDMDL
