MODEL 1
REMARK VINA RESULT:      -7.8      0.000      0.000
REMARK  Name = 
REMARK  5 active torsions:
REMARK  status: ('A' for Active; 'I' for Inactive)
REMARK    1  A    between atoms: C_1  and  C_2
REMARK    2  A    between atoms: C_2  and  C_3
REMARK    3  A    between atoms: C_2  and  N_4
REMARK    4  A    between atoms: N_8  and  C_9
REMARK    5  A    between atoms: N_21  and  C_22
REMARK                            x       y       z     vdW  Elec       q    Type
REMARK                         _______ _______ _______ _____ _____    ______ ____
ROOT
ATOM      1  N   UNL     1       2.509  13.686  20.419  0.00  0.00    +0.000 N 
ATOM      2  C   UNL     1       1.372  13.003  20.823  0.00  0.00    +0.000 A 
ATOM      3  N   UNL     1       1.478  11.690  20.805  0.00  0.00    +0.000 NA
ATOM      4  C   UNL     1       0.396  10.997  21.129  0.00  0.00    +0.000 A 
ATOM      5  N   UNL     1       0.437   9.604  21.042  0.00  0.00    +0.000 N 
ATOM      6  N   UNL     1      -0.727  11.553  21.545  0.00  0.00    +0.000 NA
ATOM      7  C   UNL     1      -0.743  12.886  21.560  0.00  0.00    +0.000 A 
ATOM      8  N   UNL     1      -1.897  13.556  21.984  0.00  0.00    +0.000 N 
ATOM      9  N   UNL     1       0.282  13.652  21.203  0.00  0.00    +0.000 NA
ATOM     10  H   UNL     1       3.166  13.613  21.186  0.00  0.00    +0.000 HD
ATOM     11  H   UNL     1      -0.434   9.198  21.356  0.00  0.00    +0.000 HD
ATOM     12  H   UNL     1      -1.742  14.542  21.812  0.00  0.00    +0.000 HD
ENDROOT
BRANCH   5  13
ATOM     13  C   UNL     1       1.155   8.845  20.101  0.00  0.00    +0.000 A 
ATOM     14  C   UNL     1       1.395   9.303  18.795  0.00  0.00    +0.000 A 
ATOM     15  C   UNL     1       2.172   8.562  17.900  0.00  0.00    +0.000 A 
ATOM     16  C   UNL     1       2.720   7.352  18.306  0.00  0.00    +0.000 A 
ATOM     17  C   UNL     1       2.488   6.881  19.602  0.00  0.00    +0.000 A 
ATOM     18  C   UNL     1       1.682   7.606  20.482  0.00  0.00    +0.000 A 
ATOM     19  O   UNL     1       3.035   5.717  20.083  0.00  0.00    +0.000 OA
ATOM     20  C   UNL     1       4.121   5.276  19.260  0.00  0.00    +0.000 C 
ATOM     21  C   UNL     1       3.739   5.340  17.790  0.00  0.00    +0.000 C 
ATOM     22  O   UNL     1       3.492   6.690  17.387  0.00  0.00    +0.000 OA
ENDBRANCH   5  13
BRANCH   8  23
ATOM     23  C   UNL     1      -3.224  13.168  21.704  0.00  0.00    +0.000 A 
ATOM     24  C   UNL     1      -4.146  13.115  22.756  0.00  0.00    +0.000 A 
ATOM     25  C   UNL     1      -5.479  12.766  22.521  0.00  0.00    +0.000 A 
ATOM     26  C   UNL     1      -5.907  12.496  21.224  0.00  0.00    +0.000 A 
ATOM     27  C   UNL     1      -5.009  12.599  20.160  0.00  0.00    +0.000 A 
ATOM     28  C   UNL     1      -3.675  12.926  20.399  0.00  0.00    +0.000 A 
ATOM     29  O   UNL     1      -5.364  12.389  18.851  0.00  0.00    +0.000 OA
ATOM     30  C   UNL     1      -6.785  12.416  18.687  0.00  0.00    +0.000 C 
ATOM     31  C   UNL     1      -7.470  11.596  19.769  0.00  0.00    +0.000 C 
ATOM     32  O   UNL     1      -7.225  12.151  21.066  0.00  0.00    +0.000 OA
ENDBRANCH   8  23
BRANCH   1  34
ATOM     33  C   UNL     1       3.271  15.960  20.690  0.00  0.00    +0.000 C 
ATOM     34  C   UNL     1       2.356  15.032  19.887  0.00  0.00    +0.000 C 
ATOM     35  C   UNL     1       2.779  15.063  18.414  0.00  0.00    +0.000 C 
ENDBRANCH   1  34
TORSDOF 3
ENDMDL
MODEL 2
REMARK VINA RESULT:      -7.8      2.140      8.524
REMARK  Name = 
REMARK  5 active torsions:
REMARK  status: ('A' for Active; 'I' for Inactive)
REMARK    1  A    between atoms: C_1  and  C_2
REMARK    2  A    between atoms: C_2  and  C_3
REMARK    3  A    between atoms: C_2  and  N_4
REMARK    4  A    between atoms: N_8  and  C_9
REMARK    5  A    between atoms: N_21  and  C_22
REMARK                            x       y       z     vdW  Elec       q    Type
REMARK                         _______ _______ _______ _____ _____    ______ ____
ROOT
ATOM      1  N   UNL     1       1.425  13.493  18.659  0.00  0.00    +0.000 N 
ATOM      2  C   UNL     1       1.083  12.167  18.441  0.00  0.00    +0.000 A 
ATOM      3  N   UNL     1      -0.197  11.955  18.217  0.00  0.00    +0.000 NA
ATOM      4  C   UNL     1      -0.577  10.694  18.060  0.00  0.00    +0.000 A 
ATOM      5  N   UNL     1      -1.937  10.415  17.906  0.00  0.00    +0.000 N 
ATOM      6  N   UNL     1       0.265   9.679  18.030  0.00  0.00    +0.000 NA
ATOM      7  C   UNL     1       1.547   9.982  18.238  0.00  0.00    +0.000 A 
ATOM      8  N   UNL     1       2.507   8.962  18.226  0.00  0.00    +0.000 N 
ATOM      9  N   UNL     1       2.000  11.212  18.452  0.00  0.00    +0.000 NA
ATOM     10  H   UNL     1       1.391  13.944  17.753  0.00  0.00    +0.000 HD
ATOM     11  H   UNL     1      -2.087   9.427  17.753  0.00  0.00    +0.000 HD
ATOM     12  H   UNL     1       3.382   9.382  18.513  0.00  0.00    +0.000 HD
ENDROOT
BRANCH   5  13
ATOM     13  C   UNL     1      -3.007  11.104  18.504  0.00  0.00    +0.000 A 
ATOM     14  C   UNL     1      -2.828  11.947  19.614  0.00  0.00    +0.000 A 
ATOM     15  C   UNL     1      -3.894  12.676  20.147  0.00  0.00    +0.000 A 
ATOM     16  C   UNL     1      -5.153  12.573  19.571  0.00  0.00    +0.000 A 
ATOM     17  C   UNL     1      -5.348  11.736  18.468  0.00  0.00    +0.000 A 
ATOM     18  C   UNL     1      -4.289  10.980  17.960  0.00  0.00    +0.000 A 
ATOM     19  O   UNL     1      -6.554  11.620  17.821  0.00  0.00    +0.000 OA
ATOM     20  C   UNL     1      -7.433  12.696  18.167  0.00  0.00    +0.000 C 
ATOM     21  C   UNL     1      -7.439  12.922  19.670  0.00  0.00    +0.000 C 
ATOM     22  O   UNL     1      -6.147  13.334  20.128  0.00  0.00    +0.000 OA
ENDBRANCH   5  13
BRANCH   8  23
ATOM     23  C   UNL     1       2.337   7.667  18.756  0.00  0.00    +0.000 A 
ATOM     24  C   UNL     1       1.950   7.533  20.095  0.00  0.00    +0.000 A 
ATOM     25  C   UNL     1       1.739   6.270  20.656  0.00  0.00    +0.000 A 
ATOM     26  C   UNL     1       1.885   5.130  19.871  0.00  0.00    +0.000 A 
ATOM     27  C   UNL     1       2.216   5.253  18.520  0.00  0.00    +0.000 A 
ATOM     28  C   UNL     1       2.448   6.512  17.969  0.00  0.00    +0.000 A 
ATOM     29  O   UNL     1       2.338   4.180  17.673  0.00  0.00    +0.000 OA
ATOM     30  C   UNL     1       1.744   3.005  18.232  0.00  0.00    +0.000 C 
ATOM     31  C   UNL     1       2.152   2.835  19.688  0.00  0.00    +0.000 C 
ATOM     32  O   UNL     1       1.671   3.923  20.486  0.00  0.00    +0.000 OA
ENDBRANCH   8  23
BRANCH   1  34
ATOM     33  C   UNL     1       3.590  14.551  18.516  0.00  0.00    +0.000 C 
ATOM     34  C   UNL     1       2.629  13.780  19.425  0.00  0.00    +0.000 C 
ATOM     35  C   UNL     1       2.281  14.649  20.638  0.00  0.00    +0.000 C 
ENDBRANCH   1  34
TORSDOF 3
ENDMDL
MODEL 3
REMARK VINA RESULT:      -7.8      0.878      1.613
REMARK  Name = 
REMARK  5 active torsions:
REMARK  status: ('A' for Active; 'I' for Inactive)
REMARK    1  A    between atoms: C_1  and  C_2
REMARK    2  A    between atoms: C_2  and  C_3
REMARK    3  A    between atoms: C_2  and  N_4
REMARK    4  A    between atoms: N_8  and  C_9
REMARK    5  A    between atoms: N_21  and  C_22
REMARK                            x       y       z     vdW  Elec       q    Type
REMARK                         _______ _______ _______ _____ _____    ______ ____
ROOT
ATOM      1  N   UNL     1       2.611  13.761  20.382  0.00  0.00    +0.000 N 
ATOM      2  C   UNL     1       1.474  13.127  20.858  0.00  0.00    +0.000 A 
ATOM      3  N   UNL     1       1.535  11.811  20.865  0.00  0.00    +0.000 NA
ATOM      4  C   UNL     1       0.448  11.163  21.259  0.00  0.00    +0.000 A 
ATOM      5  N   UNL     1       0.437   9.768  21.201  0.00  0.00    +0.000 N 
ATOM      6  N   UNL     1      -0.632  11.766  21.718  0.00  0.00    +0.000 NA
ATOM      7  C   UNL     1      -0.603  13.099  21.704  0.00  0.00    +0.000 A 
ATOM      8  N   UNL     1      -1.711  13.818  22.171  0.00  0.00    +0.000 N 
ATOM      9  N   UNL     1       0.427  13.821  21.278  0.00  0.00    +0.000 NA
ATOM     10  H   UNL     1       3.304  13.682  21.116  0.00  0.00    +0.000 HD
ATOM     11  H   UNL     1      -0.429   9.398  21.568  0.00  0.00    +0.000 HD
ATOM     12  H   UNL     1      -1.532  14.794  21.969  0.00  0.00    +0.000 HD
ENDROOT
BRANCH   5  13
ATOM     13  C   UNL     1       1.080   8.964  20.242  0.00  0.00    +0.000 A 
ATOM     14  C   UNL     1       1.262   9.384  18.914  0.00  0.00    +0.000 A 
ATOM     15  C   UNL     1       1.966   8.598  17.997  0.00  0.00    +0.000 A 
ATOM     16  C   UNL     1       2.501   7.382  18.404  0.00  0.00    +0.000 A 
ATOM     17  C   UNL     1       2.326   6.950  19.722  0.00  0.00    +0.000 A 
ATOM     18  C   UNL     1       1.591   7.720  20.626  0.00  0.00    +0.000 A 
ATOM     19  O   UNL     1       2.865   5.782  20.203  0.00  0.00    +0.000 OA
ATOM     20  C   UNL     1       3.890   5.288  19.333  0.00  0.00    +0.000 C 
ATOM     21  C   UNL     1       3.431   5.328  17.885  0.00  0.00    +0.000 C 
ATOM     22  O   UNL     1       3.201   6.675  17.461  0.00  0.00    +0.000 OA
ENDBRANCH   5  13
BRANCH   8  23
ATOM     23  C   UNL     1      -3.062  13.470  21.967  0.00  0.00    +0.000 A 
ATOM     24  C   UNL     1      -3.467  13.062  20.690  0.00  0.00    +0.000 A 
ATOM     25  C   UNL     1      -4.789  12.678  20.448  0.00  0.00    +0.000 A 
ATOM     26  C   UNL     1      -5.711  12.670  21.490  0.00  0.00    +0.000 A 
ATOM     27  C   UNL     1      -5.306  13.022  22.779  0.00  0.00    +0.000 A 
ATOM     28  C   UNL     1      -3.993  13.427  23.014  0.00  0.00    +0.000 A 
ATOM     29  O   UNL     1      -6.145  13.001  23.865  0.00  0.00    +0.000 OA
ATOM     30  C   UNL     1      -7.331  12.250  23.591  0.00  0.00    +0.000 C 
ATOM     31  C   UNL     1      -7.906  12.623  22.233  0.00  0.00    +0.000 C 
ATOM     32  O   UNL     1      -6.992  12.291  21.181  0.00  0.00    +0.000 OA
ENDBRANCH   8  23
BRANCH   1  34
ATOM     33  C   UNL     1       3.447  16.017  20.577  0.00  0.00    +0.000 C 
ATOM     34  C   UNL     1       2.476  15.100  19.828  0.00  0.00    +0.000 C 
ATOM     35  C   UNL     1       2.844  15.090  18.340  0.00  0.00    +0.000 C 
ENDBRANCH   1  34
TORSDOF 3
ENDMDL
MODEL 4
REMARK VINA RESULT:      -7.7      3.512      7.494
REMARK  Name = 
REMARK  5 active torsions:
REMARK  status: ('A' for Active; 'I' for Inactive)
REMARK    1  A    between atoms: C_1  and  C_2
REMARK    2  A    between atoms: C_2  and  C_3
REMARK    3  A    between atoms: C_2  and  N_4
REMARK    4  A    between atoms: N_8  and  C_9
REMARK    5  A    between atoms: N_21  and  C_22
REMARK                            x       y       z     vdW  Elec       q    Type
REMARK                         _______ _______ _______ _____ _____    ______ ____
ROOT
ATOM      1  N   UNL     1      -1.634  11.319  19.008  0.00  0.00    +0.000 N 
ATOM      2  C   UNL     1      -0.289  11.506  18.727  0.00  0.00    +0.000 A 
ATOM      3  N   UNL     1       0.392  10.398  18.517  0.00  0.00    +0.000 NA
ATOM      4  C   UNL     1       1.694  10.527  18.301  0.00  0.00    +0.000 A 
ATOM      5  N   UNL     1       2.470   9.375  18.158  0.00  0.00    +0.000 N 
ATOM      6  N   UNL     1       2.302  11.693  18.201  0.00  0.00    +0.000 NA
ATOM      7  C   UNL     1       1.536  12.767  18.400  0.00  0.00    +0.000 A 
ATOM      8  N   UNL     1       2.104  14.044  18.316  0.00  0.00    +0.000 N 
ATOM      9  N   UNL     1       0.237  12.719  18.670  0.00  0.00    +0.000 NA
ATOM     10  H   UNL     1      -2.073  11.079  18.127  0.00  0.00    +0.000 HD
ATOM     11  H   UNL     1       3.432   9.612  17.956  0.00  0.00    +0.000 HD
ATOM     12  H   UNL     1       1.391  14.700  18.609  0.00  0.00    +0.000 HD
ENDROOT
BRANCH   5  13
ATOM     13  C   UNL     1       2.273   8.146  18.812  0.00  0.00    +0.000 A 
ATOM     14  C   UNL     1       1.830   8.068  20.143  0.00  0.00    +0.000 A 
ATOM     15  C   UNL     1       1.574   6.835  20.748  0.00  0.00    +0.000 A 
ATOM     16  C   UNL     1       1.756   5.663  20.025  0.00  0.00    +0.000 A 
ATOM     17  C   UNL     1       2.200   5.724  18.700  0.00  0.00    +0.000 A 
ATOM     18  C   UNL     1       2.490   6.956  18.109  0.00  0.00    +0.000 A 
ATOM     19  O   UNL     1       2.358   4.610  17.913  0.00  0.00    +0.000 OA
ATOM     20  C   UNL     1       1.680   3.480  18.473  0.00  0.00    +0.000 C 
ATOM     21  C   UNL     1       1.974   3.361  19.959  0.00  0.00    +0.000 C 
ATOM     22  O   UNL     1       1.462   4.492  20.671  0.00  0.00    +0.000 OA
ENDBRANCH   5  13
BRANCH   8  23
ATOM     23  C   UNL     1       3.385  14.406  18.781  0.00  0.00    +0.000 A 
ATOM     24  C   UNL     1       3.590  14.535  20.160  0.00  0.00    +0.000 A 
ATOM     25  C   UNL     1       4.850  14.862  20.669  0.00  0.00    +0.000 A 
ATOM     26  C   UNL     1       5.925  15.033  19.802  0.00  0.00    +0.000 A 
ATOM     27  C   UNL     1       5.746  14.853  18.429  0.00  0.00    +0.000 A 
ATOM     28  C   UNL     1       4.484  14.549  17.921  0.00  0.00    +0.000 A 
ATOM     29  O   UNL     1       6.764  14.964  17.515  0.00  0.00    +0.000 OA
ATOM     30  C   UNL     1       8.043  14.920  18.153  0.00  0.00    +0.000 C 
ATOM     31  C   UNL     1       8.065  15.817  19.381  0.00  0.00    +0.000 C 
ATOM     32  O   UNL     1       7.131  15.361  20.367  0.00  0.00    +0.000 OA
ENDBRANCH   8  23
BRANCH   1  34
ATOM     33  C   UNL     1      -3.830  12.199  19.484  0.00  0.00    +0.000 C 
ATOM     34  C   UNL     1      -2.332  12.346  19.765  0.00  0.00    +0.000 C 
ATOM     35  C   UNL     1      -2.082  12.152  21.264  0.00  0.00    +0.000 C 
ENDBRANCH   1  34
TORSDOF 3
ENDMDL
MODEL 5
REMARK VINA RESULT:      -7.6      2.205      8.563
REMARK  Name = 
REMARK  5 active torsions:
REMARK  status: ('A' for Active; 'I' for Inactive)
REMARK    1  A    between atoms: C_1  and  C_2
REMARK    2  A    between atoms: C_2  and  C_3
REMARK    3  A    between atoms: C_2  and  N_4
REMARK    4  A    between atoms: N_8  and  C_9
REMARK    5  A    between atoms: N_21  and  C_22
REMARK                            x       y       z     vdW  Elec       q    Type
REMARK                         _______ _______ _______ _____ _____    ______ ____
ROOT
ATOM      1  N   UNL     1       1.922  14.129  18.543  0.00  0.00    +0.000 N 
ATOM      2  C   UNL     1       1.406  12.850  18.689  0.00  0.00    +0.000 A 
ATOM      3  N   UNL     1       0.233  12.791  19.284  0.00  0.00    +0.000 NA
ATOM      4  C   UNL     1      -0.271  11.583  19.496  0.00  0.00    +0.000 A 
ATOM      5  N   UNL     1      -1.472  11.468  20.199  0.00  0.00    +0.000 N 
ATOM      6  N   UNL     1       0.297  10.472  19.066  0.00  0.00    +0.000 NA
ATOM      7  C   UNL     1       1.470  10.621  18.450  0.00  0.00    +0.000 A 
ATOM      8  N   UNL     1       2.143   9.492  17.967  0.00  0.00    +0.000 N 
ATOM      9  N   UNL     1       2.064  11.791  18.244  0.00  0.00    +0.000 NA
ATOM     10  H   UNL     1       1.393  14.561  17.795  0.00  0.00    +0.000 HD
ATOM     11  H   UNL     1      -1.767  10.503  20.254  0.00  0.00    +0.000 HD
ATOM     12  H   UNL     1       3.049   9.808  17.643  0.00  0.00    +0.000 HD
ENDROOT
BRANCH   5  13
ATOM     13  C   UNL     1      -1.912  12.296  21.248  0.00  0.00    +0.000 A 
ATOM     14  C   UNL     1      -1.204  12.413  22.456  0.00  0.00    +0.000 A 
ATOM     15  C   UNL     1      -1.622  13.295  23.456  0.00  0.00    +0.000 A 
ATOM     16  C   UNL     1      -2.754  14.074  23.254  0.00  0.00    +0.000 A 
ATOM     17  C   UNL     1      -3.471  13.967  22.059  0.00  0.00    +0.000 A 
ATOM     18  C   UNL     1      -3.072  13.058  21.076  0.00  0.00    +0.000 A 
ATOM     19  O   UNL     1      -4.571  14.738  21.775  0.00  0.00    +0.000 OA
ATOM     20  C   UNL     1      -4.652  15.868  22.651  0.00  0.00    +0.000 C 
ATOM     21  C   UNL     1      -4.418  15.446  24.093  0.00  0.00    +0.000 C 
ATOM     22  O   UNL     1      -3.092  14.936  24.265  0.00  0.00    +0.000 OA
ENDBRANCH   5  13
BRANCH   8  23
ATOM     23  C   UNL     1       2.213   8.239  18.609  0.00  0.00    +0.000 A 
ATOM     24  C   UNL     1       1.810   8.145  19.947  0.00  0.00    +0.000 A 
ATOM     25  C   UNL     1       1.833   6.918  20.616  0.00  0.00    +0.000 A 
ATOM     26  C   UNL     1       2.232   5.767  19.942  0.00  0.00    +0.000 A 
ATOM     27  C   UNL     1       2.583   5.839  18.592  0.00  0.00    +0.000 A 
ATOM     28  C   UNL     1       2.581   7.068  17.933  0.00  0.00    +0.000 A 
ATOM     29  O   UNL     1       2.948   4.744  17.849  0.00  0.00    +0.000 OA
ATOM     30  C   UNL     1       2.578   3.526  18.501  0.00  0.00    +0.000 C 
ATOM     31  C   UNL     1       2.956   3.566  19.974  0.00  0.00    +0.000 C 
ATOM     32  O   UNL     1       2.239   4.599  20.660  0.00  0.00    +0.000 OA
ENDBRANCH   8  23
BRANCH   1  34
ATOM     33  C   UNL     1       3.632  15.430  17.442  0.00  0.00    +0.000 C 
ATOM     34  C   UNL     1       3.364  14.284  18.423  0.00  0.00    +0.000 C 
ATOM     35  C   UNL     1       3.968  14.640  19.786  0.00  0.00    +0.000 C 
ENDBRANCH   1  34
TORSDOF 3
ENDMDL
MODEL 6
REMARK VINA RESULT:      -7.6      2.141      8.293
REMARK  Name = 
REMARK  5 active torsions:
REMARK  status: ('A' for Active; 'I' for Inactive)
REMARK    1  A    between atoms: C_1  and  C_2
REMARK    2  A    between atoms: C_2  and  C_3
REMARK    3  A    between atoms: C_2  and  N_4
REMARK    4  A    between atoms: N_8  and  C_9
REMARK    5  A    between atoms: N_21  and  C_22
REMARK                            x       y       z     vdW  Elec       q    Type
REMARK                         _______ _______ _______ _____ _____    ______ ____
ROOT
ATOM      1  N   UNL     1       1.825  14.013  18.556  0.00  0.00    +0.000 N 
ATOM      2  C   UNL     1       1.330  12.718  18.547  0.00  0.00    +0.000 A 
ATOM      3  N   UNL     1       0.033  12.619  18.756  0.00  0.00    +0.000 NA
ATOM      4  C   UNL     1      -0.473  11.395  18.813  0.00  0.00    +0.000 A 
ATOM      5  N   UNL     1      -1.827  11.239  19.117  0.00  0.00    +0.000 N 
ATOM      6  N   UNL     1       0.234  10.304  18.586  0.00  0.00    +0.000 NA
ATOM      7  C   UNL     1       1.534  10.493  18.357  0.00  0.00    +0.000 A 
ATOM      8  N   UNL     1       2.358   9.387  18.111  0.00  0.00    +0.000 N 
ATOM      9  N   UNL     1       2.126  11.681  18.333  0.00  0.00    +0.000 NA
ATOM     10  H   UNL     1       1.535  14.429  17.678  0.00  0.00    +0.000 HD
ATOM     11  H   UNL     1      -2.093  10.265  19.086  0.00  0.00    +0.000 HD
ATOM     12  H   UNL     1       3.309   9.733  18.077  0.00  0.00    +0.000 HD
ENDROOT
BRANCH   5  13
ATOM     13  C   UNL     1      -2.592  12.050  19.975  0.00  0.00    +0.000 A 
ATOM     14  C   UNL     1      -3.879  12.496  19.632  0.00  0.00    +0.000 A 
ATOM     15  C   UNL     1      -4.648  13.241  20.530  0.00  0.00    +0.000 A 
ATOM     16  C   UNL     1      -4.136  13.546  21.785  0.00  0.00    +0.000 A 
ATOM     17  C   UNL     1      -2.855  13.112  22.139  0.00  0.00    +0.000 A 
ATOM     18  C   UNL     1      -2.075  12.399  21.227  0.00  0.00    +0.000 A 
ATOM     19  O   UNL     1      -2.305  13.339  23.376  0.00  0.00    +0.000 OA
ATOM     20  C   UNL     1      -3.306  13.719  24.327  0.00  0.00    +0.000 C 
ATOM     21  C   UNL     1      -4.227  14.777  23.742  0.00  0.00    +0.000 C 
ATOM     22  O   UNL     1      -4.953  14.258  22.623  0.00  0.00    +0.000 OA
ENDBRANCH   5  13
BRANCH   8  23
ATOM     23  C   UNL     1       2.269   8.136  18.754  0.00  0.00    +0.000 A 
ATOM     24  C   UNL     1       1.756   8.083  20.056  0.00  0.00    +0.000 A 
ATOM     25  C   UNL     1       1.620   6.862  20.722  0.00  0.00    +0.000 A 
ATOM     26  C   UNL     1       1.968   5.678  20.078  0.00  0.00    +0.000 A 
ATOM     27  C   UNL     1       2.428   5.713  18.761  0.00  0.00    +0.000 A 
ATOM     28  C   UNL     1       2.585   6.933  18.106  0.00  0.00    +0.000 A 
ATOM     29  O   UNL     1       2.752   4.587  18.045  0.00  0.00    +0.000 OA
ATOM     30  C   UNL     1       2.227   3.409  18.664  0.00  0.00    +0.000 C 
ATOM     31  C   UNL     1       2.492   3.422  20.162  0.00  0.00    +0.000 C 
ATOM     32  O   UNL     1       1.817   4.517  20.792  0.00  0.00    +0.000 OA
ENDBRANCH   8  23
BRANCH   1  34
ATOM     33  C   UNL     1       3.877  14.963  17.711  0.00  0.00    +0.000 C 
ATOM     34  C   UNL     1       3.229  14.216  18.880  0.00  0.00    +0.000 C 
ATOM     35  C   UNL     1       3.355  15.065  20.149  0.00  0.00    +0.000 C 
ENDBRANCH   1  34
TORSDOF 3
ENDMDL
MODEL 7
REMARK VINA RESULT:      -7.5      2.077      8.345
REMARK  Name = 
REMARK  5 active torsions:
REMARK  status: ('A' for Active; 'I' for Inactive)
REMARK    1  A    between atoms: C_1  and  C_2
REMARK    2  A    between atoms: C_2  and  C_3
REMARK    3  A    between atoms: C_2  and  N_4
REMARK    4  A    between atoms: N_8  and  C_9
REMARK    5  A    between atoms: N_21  and  C_22
REMARK                            x       y       z     vdW  Elec       q    Type
REMARK                         _______ _______ _______ _____ _____    ______ ____
ROOT
ATOM      1  N   UNL     1      -0.024  14.427  18.725  0.00  0.00    +0.000 N 
ATOM      2  C   UNL     1      -0.094  13.058  18.515  0.00  0.00    +0.000 A 
ATOM      3  N   UNL     1      -1.283  12.612  18.166  0.00  0.00    +0.000 NA
ATOM      4  C   UNL     1      -1.409  11.302  18.010  0.00  0.00    +0.000 A 
ATOM      5  N   UNL     1      -2.670  10.775  17.724  0.00  0.00    +0.000 N 
ATOM      6  N   UNL     1      -0.398  10.458  18.100  0.00  0.00    +0.000 NA
ATOM      7  C   UNL     1       0.777  10.994  18.430  0.00  0.00    +0.000 A 
ATOM      8  N   UNL     1       1.902  10.168  18.551  0.00  0.00    +0.000 N 
ATOM      9  N   UNL     1       0.974  12.288  18.652  0.00  0.00    +0.000 NA
ATOM     10  H   UNL     1      -0.041  14.853  17.806  0.00  0.00    +0.000 HD
ATOM     11  H   UNL     1      -2.621   9.775  17.588  0.00  0.00    +0.000 HD
ATOM     12  H   UNL     1       2.650  10.745  18.915  0.00  0.00    +0.000 HD
ENDROOT
BRANCH   5  13
ATOM     13  C   UNL     1      -3.906  11.263  18.185  0.00  0.00    +0.000 A 
ATOM     14  C   UNL     1      -5.090  11.122  17.442  0.00  0.00    +0.000 A 
ATOM     15  C   UNL     1      -6.318  11.552  17.952  0.00  0.00    +0.000 A 
ATOM     16  C   UNL     1      -6.374  12.126  19.215  0.00  0.00    +0.000 A 
ATOM     17  C   UNL     1      -5.203  12.277  19.965  0.00  0.00    +0.000 A 
ATOM     18  C   UNL     1      -3.973  11.880  19.438  0.00  0.00    +0.000 A 
ATOM     19  O   UNL     1      -5.192  12.795  21.237  0.00  0.00    +0.000 OA
ATOM     20  C   UNL     1      -6.506  12.801  21.806  0.00  0.00    +0.000 C 
ATOM     21  C   UNL     1      -7.517  13.349  20.813  0.00  0.00    +0.000 C 
ATOM     22  O   UNL     1      -7.613  12.502  19.663  0.00  0.00    +0.000 OA
ENDBRANCH   5  13
BRANCH   8  23
ATOM     23  C   UNL     1       1.913   8.870  19.102  0.00  0.00    +0.000 A 
ATOM     24  C   UNL     1       1.322   8.664  20.354  0.00  0.00    +0.000 A 
ATOM     25  C   UNL     1       1.282   7.390  20.926  0.00  0.00    +0.000 A 
ATOM     26  C   UNL     1       1.807   6.302  20.234  0.00  0.00    +0.000 A 
ATOM     27  C   UNL     1       2.350   6.485  18.960  0.00  0.00    +0.000 A 
ATOM     28  C   UNL     1       2.410   7.761  18.402  0.00  0.00    +0.000 A 
ATOM     29  O   UNL     1       2.850   5.458  18.199  0.00  0.00    +0.000 OA
ATOM     30  C   UNL     1       2.424   4.187  18.697  0.00  0.00    +0.000 C 
ATOM     31  C   UNL     1       2.581   4.118  20.208  0.00  0.00    +0.000 C 
ATOM     32  O   UNL     1       1.743   5.082  20.856  0.00  0.00    +0.000 OA
ENDBRANCH   8  23
BRANCH   1  34
ATOM     33  C   UNL     1       2.043  15.674  18.735  0.00  0.00    +0.000 C 
ATOM     34  C   UNL     1       1.017  14.940  19.603  0.00  0.00    +0.000 C 
ATOM     35  C   UNL     1       0.414  15.927  20.608  0.00  0.00    +0.000 C 
ENDBRANCH   1  34
TORSDOF 3
ENDMDL
MODEL 8
REMARK VINA RESULT:      -7.5      2.228      8.377
REMARK  Name = 
REMARK  5 active torsions:
REMARK  status: ('A' for Active; 'I' for Inactive)
REMARK    1  A    between atoms: C_1  and  C_2
REMARK    2  A    between atoms: C_2  and  C_3
REMARK    3  A    between atoms: C_2  and  N_4
REMARK    4  A    between atoms: N_8  and  C_9
REMARK    5  A    between atoms: N_21  and  C_22
REMARK                            x       y       z     vdW  Elec       q    Type
REMARK                         _______ _______ _______ _____ _____    ______ ____
ROOT
ATOM      1  N   UNL     1       1.176  13.460  18.885  0.00  0.00    +0.000 N 
ATOM      2  C   UNL     1       0.920  12.132  18.578  0.00  0.00    +0.000 A 
ATOM      3  N   UNL     1      -0.314  11.881  18.191  0.00  0.00    +0.000 NA
ATOM      4  C   UNL     1      -0.618  10.615  17.943  0.00  0.00    +0.000 A 
ATOM      5  N   UNL     1      -1.935  10.290  17.612  0.00  0.00    +0.000 N 
ATOM      6  N   UNL     1       0.265   9.634  17.980  0.00  0.00    +0.000 NA
ATOM      7  C   UNL     1       1.497   9.977  18.355  0.00  0.00    +0.000 A 
ATOM      8  N   UNL     1       2.494   8.995  18.426  0.00  0.00    +0.000 N 
ATOM      9  N   UNL     1       1.868  11.213  18.668  0.00  0.00    +0.000 NA
ATOM     10  H   UNL     1       1.233  13.946  17.997  0.00  0.00    +0.000 HD
ATOM     11  H   UNL     1      -2.023   9.304  17.407  0.00  0.00    +0.000 HD
ATOM     12  H   UNL     1       3.309   9.436  18.834  0.00  0.00    +0.000 HD
ENDROOT
BRANCH   5  13
ATOM     13  C   UNL     1      -3.099  10.914  18.098  0.00  0.00    +0.000 A 
ATOM     14  C   UNL     1      -4.373  10.630  17.578  0.00  0.00    +0.000 A 
ATOM     15  C   UNL     1      -5.521  11.208  18.124  0.00  0.00    +0.000 A 
ATOM     16  C   UNL     1      -5.407  12.077  19.202  0.00  0.00    +0.000 A 
ATOM     17  C   UNL     1      -4.146  12.372  19.728  0.00  0.00    +0.000 A 
ATOM     18  C   UNL     1      -2.996  11.821  19.158  0.00  0.00    +0.000 A 
ATOM     19  O   UNL     1      -3.963  13.185  20.820  0.00  0.00    +0.000 OA
ATOM     20  C   UNL     1      -5.187  13.371  21.539  0.00  0.00    +0.000 C 
ATOM     21  C   UNL     1      -6.327  13.688  20.584  0.00  0.00    +0.000 C 
ATOM     22  O   UNL     1      -6.575  12.588  19.703  0.00  0.00    +0.000 OA
ENDBRANCH   5  13
BRANCH   8  23
ATOM     23  C   UNL     1       2.316   7.674  18.884  0.00  0.00    +0.000 A 
ATOM     24  C   UNL     1       1.899   7.470  20.205  0.00  0.00    +0.000 A 
ATOM     25  C   UNL     1       1.680   6.179  20.694  0.00  0.00    +0.000 A 
ATOM     26  C   UNL     1       1.847   5.081  19.855  0.00  0.00    +0.000 A 
ATOM     27  C   UNL     1       2.210   5.275  18.521  0.00  0.00    +0.000 A 
ATOM     28  C   UNL     1       2.450   6.562  18.041  0.00  0.00    +0.000 A 
ATOM     29  O   UNL     1       2.355   4.248  17.622  0.00  0.00    +0.000 OA
ATOM     30  C   UNL     1       1.752   3.044  18.106  0.00  0.00    +0.000 C 
ATOM     31  C   UNL     1       2.126   2.800  19.560  0.00  0.00    +0.000 C 
ATOM     32  O   UNL     1       1.624   3.844  20.402  0.00  0.00    +0.000 OA
ENDBRANCH   8  23
BRANCH   1  34
ATOM     33  C   UNL     1       3.146  14.829  19.150  0.00  0.00    +0.000 C 
ATOM     34  C   UNL     1       2.263  13.761  19.803  0.00  0.00    +0.000 C 
ATOM     35  C   UNL     1       1.700  14.313  21.117  0.00  0.00    +0.000 C 
ENDBRANCH   1  34
TORSDOF 3
ENDMDL
MODEL 9
REMARK VINA RESULT:      -7.4      2.323      8.496
REMARK  Name = 
REMARK  5 active torsions:
REMARK  status: ('A' for Active; 'I' for Inactive)
REMARK    1  A    between atoms: C_1  and  C_2
REMARK    2  A    between atoms: C_2  and  C_3
REMARK    3  A    between atoms: C_2  and  N_4
REMARK    4  A    between atoms: N_8  and  C_9
REMARK    5  A    between atoms: N_21  and  C_22
REMARK                            x       y       z     vdW  Elec       q    Type
REMARK                         _______ _______ _______ _____ _____    ______ ____
ROOT
ATOM      1  N   UNL     1       2.177  13.925  18.604  0.00  0.00    +0.000 N 
ATOM      2  C   UNL     1       1.744  12.608  18.566  0.00  0.00    +0.000 A 
ATOM      3  N   UNL     1       0.555  12.401  19.094  0.00  0.00    +0.000 NA
ATOM      4  C   UNL     1       0.127  11.147  19.131  0.00  0.00    +0.000 A 
ATOM      5  N   UNL     1      -1.090  10.869  19.758  0.00  0.00    +0.000 N 
ATOM      6  N   UNL     1       0.784  10.137  18.593  0.00  0.00    +0.000 NA
ATOM      7  C   UNL     1       1.967  10.437  18.055  0.00  0.00    +0.000 A 
ATOM      8  N   UNL     1       2.733   9.422  17.467  0.00  0.00    +0.000 N 
ATOM      9  N   UNL     1       2.488  11.657  18.024  0.00  0.00    +0.000 NA
ATOM     10  H   UNL     1       1.648  14.414  17.892  0.00  0.00    +0.000 HD
ATOM     11  H   UNL     1      -1.320   9.888  19.679  0.00  0.00    +0.000 HD
ATOM     12  H   UNL     1       3.627   9.833  17.227  0.00  0.00    +0.000 HD
ENDROOT
BRANCH   5  13
ATOM     13  C   UNL     1      -1.624  11.528  20.880  0.00  0.00    +0.000 A 
ATOM     14  C   UNL     1      -1.114  11.334  22.175  0.00  0.00    +0.000 A 
ATOM     15  C   UNL     1      -1.615  12.053  23.264  0.00  0.00    +0.000 A 
ATOM     16  C   UNL     1      -2.631  12.979  23.067  0.00  0.00    +0.000 A 
ATOM     17  C   UNL     1      -3.151  13.180  21.784  0.00  0.00    +0.000 A 
ATOM     18  C   UNL     1      -2.674  12.435  20.704  0.00  0.00    +0.000 A 
ATOM     19  O   UNL     1      -4.124  14.110  21.510  0.00  0.00    +0.000 OA
ATOM     20  C   UNL     1      -4.253  15.056  22.578  0.00  0.00    +0.000 C 
ATOM     21  C   UNL     1      -4.291  14.346  23.921  0.00  0.00    +0.000 C 
ATOM     22  O   UNL     1      -3.057  13.666  24.173  0.00  0.00    +0.000 OA
ENDBRANCH   5  13
BRANCH   8  23
ATOM     23  C   UNL     1       2.864   8.104  17.952  0.00  0.00    +0.000 A 
ATOM     24  C   UNL     1       3.810   7.260  17.359  0.00  0.00    +0.000 A 
ATOM     25  C   UNL     1       3.997   5.956  17.826  0.00  0.00    +0.000 A 
ATOM     26  C   UNL     1       3.258   5.495  18.912  0.00  0.00    +0.000 A 
ATOM     27  C   UNL     1       2.351   6.346  19.546  0.00  0.00    +0.000 A 
ATOM     28  C   UNL     1       2.149   7.639  19.065  0.00  0.00    +0.000 A 
ATOM     29  O   UNL     1       1.616   5.980  20.646  0.00  0.00    +0.000 OA
ATOM     30  C   UNL     1       2.147   4.801  21.257  0.00  0.00    +0.000 C 
ATOM     31  C   UNL     1       2.466   3.746  20.209  0.00  0.00    +0.000 C 
ATOM     32  O   UNL     1       3.485   4.204  19.314  0.00  0.00    +0.000 OA
ENDBRANCH   8  23
BRANCH   1  34
ATOM     33  C   UNL     1       3.860  15.292  17.544  0.00  0.00    +0.000 C 
ATOM     34  C   UNL     1       3.608  14.184  18.571  0.00  0.00    +0.000 C 
ATOM     35  C   UNL     1       4.086  14.659  19.947  0.00  0.00    +0.000 C 
ENDBRANCH   1  34
TORSDOF 3
ENDMDL
