MODEL 1
REMARK VINA RESULT:      -8.2      0.000      0.000
REMARK  Name = 
REMARK  7 active torsions:
REMARK  status: ('A' for Active; 'I' for Inactive)
REMARK    1  A    between atoms: N_1  and  C_2
REMARK    2  A    between atoms: C_2  and  C_3
REMARK    3  A    between atoms: C_3  and  C_4
REMARK    4  A    between atoms: C_4  and  C_5
REMARK    5  A    between atoms: C_5  and  N_6
REMARK    6  A    between atoms: N_6  and  C_7
REMARK    7  A    between atoms: C_7  and  C_8
REMARK                            x       y       z     vdW  Elec       q    Type
REMARK                         _______ _______ _______ _____ _____    ______ ____
ROOT
ATOM      1  C   UNL     1       5.268   4.550  15.959  0.00  0.00    +0.000 A 
ATOM      2  C   UNL     1       5.400   5.944  15.848  0.00  0.00    +0.000 A 
ATOM      3  C   UNL     1       4.693   6.802  16.684  0.00  0.00    +0.000 A 
ATOM      4  C   UNL     1       3.836   6.287  17.661  0.00  0.00    +0.000 A 
ATOM      5  C   UNL     1       3.125   7.151  18.504  0.00  0.00    +0.000 A 
ATOM      6  C   UNL     1       2.266   6.641  19.481  0.00  0.00    +0.000 A 
ATOM      7  C   UNL     1       2.102   5.258  19.622  0.00  0.00    +0.000 A 
ATOM      8  C   UNL     1       1.236   4.737  20.597  0.00  0.00    +0.000 A 
ATOM      9  C   UNL     1       1.075   3.355  20.731  0.00  0.00    +0.000 A 
ATOM     10  C   UNL     1       1.772   2.479  19.896  0.00  0.00    +0.000 A 
ATOM     11  C   UNL     1       2.643   2.978  18.914  0.00  0.00    +0.000 A 
ATOM     12  C   UNL     1       3.346   2.111  18.073  0.00  0.00    +0.000 A 
ATOM     13  C   UNL     1       4.215   2.615  17.101  0.00  0.00    +0.000 A 
ATOM     14  C   UNL     1       4.400   4.007  16.942  0.00  0.00    +0.000 A 
ATOM     15  C   UNL     1       3.685   4.887  17.792  0.00  0.00    +0.000 A 
ATOM     16  C   UNL     1       2.810   4.372  18.776  0.00  0.00    +0.000 A 
ENDROOT
BRANCH   1  17
ATOM     17  C   UNL     1       6.039   3.688  14.981  0.00  0.00    +0.000 C 
BRANCH  17  18
ATOM     18  N   UNL     1       6.630   4.506  13.915  0.00  0.00    +0.000 NA
ATOM     19  H   UNL     1       6.096   5.404  13.853  0.00  0.00    +0.000 HD
BRANCH  18  20
ATOM     20  C   UNL     1       6.593   3.829  12.608  0.00  0.00    +0.000 C 
BRANCH  20  21
ATOM     21  C   UNL     1       5.183   3.315  12.320  0.00  0.00    +0.000 C 
BRANCH  21  22
ATOM     22  C   UNL     1       5.219   2.228  11.239  0.00  0.00    +0.000 C 
BRANCH  22  23
ATOM     23  C   UNL     1       6.535   1.455  11.263  0.00  0.00    +0.000 C 
BRANCH  23  24
ATOM     24  N   UNL     1       6.266   0.021  11.239  0.00  0.00    +0.000 NA
ATOM     25  H   UNL     1       6.570  -0.358  10.315  0.00  0.00    +0.000 HD
ATOM     26  H   UNL     1       5.236  -0.140  11.330  0.00  0.00    +0.000 HD
ENDBRANCH  23  24
ENDBRANCH  22  23
ENDBRANCH  21  22
ENDBRANCH  20  21
ENDBRANCH  18  20
ENDBRANCH  17  18
ENDBRANCH   1  17
TORSDOF 7
ENDMDL
MODEL 2
REMARK VINA RESULT:      -8.0      1.337      1.491
REMARK  Name = 
REMARK  7 active torsions:
REMARK  status: ('A' for Active; 'I' for Inactive)
REMARK    1  A    between atoms: N_1  and  C_2
REMARK    2  A    between atoms: C_2  and  C_3
REMARK    3  A    between atoms: C_3  and  C_4
REMARK    4  A    between atoms: C_4  and  C_5
REMARK    5  A    between atoms: C_5  and  N_6
REMARK    6  A    between atoms: N_6  and  C_7
REMARK    7  A    between atoms: C_7  and  C_8
REMARK                            x       y       z     vdW  Elec       q    Type
REMARK                         _______ _______ _______ _____ _____    ______ ____
ROOT
ATOM      1  C   UNL     1       5.208   4.690  15.894  0.00  0.00    +0.000 A 
ATOM      2  C   UNL     1       5.340   6.089  15.855  0.00  0.00    +0.000 A 
ATOM      3  C   UNL     1       4.640   6.903  16.739  0.00  0.00    +0.000 A 
ATOM      4  C   UNL     1       3.789   6.338  17.694  0.00  0.00    +0.000 A 
ATOM      5  C   UNL     1       3.085   7.158  18.585  0.00  0.00    +0.000 A 
ATOM      6  C   UNL     1       2.232   6.598  19.540  0.00  0.00    +0.000 A 
ATOM      7  C   UNL     1       2.068   5.209  19.611  0.00  0.00    +0.000 A 
ATOM      8  C   UNL     1       1.209   4.639  20.564  0.00  0.00    +0.000 A 
ATOM      9  C   UNL     1       1.048   3.252  20.628  0.00  0.00    +0.000 A 
ATOM     10  C   UNL     1       1.739   2.420  19.743  0.00  0.00    +0.000 A 
ATOM     11  C   UNL     1       2.604   2.969  18.783  0.00  0.00    +0.000 A 
ATOM     12  C   UNL     1       3.300   2.147  17.893  0.00  0.00    +0.000 A 
ATOM     13  C   UNL     1       4.163   2.699  16.942  0.00  0.00    +0.000 A 
ATOM     14  C   UNL     1       4.346   4.098  16.854  0.00  0.00    +0.000 A 
ATOM     15  C   UNL     1       3.639   4.933  17.754  0.00  0.00    +0.000 A 
ATOM     16  C   UNL     1       2.770   4.369  18.716  0.00  0.00    +0.000 A 
ENDROOT
BRANCH   1  17
ATOM     17  C   UNL     1       5.972   3.880  14.867  0.00  0.00    +0.000 C 
BRANCH  17  18
ATOM     18  N   UNL     1       5.312   3.940  13.557  0.00  0.00    +0.000 NA
ATOM     19  H   UNL     1       4.429   3.380  13.606  0.00  0.00    +0.000 HD
BRANCH  18  20
ATOM     20  C   UNL     1       6.164   3.407  12.480  0.00  0.00    +0.000 C 
BRANCH  20  21
ATOM     21  C   UNL     1       5.337   2.534  11.537  0.00  0.00    +0.000 C 
BRANCH  21  22
ATOM     22  C   UNL     1       3.917   3.094  11.394  0.00  0.00    +0.000 C 
BRANCH  22  23
ATOM     23  C   UNL     1       3.827   4.113  10.262  0.00  0.00    +0.000 C 
BRANCH  23  24
ATOM     24  N   UNL     1       2.820   3.689   9.294  0.00  0.00    +0.000 NA
ATOM     25  H   UNL     1       3.106   2.765   8.901  0.00  0.00    +0.000 HD
ATOM     26  H   UNL     1       2.786   4.377   8.507  0.00  0.00    +0.000 HD
ENDBRANCH  23  24
ENDBRANCH  22  23
ENDBRANCH  21  22
ENDBRANCH  20  21
ENDBRANCH  18  20
ENDBRANCH  17  18
ENDBRANCH   1  17
TORSDOF 7
ENDMDL
MODEL 3
REMARK VINA RESULT:      -7.9      2.479      4.060
REMARK  Name = 
REMARK  7 active torsions:
REMARK  status: ('A' for Active; 'I' for Inactive)
REMARK    1  A    between atoms: N_1  and  C_2
REMARK    2  A    between atoms: C_2  and  C_3
REMARK    3  A    between atoms: C_3  and  C_4
REMARK    4  A    between atoms: C_4  and  C_5
REMARK    5  A    between atoms: C_5  and  N_6
REMARK    6  A    between atoms: N_6  and  C_7
REMARK    7  A    between atoms: C_7  and  C_8
REMARK                            x       y       z     vdW  Elec       q    Type
REMARK                         _______ _______ _______ _____ _____    ______ ____
ROOT
ATOM      1  C   UNL     1       4.645   5.679  16.350  0.00  0.00    +0.000 A 
ATOM      2  C   UNL     1       4.458   7.053  16.580  0.00  0.00    +0.000 A 
ATOM      3  C   UNL     1       3.672   7.505  17.635  0.00  0.00    +0.000 A 
ATOM      4  C   UNL     1       3.054   6.592  18.496  0.00  0.00    +0.000 A 
ATOM      5  C   UNL     1       2.264   7.048  19.559  0.00  0.00    +0.000 A 
ATOM      6  C   UNL     1       1.643   6.139  20.421  0.00  0.00    +0.000 A 
ATOM      7  C   UNL     1       1.800   4.762  20.224  0.00  0.00    +0.000 A 
ATOM      8  C   UNL     1       1.176   3.842  21.082  0.00  0.00    +0.000 A 
ATOM      9  C   UNL     1       1.335   2.469  20.879  0.00  0.00    +0.000 A 
ATOM     10  C   UNL     1       2.115   1.997  19.821  0.00  0.00    +0.000 A 
ATOM     11  C   UNL     1       2.749   2.899  18.951  0.00  0.00    +0.000 A 
ATOM     12  C   UNL     1       3.532   2.439  17.889  0.00  0.00    +0.000 A 
ATOM     13  C   UNL     1       4.165   3.342  17.030  0.00  0.00    +0.000 A 
ATOM     14  C   UNL     1       4.023   4.737  17.210  0.00  0.00    +0.000 A 
ATOM     15  C   UNL     1       3.227   5.205  18.285  0.00  0.00    +0.000 A 
ATOM     16  C   UNL     1       2.592   4.286  19.154  0.00  0.00    +0.000 A 
ENDROOT
BRANCH   1  17
ATOM     17  C   UNL     1       5.479   5.272  15.153  0.00  0.00    +0.000 C 
BRANCH  17  18
ATOM     18  N   UNL     1       6.847   5.793  15.267  0.00  0.00    +0.000 NA
ATOM     19  H   UNL     1       7.448   5.294  14.571  0.00  0.00    +0.000 HD
BRANCH  18  20
ATOM     20  C   UNL     1       7.406   5.601  16.615  0.00  0.00    +0.000 C 
BRANCH  20  21
ATOM     21  C   UNL     1       7.586   6.951  17.308  0.00  0.00    +0.000 C 
BRANCH  21  22
ATOM     22  C   UNL     1       8.182   6.760  18.708  0.00  0.00    +0.000 C 
BRANCH  22  23
ATOM     23  C   UNL     1       7.430   5.693  19.498  0.00  0.00    +0.000 C 
BRANCH  23  24
ATOM     24  N   UNL     1       8.215   5.294  20.662  0.00  0.00    +0.000 NA
ATOM     25  H   UNL     1       7.560   5.004  21.421  0.00  0.00    +0.000 HD
ATOM     26  H   UNL     1       8.764   6.115  21.007  0.00  0.00    +0.000 HD
ENDBRANCH  23  24
ENDBRANCH  22  23
ENDBRANCH  21  22
ENDBRANCH  20  21
ENDBRANCH  18  20
ENDBRANCH  17  18
ENDBRANCH   1  17
TORSDOF 7
ENDMDL
MODEL 4
REMARK VINA RESULT:      -7.8      0.960      1.583
REMARK  Name = 
REMARK  7 active torsions:
REMARK  status: ('A' for Active; 'I' for Inactive)
REMARK    1  A    between atoms: N_1  and  C_2
REMARK    2  A    between atoms: C_2  and  C_3
REMARK    3  A    between atoms: C_3  and  C_4
REMARK    4  A    between atoms: C_4  and  C_5
REMARK    5  A    between atoms: C_5  and  N_6
REMARK    6  A    between atoms: N_6  and  C_7
REMARK    7  A    between atoms: C_7  and  C_8
REMARK                            x       y       z     vdW  Elec       q    Type
REMARK                         _______ _______ _______ _____ _____    ______ ____
ROOT
ATOM      1  C   UNL     1       4.490   6.221  16.504  0.00  0.00    +0.000 A 
ATOM      2  C   UNL     1       4.251   7.543  16.914  0.00  0.00    +0.000 A 
ATOM      3  C   UNL     1       3.480   7.820  18.039  0.00  0.00    +0.000 A 
ATOM      4  C   UNL     1       2.931   6.777  18.791  0.00  0.00    +0.000 A 
ATOM      5  C   UNL     1       2.156   7.055  19.924  0.00  0.00    +0.000 A 
ATOM      6  C   UNL     1       1.604   6.016  20.678  0.00  0.00    +0.000 A 
ATOM      7  C   UNL     1       1.814   4.684  20.302  0.00  0.00    +0.000 A 
ATOM      8  C   UNL     1       1.258   3.634  21.050  0.00  0.00    +0.000 A 
ATOM      9  C   UNL     1       1.470   2.307  20.668  0.00  0.00    +0.000 A 
ATOM     10  C   UNL     1       2.235   2.011  19.537  0.00  0.00    +0.000 A 
ATOM     11  C   UNL     1       2.801   3.045  18.775  0.00  0.00    +0.000 A 
ATOM     12  C   UNL     1       3.569   2.762  17.642  0.00  0.00    +0.000 A 
ATOM     13  C   UNL     1       4.134   3.796  16.890  0.00  0.00    +0.000 A 
ATOM     14  C   UNL     1       3.938   5.149  17.252  0.00  0.00    +0.000 A 
ATOM     15  C   UNL     1       3.157   5.437  18.399  0.00  0.00    +0.000 A 
ATOM     16  C   UNL     1       2.591   4.387  19.158  0.00  0.00    +0.000 A 
ENDROOT
BRANCH   1  17
ATOM     17  C   UNL     1       5.302   6.009  15.243  0.00  0.00    +0.000 C 
BRANCH  17  18
ATOM     18  N   UNL     1       6.676   5.605  15.567  0.00  0.00    +0.000 NA
ATOM     19  H   UNL     1       7.297   6.442  15.469  0.00  0.00    +0.000 HD
BRANCH  18  20
ATOM     20  C   UNL     1       7.164   4.533  14.683  0.00  0.00    +0.000 C 
BRANCH  20  21
ATOM     21  C   UNL     1       6.012   3.970  13.852  0.00  0.00    +0.000 C 
BRANCH  21  22
ATOM     22  C   UNL     1       6.514   3.522  12.474  0.00  0.00    +0.000 C 
BRANCH  22  23
ATOM     23  C   UNL     1       5.499   2.624  11.772  0.00  0.00    +0.000 C 
BRANCH  23  24
ATOM     24  N   UNL     1       6.141   1.381  11.357  0.00  0.00    +0.000 NA
ATOM     25  H   UNL     1       6.756   1.582  10.538  0.00  0.00    +0.000 HD
ATOM     26  H   UNL     1       5.409   0.699  11.050  0.00  0.00    +0.000 HD
ENDBRANCH  23  24
ENDBRANCH  22  23
ENDBRANCH  21  22
ENDBRANCH  20  21
ENDBRANCH  18  20
ENDBRANCH  17  18
ENDBRANCH   1  17
TORSDOF 7
ENDMDL
MODEL 5
REMARK VINA RESULT:      -7.8      2.591      3.823
REMARK  Name = 
REMARK  7 active torsions:
REMARK  status: ('A' for Active; 'I' for Inactive)
REMARK    1  A    between atoms: N_1  and  C_2
REMARK    2  A    between atoms: C_2  and  C_3
REMARK    3  A    between atoms: C_3  and  C_4
REMARK    4  A    between atoms: C_4  and  C_5
REMARK    5  A    between atoms: C_5  and  N_6
REMARK    6  A    between atoms: N_6  and  C_7
REMARK    7  A    between atoms: C_7  and  C_8
REMARK                            x       y       z     vdW  Elec       q    Type
REMARK                         _______ _______ _______ _____ _____    ______ ____
ROOT
ATOM      1  C   UNL     1       4.582   5.947  16.475  0.00  0.00    +0.000 A 
ATOM      2  C   UNL     1       4.390   7.300  16.799  0.00  0.00    +0.000 A 
ATOM      3  C   UNL     1       3.589   7.675  17.873  0.00  0.00    +0.000 A 
ATOM      4  C   UNL     1       2.961   6.703  18.658  0.00  0.00    +0.000 A 
ATOM      5  C   UNL     1       2.156   7.081  19.740  0.00  0.00    +0.000 A 
ATOM      6  C   UNL     1       1.526   6.113  20.526  0.00  0.00    +0.000 A 
ATOM      7  C   UNL     1       1.688   4.753  20.235  0.00  0.00    +0.000 A 
ATOM      8  C   UNL     1       1.053   3.775  21.016  0.00  0.00    +0.000 A 
ATOM      9  C   UNL     1       1.218   2.419  20.719  0.00  0.00    +0.000 A 
ATOM     10  C   UNL     1       2.013   2.025  19.640  0.00  0.00    +0.000 A 
ATOM     11  C   UNL     1       2.657   2.987  18.846  0.00  0.00    +0.000 A 
ATOM     12  C   UNL     1       3.455   2.604  17.764  0.00  0.00    +0.000 A 
ATOM     13  C   UNL     1       4.097   3.567  16.980  0.00  0.00    +0.000 A 
ATOM     14  C   UNL     1       3.951   4.945  17.257  0.00  0.00    +0.000 A 
ATOM     15  C   UNL     1       3.140   5.334  18.351  0.00  0.00    +0.000 A 
ATOM     16  C   UNL     1       2.495   4.356  19.144  0.00  0.00    +0.000 A 
ENDROOT
BRANCH   1  17
ATOM     17  C   UNL     1       5.433   5.626  15.263  0.00  0.00    +0.000 C 
BRANCH  17  18
ATOM     18  N   UNL     1       6.858   5.607  15.614  0.00  0.00    +0.000 NA
ATOM     19  H   UNL     1       7.416   5.741  14.739  0.00  0.00    +0.000 HD
BRANCH  18  20
ATOM     20  C   UNL     1       7.258   4.342  16.254  0.00  0.00    +0.000 C 
BRANCH  20  21
ATOM     21  C   UNL     1       7.902   4.619  17.612  0.00  0.00    +0.000 C 
BRANCH  21  22
ATOM     22  C   UNL     1       7.180   5.770  18.324  0.00  0.00    +0.000 C 
BRANCH  22  23
ATOM     23  C   UNL     1       8.075   6.999  18.451  0.00  0.00    +0.000 C 
BRANCH  23  24
ATOM     24  N   UNL     1       7.785   7.937  17.370  0.00  0.00    +0.000 NA
ATOM     25  H   UNL     1       6.805   7.777  17.047  0.00  0.00    +0.000 HD
ATOM     26  H   UNL     1       8.425   7.744  16.565  0.00  0.00    +0.000 HD
ENDBRANCH  23  24
ENDBRANCH  22  23
ENDBRANCH  21  22
ENDBRANCH  20  21
ENDBRANCH  18  20
ENDBRANCH  17  18
ENDBRANCH   1  17
TORSDOF 7
ENDMDL
MODEL 6
REMARK VINA RESULT:      -7.6      2.260      4.798
REMARK  Name = 
REMARK  7 active torsions:
REMARK  status: ('A' for Active; 'I' for Inactive)
REMARK    1  A    between atoms: N_1  and  C_2
REMARK    2  A    between atoms: C_2  and  C_3
REMARK    3  A    between atoms: C_3  and  C_4
REMARK    4  A    between atoms: C_4  and  C_5
REMARK    5  A    between atoms: C_5  and  N_6
REMARK    6  A    between atoms: N_6  and  C_7
REMARK    7  A    between atoms: C_7  and  C_8
REMARK                            x       y       z     vdW  Elec       q    Type
REMARK                         _______ _______ _______ _____ _____    ______ ____
ROOT
ATOM      1  C   UNL     1       4.194   3.943  16.713  0.00  0.00    +0.000 A 
ATOM      2  C   UNL     1       3.976   2.641  17.195  0.00  0.00    +0.000 A 
ATOM      3  C   UNL     1       3.251   2.419  18.361  0.00  0.00    +0.000 A 
ATOM      4  C   UNL     1       2.719   3.496  19.076  0.00  0.00    +0.000 A 
ATOM      5  C   UNL     1       1.988   3.271  20.251  0.00  0.00    +0.000 A 
ATOM      6  C   UNL     1       1.455   4.345  20.970  0.00  0.00    +0.000 A 
ATOM      7  C   UNL     1       1.653   5.658  20.526  0.00  0.00    +0.000 A 
ATOM      8  C   UNL     1       1.126   6.742  21.246  0.00  0.00    +0.000 A 
ATOM      9  C   UNL     1       1.329   8.050  20.799  0.00  0.00    +0.000 A 
ATOM     10  C   UNL     1       2.060   8.293  19.633  0.00  0.00    +0.000 A 
ATOM     11  C   UNL     1       2.596   7.223  18.897  0.00  0.00    +0.000 A 
ATOM     12  C   UNL     1       3.328   7.453  17.730  0.00  0.00    +0.000 A 
ATOM     13  C   UNL     1       3.855   6.383  17.000  0.00  0.00    +0.000 A 
ATOM     14  C   UNL     1       3.665   5.049  17.426  0.00  0.00    +0.000 A 
ATOM     15  C   UNL     1       2.925   4.815  18.612  0.00  0.00    +0.000 A 
ATOM     16  C   UNL     1       2.391   5.900  19.345  0.00  0.00    +0.000 A 
ENDROOT
BRANCH   1  17
ATOM     17  C   UNL     1       5.031   4.099  15.460  0.00  0.00    +0.000 C 
BRANCH  17  18
ATOM     18  N   UNL     1       6.385   3.571  15.665  0.00  0.00    +0.000 NA
ATOM     19  H   UNL     1       6.358   2.895  16.463  0.00  0.00    +0.000 HD
BRANCH  18  20
ATOM     20  C   UNL     1       7.359   4.634  15.964  0.00  0.00    +0.000 C 
BRANCH  20  21
ATOM     21  C   UNL     1       7.769   4.575  17.435  0.00  0.00    +0.000 C 
BRANCH  21  22
ATOM     22  C   UNL     1       7.382   5.874  18.153  0.00  0.00    +0.000 C 
BRANCH  22  23
ATOM     23  C   UNL     1       6.831   5.600  19.549  0.00  0.00    +0.000 C 
BRANCH  23  24
ATOM     24  N   UNL     1       7.934   5.404  20.486  0.00  0.00    +0.000 NA
ATOM     25  H   UNL     1       7.557   4.961  21.353  0.00  0.00    +0.000 HD
ATOM     26  H   UNL     1       8.335   6.334  20.747  0.00  0.00    +0.000 HD
ENDBRANCH  23  24
ENDBRANCH  22  23
ENDBRANCH  21  22
ENDBRANCH  20  21
ENDBRANCH  18  20
ENDBRANCH  17  18
ENDBRANCH   1  17
TORSDOF 7
ENDMDL
MODEL 7
REMARK VINA RESULT:      -7.3      1.423      3.297
REMARK  Name = 
REMARK  7 active torsions:
REMARK  status: ('A' for Active; 'I' for Inactive)
REMARK    1  A    between atoms: N_1  and  C_2
REMARK    2  A    between atoms: C_2  and  C_3
REMARK    3  A    between atoms: C_3  and  C_4
REMARK    4  A    between atoms: C_4  and  C_5
REMARK    5  A    between atoms: C_5  and  N_6
REMARK    6  A    between atoms: N_6  and  C_7
REMARK    7  A    between atoms: C_7  and  C_8
REMARK                            x       y       z     vdW  Elec       q    Type
REMARK                         _______ _______ _______ _____ _____    ______ ____
ROOT
ATOM      1  C   UNL     1       4.569   5.361  16.663  0.00  0.00    +0.000 A 
ATOM      2  C   UNL     1       4.748   4.044  17.117  0.00  0.00    +0.000 A 
ATOM      3  C   UNL     1       4.162   3.605  18.300  0.00  0.00    +0.000 A 
ATOM      4  C   UNL     1       3.372   4.473  19.059  0.00  0.00    +0.000 A 
ATOM      5  C   UNL     1       2.781   4.030  20.250  0.00  0.00    +0.000 A 
ATOM      6  C   UNL     1       1.992   4.894  21.013  0.00  0.00    +0.000 A 
ATOM      7  C   UNL     1       1.791   6.216  20.599  0.00  0.00    +0.000 A 
ATOM      8  C   UNL     1       1.004   7.093  21.363  0.00  0.00    +0.000 A 
ATOM      9  C   UNL     1       0.809   8.412  20.944  0.00  0.00    +0.000 A 
ATOM     10  C   UNL     1       1.396   8.872  19.763  0.00  0.00    +0.000 A 
ATOM     11  C   UNL     1       2.186   8.012  18.983  0.00  0.00    +0.000 A 
ATOM     12  C   UNL     1       2.778   8.461  17.800  0.00  0.00    +0.000 A 
ATOM     13  C   UNL     1       3.559   7.598  17.025  0.00  0.00    +0.000 A 
ATOM     14  C   UNL     1       3.774   6.258  17.422  0.00  0.00    +0.000 A 
ATOM     15  C   UNL     1       3.176   5.804  18.623  0.00  0.00    +0.000 A 
ATOM     16  C   UNL     1       2.384   6.679  19.401  0.00  0.00    +0.000 A 
ENDROOT
BRANCH   1  17
ATOM     17  C   UNL     1       5.278   5.771  15.389  0.00  0.00    +0.000 C 
BRANCH  17  18
ATOM     18  N   UNL     1       6.723   5.534  15.495  0.00  0.00    +0.000 NA
ATOM     19  H   UNL     1       7.203   6.458  15.599  0.00  0.00    +0.000 HD
BRANCH  18  20
ATOM     20  C   UNL     1       7.262   4.840  14.313  0.00  0.00    +0.000 C 
BRANCH  20  21
ATOM     21  C   UNL     1       6.247   3.824  13.791  0.00  0.00    +0.000 C 
BRANCH  21  22
ATOM     22  C   UNL     1       6.416   3.625  12.279  0.00  0.00    +0.000 C 
BRANCH  22  23
ATOM     23  C   UNL     1       5.371   2.664  11.720  0.00  0.00    +0.000 C 
BRANCH  23  24
ATOM     24  N   UNL     1       5.970   1.349  11.511  0.00  0.00    +0.000 NA
ATOM     25  H   UNL     1       5.849   1.084  10.509  0.00  0.00    +0.000 HD
ATOM     26  H   UNL     1       5.463   0.642  12.094  0.00  0.00    +0.000 HD
ENDBRANCH  23  24
ENDBRANCH  22  23
ENDBRANCH  21  22
ENDBRANCH  20  21
ENDBRANCH  18  20
ENDBRANCH  17  18
ENDBRANCH   1  17
TORSDOF 7
ENDMDL
MODEL 8
REMARK VINA RESULT:      -7.2      2.555      5.100
REMARK  Name = 
REMARK  7 active torsions:
REMARK  status: ('A' for Active; 'I' for Inactive)
REMARK    1  A    between atoms: N_1  and  C_2
REMARK    2  A    between atoms: C_2  and  C_3
REMARK    3  A    between atoms: C_3  and  C_4
REMARK    4  A    between atoms: C_4  and  C_5
REMARK    5  A    between atoms: C_5  and  N_6
REMARK    6  A    between atoms: N_6  and  C_7
REMARK    7  A    between atoms: C_7  and  C_8
REMARK                            x       y       z     vdW  Elec       q    Type
REMARK                         _______ _______ _______ _____ _____    ______ ____
ROOT
ATOM      1  C   UNL     1       4.524   4.562  16.702  0.00  0.00    +0.000 A 
ATOM      2  C   UNL     1       4.456   3.237  17.165  0.00  0.00    +0.000 A 
ATOM      3  C   UNL     1       3.738   2.911  18.311  0.00  0.00    +0.000 A 
ATOM      4  C   UNL     1       3.061   3.905  19.024  0.00  0.00    +0.000 A 
ATOM      5  C   UNL     1       2.337   3.577  20.178  0.00  0.00    +0.000 A 
ATOM      6  C   UNL     1       1.660   4.567  20.895  0.00  0.00    +0.000 A 
ATOM      7  C   UNL     1       1.706   5.900  20.471  0.00  0.00    +0.000 A 
ATOM      8  C   UNL     1       1.033   6.901  21.190  0.00  0.00    +0.000 A 
ATOM      9  C   UNL     1       1.085   8.231  20.762  0.00  0.00    +0.000 A 
ATOM     10  C   UNL     1       1.806   8.577  19.617  0.00  0.00    +0.000 A 
ATOM     11  C   UNL     1       2.486   7.592  18.883  0.00  0.00    +0.000 A 
ATOM     12  C   UNL     1       3.211   7.925  17.737  0.00  0.00    +0.000 A 
ATOM     13  C   UNL     1       3.881   6.938  17.007  0.00  0.00    +0.000 A 
ATOM     14  C   UNL     1       3.847   5.585  17.415  0.00  0.00    +0.000 A 
ATOM     15  C   UNL     1       3.114   5.246  18.579  0.00  0.00    +0.000 A 
ATOM     16  C   UNL     1       2.435   6.248  19.311  0.00  0.00    +0.000 A 
ENDROOT
BRANCH   1  17
ATOM     17  C   UNL     1       5.364   4.837  15.472  0.00  0.00    +0.000 C 
BRANCH  17  18
ATOM     18  N   UNL     1       6.562   5.612  15.818  0.00  0.00    +0.000 NA
ATOM     19  H   UNL     1       7.149   5.714  14.958  0.00  0.00    +0.000 HD
BRANCH  18  20
ATOM     20  C   UNL     1       7.358   4.964  16.874  0.00  0.00    +0.000 C 
BRANCH  20  21
ATOM     21  C   UNL     1       7.531   5.911  18.061  0.00  0.00    +0.000 C 
BRANCH  21  22
ATOM     22  C   UNL     1       7.506   7.370  17.590  0.00  0.00    +0.000 C 
BRANCH  22  23
ATOM     23  C   UNL     1       8.423   8.248  18.438  0.00  0.00    +0.000 C 
BRANCH  23  24
ATOM     24  N   UNL     1       8.304   9.640  18.014  0.00  0.00    +0.000 NA
ATOM     25  H   UNL     1       8.546  10.255  18.823  0.00  0.00    +0.000 HD
ATOM     26  H   UNL     1       7.312   9.837  17.746  0.00  0.00    +0.000 HD
ENDBRANCH  23  24
ENDBRANCH  22  23
ENDBRANCH  21  22
ENDBRANCH  20  21
ENDBRANCH  18  20
ENDBRANCH  17  18
ENDBRANCH   1  17
TORSDOF 7
ENDMDL
MODEL 9
REMARK VINA RESULT:      -7.0      4.318      8.755
REMARK  Name = 
REMARK  7 active torsions:
REMARK  status: ('A' for Active; 'I' for Inactive)
REMARK    1  A    between atoms: N_1  and  C_2
REMARK    2  A    between atoms: C_2  and  C_3
REMARK    3  A    between atoms: C_3  and  C_4
REMARK    4  A    between atoms: C_4  and  C_5
REMARK    5  A    between atoms: C_5  and  N_6
REMARK    6  A    between atoms: N_6  and  C_7
REMARK    7  A    between atoms: C_7  and  C_8
REMARK                            x       y       z     vdW  Elec       q    Type
REMARK                         _______ _______ _______ _____ _____    ______ ____
ROOT
ATOM      1  C   UNL     1       1.596   6.026  20.212  0.00  0.00    +0.000 A 
ATOM      2  C   UNL     1       1.306   4.754  20.733  0.00  0.00    +0.000 A 
ATOM      3  C   UNL     1       1.880   3.608  20.193  0.00  0.00    +0.000 A 
ATOM      4  C   UNL     1       2.767   3.704  19.117  0.00  0.00    +0.000 A 
ATOM      5  C   UNL     1       3.345   2.550  18.573  0.00  0.00    +0.000 A 
ATOM      6  C   UNL     1       4.232   2.641  17.496  0.00  0.00    +0.000 A 
ATOM      7  C   UNL     1       4.545   3.889  16.945  0.00  0.00    +0.000 A 
ATOM      8  C   UNL     1       5.429   3.988  15.859  0.00  0.00    +0.000 A 
ATOM      9  C   UNL     1       5.736   5.237  15.312  0.00  0.00    +0.000 A 
ATOM     10  C   UNL     1       5.164   6.398  15.838  0.00  0.00    +0.000 A 
ATOM     11  C   UNL     1       4.277   6.322  16.924  0.00  0.00    +0.000 A 
ATOM     12  C   UNL     1       3.698   7.476  17.458  0.00  0.00    +0.000 A 
ATOM     13  C   UNL     1       2.819   7.393  18.543  0.00  0.00    +0.000 A 
ATOM     14  C   UNL     1       2.491   6.144  19.118  0.00  0.00    +0.000 A 
ATOM     15  C   UNL     1       3.075   4.973  18.574  0.00  0.00    +0.000 A 
ATOM     16  C   UNL     1       3.966   5.063  17.480  0.00  0.00    +0.000 A 
ENDROOT
BRANCH   1  17
ATOM     17  C   UNL     1       0.895   7.218  20.830  0.00  0.00    +0.000 C 
BRANCH  17  18
ATOM     18  N   UNL     1       1.827   8.014  21.638  0.00  0.00    +0.000 NA
ATOM     19  H   UNL     1       2.018   7.496  22.527  0.00  0.00    +0.000 HD
BRANCH  18  20
ATOM     20  C   UNL     1       1.288   9.346  21.960  0.00  0.00    +0.000 C 
BRANCH  20  21
ATOM     21  C   UNL     1      -0.234   9.285  22.074  0.00  0.00    +0.000 C 
BRANCH  21  22
ATOM     22  C   UNL     1      -0.732  10.265  23.145  0.00  0.00    +0.000 C 
BRANCH  22  23
ATOM     23  C   UNL     1      -1.317  11.528  22.520  0.00  0.00    +0.000 C 
BRANCH  23  24
ATOM     24  N   UNL     1      -0.701  12.708  23.122  0.00  0.00    +0.000 NA
ATOM     25  H   UNL     1      -1.425  13.212  23.680  0.00  0.00    +0.000 HD
ATOM     26  H   UNL     1      -0.373  13.350  22.364  0.00  0.00    +0.000 HD
ENDBRANCH  23  24
ENDBRANCH  22  23
ENDBRANCH  21  22
ENDBRANCH  20  21
ENDBRANCH  18  20
ENDBRANCH  17  18
ENDBRANCH   1  17
TORSDOF 7
ENDMDL
