MODEL 1
REMARK VINA RESULT:      -7.0      0.000      0.000
REMARK  Name = 
REMARK  3 active torsions:
REMARK  status: ('A' for Active; 'I' for Inactive)
REMARK    1  A    between atoms: C_16  and  C_17
REMARK    2  A    between atoms: C_17  and  O_18
REMARK    3  A    between atoms: O_18  and  C_19
REMARK                            x       y       z     vdW  Elec       q    Type
REMARK                         _______ _______ _______ _____ _____    ______ ____
ROOT
ATOM      1  O   UNL     1       4.314   2.405  17.803  0.00  0.00    +0.000 OA
ATOM      2  C   UNL     1       3.798   3.435  18.253  0.00  0.00    +0.000 C 
ATOM      3  N   UNL     1       2.515   3.373  18.773  0.00  0.00    +0.000 N 
ATOM      4  C   UNL     1       1.760   4.313  19.591  0.00  0.00    +0.000 C 
ATOM      5  C   UNL     1       0.755   3.496  20.370  0.00  0.00    +0.000 C 
ATOM      6  C   UNL     1       0.440   2.358  19.420  0.00  0.00    +0.000 C 
ATOM      7  C   UNL     1       1.758   2.122  18.681  0.00  0.00    +0.000 C 
ATOM      8  N   UNL     1       4.520   4.628  18.226  0.00  0.00    +0.000 N 
ATOM      9  C   UNL     1       5.890   4.596  17.677  0.00  0.00    +0.000 C 
ATOM     10  C   UNL     1       6.712   5.838  17.914  0.00  0.00    +0.000 A 
ATOM     11  N   UNL     1       7.892   5.879  18.513  0.00  0.00    +0.000 NA
ATOM     12  C   UNL     1       8.323   7.174  18.426  0.00  0.00    +0.000 A 
ATOM     13  C   UNL     1       7.392   7.954  17.790  0.00  0.00    +0.000 A 
ATOM     14  N   UNL     1       6.375   7.095  17.453  0.00  0.00    +0.000 N 
ATOM     15  C   UNL     1       5.182   7.497  16.735  0.00  0.00    +0.000 C 
ATOM     16  C   UNL     1       3.885   6.789  17.123  0.00  0.00    +0.000 C 
ATOM     17  C   UNL     1       3.966   5.947  18.395  0.00  0.00    +0.000 C 
ENDROOT
BRANCH  16  18
ATOM     18  C   UNL     1       2.757   7.776  17.423  0.00  0.00    +0.000 C 
BRANCH  18  19
ATOM     19  O   UNL     1       2.580   8.016  18.813  0.00  0.00    +0.000 OA
BRANCH  19  20
ATOM     20  C   UNL     1       1.504   8.837  19.041  0.00  0.00    +0.000 A 
ATOM     21  C   UNL     1       0.838   9.589  18.069  0.00  0.00    +0.000 A 
ATOM     22  C   UNL     1      -0.273  10.347  18.430  0.00  0.00    +0.000 A 
ATOM     23  C   UNL     1      -0.665  10.339  19.756  0.00  0.00    +0.000 A 
ATOM     24  N   UNL     1      -0.029   9.645  20.725  0.00  0.00    +0.000 NA
ATOM     25  C   UNL     1       1.046   8.917  20.347  0.00  0.00    +0.000 A 
ENDBRANCH  19  20
ENDBRANCH  18  19
ENDBRANCH  16  18
TORSDOF 3
ENDMDL
MODEL 2
REMARK VINA RESULT:      -7.0      2.100      4.708
REMARK  Name = 
REMARK  3 active torsions:
REMARK  status: ('A' for Active; 'I' for Inactive)
REMARK    1  A    between atoms: C_16  and  C_17
REMARK    2  A    between atoms: C_17  and  O_18
REMARK    3  A    between atoms: O_18  and  C_19
REMARK                            x       y       z     vdW  Elec       q    Type
REMARK                         _______ _______ _______ _____ _____    ______ ____
ROOT
ATOM      1  O   UNL     1       6.831   4.062  18.348  0.00  0.00    +0.000 OA
ATOM      2  C   UNL     1       5.868   4.457  17.680  0.00  0.00    +0.000 C 
ATOM      3  N   UNL     1       6.074   4.835  16.363  0.00  0.00    +0.000 N 
ATOM      4  C   UNL     1       5.138   5.080  15.272  0.00  0.00    +0.000 C 
ATOM      5  C   UNL     1       5.892   4.816  13.989  0.00  0.00    +0.000 C 
ATOM      6  C   UNL     1       7.308   5.225  14.342  0.00  0.00    +0.000 C 
ATOM      7  C   UNL     1       7.436   4.863  15.823  0.00  0.00    +0.000 C 
ATOM      8  N   UNL     1       4.605   4.511  18.268  0.00  0.00    +0.000 N 
ATOM      9  C   UNL     1       4.474   4.065  19.669  0.00  0.00    +0.000 C 
ATOM     10  C   UNL     1       3.060   3.893  20.164  0.00  0.00    +0.000 A 
ATOM     11  N   UNL     1       2.554   2.784  20.682  0.00  0.00    +0.000 NA
ATOM     12  C   UNL     1       1.285   3.094  21.088  0.00  0.00    +0.000 A 
ATOM     13  C   UNL     1       0.987   4.400  20.797  0.00  0.00    +0.000 A 
ATOM     14  N   UNL     1       2.125   4.908  20.223  0.00  0.00    +0.000 N 
ATOM     15  C   UNL     1       2.264   6.281  19.779  0.00  0.00    +0.000 C 
ATOM     16  C   UNL     1       3.108   6.507  18.526  0.00  0.00    +0.000 C 
ATOM     17  C   UNL     1       3.472   5.239  17.756  0.00  0.00    +0.000 C 
ENDROOT
BRANCH  16  18
ATOM     18  C   UNL     1       2.379   7.356  17.484  0.00  0.00    +0.000 C 
BRANCH  18  19
ATOM     19  O   UNL     1       2.839   8.700  17.437  0.00  0.00    +0.000 OA
BRANCH  19  20
ATOM     20  C   UNL     1       1.869   9.571  17.863  0.00  0.00    +0.000 A 
ATOM     21  C   UNL     1       0.513   9.265  18.014  0.00  0.00    +0.000 A 
ATOM     22  C   UNL     1      -0.359  10.234  18.503  0.00  0.00    +0.000 A 
ATOM     23  C   UNL     1       0.155  11.481  18.804  0.00  0.00    +0.000 A 
ATOM     24  N   UNL     1       1.453  11.820  18.647  0.00  0.00    +0.000 NA
ATOM     25  C   UNL     1       2.279  10.859  18.172  0.00  0.00    +0.000 A 
ENDBRANCH  19  20
ENDBRANCH  18  19
ENDBRANCH  16  18
TORSDOF 3
ENDMDL
MODEL 3
REMARK VINA RESULT:      -6.9      1.539      5.057
REMARK  Name = 
REMARK  3 active torsions:
REMARK  status: ('A' for Active; 'I' for Inactive)
REMARK    1  A    between atoms: C_16  and  C_17
REMARK    2  A    between atoms: C_17  and  O_18
REMARK    3  A    between atoms: O_18  and  C_19
REMARK                            x       y       z     vdW  Elec       q    Type
REMARK                         _______ _______ _______ _____ _____    ______ ____
ROOT
ATOM      1  O   UNL     1       6.703   4.126  19.346  0.00  0.00    +0.000 OA
ATOM      2  C   UNL     1       5.901   4.974  18.940  0.00  0.00    +0.000 C 
ATOM      3  N   UNL     1       6.382   6.187  18.474  0.00  0.00    +0.000 N 
ATOM      4  C   UNL     1       5.742   7.250  17.709  0.00  0.00    +0.000 C 
ATOM      5  C   UNL     1       6.842   7.962  16.956  0.00  0.00    +0.000 C 
ATOM      6  C   UNL     1       8.025   7.836  17.894  0.00  0.00    +0.000 C 
ATOM      7  C   UNL     1       7.815   6.482  18.571  0.00  0.00    +0.000 C 
ATOM      8  N   UNL     1       4.536   4.690  18.963  0.00  0.00    +0.000 N 
ATOM      9  C   UNL     1       4.113   3.362  19.453  0.00  0.00    +0.000 C 
ATOM     10  C   UNL     1       2.668   3.011  19.207  0.00  0.00    +0.000 A 
ATOM     11  N   UNL     1       2.233   1.941  18.560  0.00  0.00    +0.000 NA
ATOM     12  C   UNL     1       0.869   1.961  18.657  0.00  0.00    +0.000 A 
ATOM     13  C   UNL     1       0.447   3.067  19.348  0.00  0.00    +0.000 A 
ATOM     14  N   UNL     1       1.597   3.724  19.709  0.00  0.00    +0.000 N 
ATOM     15  C   UNL     1       1.619   4.947  20.486  0.00  0.00    +0.000 C 
ATOM     16  C   UNL     1       2.715   5.953  20.138  0.00  0.00    +0.000 C 
ATOM     17  C   UNL     1       3.475   5.657  18.846  0.00  0.00    +0.000 C 
ENDROOT
BRANCH  16  18
ATOM     18  C   UNL     1       2.158   7.357  19.907  0.00  0.00    +0.000 C 
BRANCH  18  19
ATOM     19  O   UNL     1       1.153   7.722  20.844  0.00  0.00    +0.000 OA
BRANCH  19  20
ATOM     20  C   UNL     1       0.857   9.058  20.759  0.00  0.00    +0.000 A 
ATOM     21  C   UNL     1       0.704   9.781  19.572  0.00  0.00    +0.000 A 
ATOM     22  C   UNL     1       0.356  11.128  19.629  0.00  0.00    +0.000 A 
ATOM     23  C   UNL     1       0.193  11.707  20.874  0.00  0.00    +0.000 A 
ATOM     24  N   UNL     1       0.358  11.046  22.040  0.00  0.00    +0.000 NA
ATOM     25  C   UNL     1       0.695   9.739  21.956  0.00  0.00    +0.000 A 
ENDBRANCH  19  20
ENDBRANCH  18  19
ENDBRANCH  16  18
TORSDOF 3
ENDMDL
MODEL 4
REMARK VINA RESULT:      -6.9      0.745      1.205
REMARK  Name = 
REMARK  3 active torsions:
REMARK  status: ('A' for Active; 'I' for Inactive)
REMARK    1  A    between atoms: C_16  and  C_17
REMARK    2  A    between atoms: C_17  and  O_18
REMARK    3  A    between atoms: O_18  and  C_19
REMARK                            x       y       z     vdW  Elec       q    Type
REMARK                         _______ _______ _______ _____ _____    ______ ____
ROOT
ATOM      1  O   UNL     1       4.070   2.494  17.464  0.00  0.00    +0.000 OA
ATOM      2  C   UNL     1       3.661   3.445  18.140  0.00  0.00    +0.000 C 
ATOM      3  N   UNL     1       2.493   3.298  18.871  0.00  0.00    +0.000 N 
ATOM      4  C   UNL     1       1.914   4.107  19.936  0.00  0.00    +0.000 C 
ATOM      5  C   UNL     1       1.054   3.178  20.763  0.00  0.00    +0.000 C 
ATOM      6  C   UNL     1       0.554   2.182  19.737  0.00  0.00    +0.000 C 
ATOM      7  C   UNL     1       1.712   2.065  18.745  0.00  0.00    +0.000 C 
ATOM      8  N   UNL     1       4.384   4.637  18.149  0.00  0.00    +0.000 N 
ATOM      9  C   UNL     1       5.631   4.697  17.361  0.00  0.00    +0.000 C 
ATOM     10  C   UNL     1       6.502   5.902  17.616  0.00  0.00    +0.000 A 
ATOM     11  N   UNL     1       7.772   5.870  17.990  0.00  0.00    +0.000 NA
ATOM     12  C   UNL     1       8.199   7.169  18.007  0.00  0.00    +0.000 A 
ATOM     13  C   UNL     1       7.181   8.021  17.667  0.00  0.00    +0.000 A 
ATOM     14  N   UNL     1       6.107   7.208  17.404  0.00  0.00    +0.000 N 
ATOM     15  C   UNL     1       4.810   7.694  16.978  0.00  0.00    +0.000 C 
ATOM     16  C   UNL     1       3.594   6.926  17.493  0.00  0.00    +0.000 C 
ATOM     17  C   UNL     1       3.891   5.914  18.598  0.00  0.00    +0.000 C 
ENDROOT
BRANCH  16  18
ATOM     18  C   UNL     1       2.555   7.849  18.128  0.00  0.00    +0.000 C 
BRANCH  18  19
ATOM     19  O   UNL     1       2.266   7.518  19.481  0.00  0.00    +0.000 OA
BRANCH  19  20
ATOM     20  C   UNL     1       1.502   8.490  20.076  0.00  0.00    +0.000 A 
ATOM     21  C   UNL     1       1.116   8.509  21.420  0.00  0.00    +0.000 A 
ATOM     22  C   UNL     1       0.377   9.584  21.907  0.00  0.00    +0.000 A 
ATOM     23  C   UNL     1       0.034  10.592  21.025  0.00  0.00    +0.000 A 
ATOM     24  N   UNL     1       0.368  10.594  19.716  0.00  0.00    +0.000 NA
ATOM     25  C   UNL     1       1.087   9.538  19.270  0.00  0.00    +0.000 A 
ENDBRANCH  19  20
ENDBRANCH  18  19
ENDBRANCH  16  18
TORSDOF 3
ENDMDL
MODEL 5
REMARK VINA RESULT:      -6.8      1.520      5.085
REMARK  Name = 
REMARK  3 active torsions:
REMARK  status: ('A' for Active; 'I' for Inactive)
REMARK    1  A    between atoms: C_16  and  C_17
REMARK    2  A    between atoms: C_17  and  O_18
REMARK    3  A    between atoms: O_18  and  C_19
REMARK                            x       y       z     vdW  Elec       q    Type
REMARK                         _______ _______ _______ _____ _____    ______ ____
ROOT
ATOM      1  O   UNL     1       6.749   4.215  19.517  0.00  0.00    +0.000 OA
ATOM      2  C   UNL     1       5.952   5.025  19.030  0.00  0.00    +0.000 C 
ATOM      3  N   UNL     1       6.437   6.213  18.506  0.00  0.00    +0.000 N 
ATOM      4  C   UNL     1       5.812   7.216  17.652  0.00  0.00    +0.000 C 
ATOM      5  C   UNL     1       6.931   7.896  16.896  0.00  0.00    +0.000 C 
ATOM      6  C   UNL     1       8.081   7.845  17.882  0.00  0.00    +0.000 C 
ATOM      7  C   UNL     1       7.861   6.533  18.636  0.00  0.00    +0.000 C 
ATOM      8  N   UNL     1       4.591   4.723  19.021  0.00  0.00    +0.000 N 
ATOM      9  C   UNL     1       4.166   3.423  19.578  0.00  0.00    +0.000 C 
ATOM     10  C   UNL     1       2.735   3.037  19.303  0.00  0.00    +0.000 A 
ATOM     11  N   UNL     1       2.337   1.922  18.709  0.00  0.00    +0.000 NA
ATOM     12  C   UNL     1       0.970   1.930  18.755  0.00  0.00    +0.000 A 
ATOM     13  C   UNL     1       0.510   3.071  19.360  0.00  0.00    +0.000 A 
ATOM     14  N   UNL     1       1.638   3.765  19.720  0.00  0.00    +0.000 N 
ATOM     15  C   UNL     1       1.617   5.035  20.418  0.00  0.00    +0.000 C 
ATOM     16  C   UNL     1       2.714   6.032  20.048  0.00  0.00    +0.000 C 
ATOM     17  C   UNL     1       3.524   5.666  18.805  0.00  0.00    +0.000 C 
ENDROOT
BRANCH  16  18
ATOM     18  C   UNL     1       2.149   7.411  19.708  0.00  0.00    +0.000 C 
BRANCH  18  19
ATOM     19  O   UNL     1       1.582   8.075  20.831  0.00  0.00    +0.000 OA
BRANCH  19  20
ATOM     20  C   UNL     1       0.855   9.171  20.442  0.00  0.00    +0.000 A 
ATOM     21  C   UNL     1      -0.054   9.868  21.245  0.00  0.00    +0.000 A 
ATOM     22  C   UNL     1      -0.692  10.996  20.738  0.00  0.00    +0.000 A 
ATOM     23  C   UNL     1      -0.411  11.376  19.439  0.00  0.00    +0.000 A 
ATOM     24  N   UNL     1       0.440  10.713  18.628  0.00  0.00    +0.000 NA
ATOM     25  C   UNL     1       1.047   9.620  19.145  0.00  0.00    +0.000 A 
ENDBRANCH  19  20
ENDBRANCH  18  19
ENDBRANCH  16  18
TORSDOF 3
ENDMDL
MODEL 6
REMARK VINA RESULT:      -6.8      1.048      1.049
REMARK  Name = 
REMARK  3 active torsions:
REMARK  status: ('A' for Active; 'I' for Inactive)
REMARK    1  A    between atoms: C_16  and  C_17
REMARK    2  A    between atoms: C_17  and  O_18
REMARK    3  A    between atoms: O_18  and  C_19
REMARK                            x       y       z     vdW  Elec       q    Type
REMARK                         _______ _______ _______ _____ _____    ______ ____
ROOT
ATOM      1  O   UNL     1       5.201   2.568  19.237  0.00  0.00    +0.000 OA
ATOM      2  C   UNL     1       4.532   3.598  19.381  0.00  0.00    +0.000 C 
ATOM      3  N   UNL     1       3.257   3.503  19.917  0.00  0.00    +0.000 N 
ATOM      4  C   UNL     1       2.354   4.519  20.442  0.00  0.00    +0.000 C 
ATOM      5  C   UNL     1       1.456   3.824  21.439  0.00  0.00    +0.000 C 
ATOM      6  C   UNL     1       1.332   2.428  20.861  0.00  0.00    +0.000 C 
ATOM      7  C   UNL     1       2.689   2.183  20.200  0.00  0.00    +0.000 C 
ATOM      8  N   UNL     1       5.076   4.824  19.000  0.00  0.00    +0.000 N 
ATOM      9  C   UNL     1       6.451   4.835  18.461  0.00  0.00    +0.000 C 
ATOM     10  C   UNL     1       7.081   6.197  18.319  0.00  0.00    +0.000 A 
ATOM     11  N   UNL     1       8.227   6.578  18.863  0.00  0.00    +0.000 NA
ATOM     12  C   UNL     1       8.470   7.842  18.399  0.00  0.00    +0.000 A 
ATOM     13  C   UNL     1       7.454   8.264  17.581  0.00  0.00    +0.000 A 
ATOM     14  N   UNL     1       6.580   7.208  17.522  0.00  0.00    +0.000 N 
ATOM     15  C   UNL     1       5.361   7.210  16.737  0.00  0.00    +0.000 C 
ATOM     16  C   UNL     1       4.169   6.464  17.333  0.00  0.00    +0.000 C 
ATOM     17  C   UNL     1       4.336   6.042  18.792  0.00  0.00    +0.000 C 
ENDROOT
BRANCH  16  18
ATOM     18  C   UNL     1       2.904   7.321  17.355  0.00  0.00    +0.000 C 
BRANCH  18  19
ATOM     19  O   UNL     1       2.243   7.311  18.615  0.00  0.00    +0.000 OA
BRANCH  19  20
ATOM     20  C   UNL     1       1.783   8.561  18.942  0.00  0.00    +0.000 A 
ATOM     21  C   UNL     1       1.784   9.675  18.096  0.00  0.00    +0.000 A 
ATOM     22  C   UNL     1       1.241  10.876  18.542  0.00  0.00    +0.000 A 
ATOM     23  C   UNL     1       0.733  10.925  19.827  0.00  0.00    +0.000 A 
ATOM     24  N   UNL     1       0.738   9.877  20.680  0.00  0.00    +0.000 NA
ATOM     25  C   UNL     1       1.271   8.722  20.221  0.00  0.00    +0.000 A 
ENDBRANCH  19  20
ENDBRANCH  18  19
ENDBRANCH  16  18
TORSDOF 3
ENDMDL
MODEL 7
REMARK VINA RESULT:      -6.7      1.153      1.423
REMARK  Name = 
REMARK  3 active torsions:
REMARK  status: ('A' for Active; 'I' for Inactive)
REMARK    1  A    between atoms: C_16  and  C_17
REMARK    2  A    between atoms: C_17  and  O_18
REMARK    3  A    between atoms: O_18  and  C_19
REMARK                            x       y       z     vdW  Elec       q    Type
REMARK                         _______ _______ _______ _____ _____    ______ ____
ROOT
ATOM      1  O   UNL     1       5.210   2.462  19.387  0.00  0.00    +0.000 OA
ATOM      2  C   UNL     1       4.519   3.478  19.525  0.00  0.00    +0.000 C 
ATOM      3  N   UNL     1       3.270   3.367  20.115  0.00  0.00    +0.000 N 
ATOM      4  C   UNL     1       2.361   4.376  20.645  0.00  0.00    +0.000 C 
ATOM      5  C   UNL     1       1.522   3.689  21.698  0.00  0.00    +0.000 C 
ATOM      6  C   UNL     1       1.413   2.273  21.169  0.00  0.00    +0.000 C 
ATOM      7  C   UNL     1       2.749   2.042  20.462  0.00  0.00    +0.000 C 
ATOM      8  N   UNL     1       5.014   4.705  19.085  0.00  0.00    +0.000 N 
ATOM      9  C   UNL     1       6.365   4.734  18.491  0.00  0.00    +0.000 C 
ATOM     10  C   UNL     1       6.952   6.107  18.281  0.00  0.00    +0.000 A 
ATOM     11  N   UNL     1       8.108   6.535  18.766  0.00  0.00    +0.000 NA
ATOM     12  C   UNL     1       8.297   7.789  18.254  0.00  0.00    +0.000 A 
ATOM     13  C   UNL     1       7.239   8.158  17.465  0.00  0.00    +0.000 A 
ATOM     14  N   UNL     1       6.392   7.078  17.474  0.00  0.00    +0.000 N 
ATOM     15  C   UNL     1       5.144   7.024  16.739  0.00  0.00    +0.000 C 
ATOM     16  C   UNL     1       3.997   6.266  17.406  0.00  0.00    +0.000 C 
ATOM     17  C   UNL     1       4.233   5.895  18.869  0.00  0.00    +0.000 C 
ENDROOT
BRANCH  16  18
ATOM     18  C   UNL     1       2.711   7.090  17.452  0.00  0.00    +0.000 C 
BRANCH  18  19
ATOM     19  O   UNL     1       2.921   8.432  17.875  0.00  0.00    +0.000 OA
BRANCH  19  20
ATOM     20  C   UNL     1       1.963   8.824  18.774  0.00  0.00    +0.000 A 
ATOM     21  C   UNL     1       1.694   8.201  19.998  0.00  0.00    +0.000 A 
ATOM     22  C   UNL     1       0.722   8.734  20.840  0.00  0.00    +0.000 A 
ATOM     23  C   UNL     1       0.040   9.860  20.417  0.00  0.00    +0.000 A 
ATOM     24  N   UNL     1       0.255  10.471  19.233  0.00  0.00    +0.000 NA
ATOM     25  C   UNL     1       1.206   9.934  18.435  0.00  0.00    +0.000 A 
ENDBRANCH  19  20
ENDBRANCH  18  19
ENDBRANCH  16  18
TORSDOF 3
ENDMDL
MODEL 8
REMARK VINA RESULT:      -6.6      1.030      1.158
REMARK  Name = 
REMARK  3 active torsions:
REMARK  status: ('A' for Active; 'I' for Inactive)
REMARK    1  A    between atoms: C_16  and  C_17
REMARK    2  A    between atoms: C_17  and  O_18
REMARK    3  A    between atoms: O_18  and  C_19
REMARK                            x       y       z     vdW  Elec       q    Type
REMARK                         _______ _______ _______ _____ _____    ______ ____
ROOT
ATOM      1  O   UNL     1       4.138   2.482  17.563  0.00  0.00    +0.000 OA
ATOM      2  C   UNL     1       3.669   3.461  18.154  0.00  0.00    +0.000 C 
ATOM      3  N   UNL     1       2.450   3.337  18.800  0.00  0.00    +0.000 N 
ATOM      4  C   UNL     1       1.782   4.192  19.774  0.00  0.00    +0.000 C 
ATOM      5  C   UNL     1       0.870   3.297  20.580  0.00  0.00    +0.000 C 
ATOM      6  C   UNL     1       0.460   2.242  19.573  0.00  0.00    +0.000 C 
ATOM      7  C   UNL     1       1.692   2.089  18.680  0.00  0.00    +0.000 C 
ATOM      8  N   UNL     1       4.378   4.662  18.156  0.00  0.00    +0.000 N 
ATOM      9  C   UNL     1       5.682   4.697  17.463  0.00  0.00    +0.000 C 
ATOM     10  C   UNL     1       6.520   5.925  17.721  0.00  0.00    +0.000 A 
ATOM     11  N   UNL     1       7.757   5.929  18.192  0.00  0.00    +0.000 NA
ATOM     12  C   UNL     1       8.170   7.233  18.173  0.00  0.00    +0.000 A 
ATOM     13  C   UNL     1       7.173   8.052  17.711  0.00  0.00    +0.000 A 
ATOM     14  N   UNL     1       6.130   7.213  17.411  0.00  0.00    +0.000 N 
ATOM     15  C   UNL     1       4.865   7.659  16.861  0.00  0.00    +0.000 C 
ATOM     16  C   UNL     1       3.620   6.902  17.321  0.00  0.00    +0.000 C 
ATOM     17  C   UNL     1       3.841   5.953  18.498  0.00  0.00    +0.000 C 
ENDROOT
BRANCH  16  18
ATOM     18  C   UNL     1       2.526   7.843  17.826  0.00  0.00    +0.000 C 
BRANCH  18  19
ATOM     19  O   UNL     1       2.768   9.207  17.502  0.00  0.00    +0.000 OA
BRANCH  19  20
ATOM     20  C   UNL     1       1.757  10.012  17.960  0.00  0.00    +0.000 A 
ATOM     21  C   UNL     1       0.421   9.627  18.117  0.00  0.00    +0.000 A 
ATOM     22  C   UNL     1      -0.497  10.534  18.639  0.00  0.00    +0.000 A 
ATOM     23  C   UNL     1      -0.049  11.800  18.967  0.00  0.00    +0.000 A 
ATOM     24  N   UNL     1       1.226  12.214  18.804  0.00  0.00    +0.000 NA
ATOM     25  C   UNL     1       2.098  11.313  18.297  0.00  0.00    +0.000 A 
ENDBRANCH  19  20
ENDBRANCH  18  19
ENDBRANCH  16  18
TORSDOF 3
ENDMDL
MODEL 9
REMARK VINA RESULT:      -6.4      1.781      2.157
REMARK  Name = 
REMARK  3 active torsions:
REMARK  status: ('A' for Active; 'I' for Inactive)
REMARK    1  A    between atoms: C_16  and  C_17
REMARK    2  A    between atoms: C_17  and  O_18
REMARK    3  A    between atoms: O_18  and  C_19
REMARK                            x       y       z     vdW  Elec       q    Type
REMARK                         _______ _______ _______ _____ _____    ______ ____
ROOT
ATOM      1  O   UNL     1       2.409   2.078  17.504  0.00  0.00    +0.000 OA
ATOM      2  C   UNL     1       2.843   3.020  18.176  0.00  0.00    +0.000 C 
ATOM      3  N   UNL     1       2.346   3.221  19.454  0.00  0.00    +0.000 N 
ATOM      4  C   UNL     1       2.823   4.045  20.556  0.00  0.00    +0.000 C 
ATOM      5  C   UNL     1       2.319   3.400  21.827  0.00  0.00    +0.000 C 
ATOM      6  C   UNL     1       1.001   2.792  21.393  0.00  0.00    +0.000 C 
ATOM      7  C   UNL     1       1.245   2.385  19.940  0.00  0.00    +0.000 C 
ATOM      8  N   UNL     1       3.819   3.854  17.632  0.00  0.00    +0.000 N 
ATOM      9  C   UNL     1       4.310   3.552  16.273  0.00  0.00    +0.000 C 
ATOM     10  C   UNL     1       5.540   4.312  15.844  0.00  0.00    +0.000 A 
ATOM     11  N   UNL     1       6.674   3.772  15.427  0.00  0.00    +0.000 NA
ATOM     12  C   UNL     1       7.477   4.812  15.046  0.00  0.00    +0.000 A 
ATOM     13  C   UNL     1       6.848   6.012  15.251  0.00  0.00    +0.000 A 
ATOM     14  N   UNL     1       5.610   5.688  15.745  0.00  0.00    +0.000 N 
ATOM     15  C   UNL     1       4.593   6.664  16.082  0.00  0.00    +0.000 C 
ATOM     16  C   UNL     1       3.708   6.336  17.284  0.00  0.00    +0.000 C 
ATOM     17  C   UNL     1       4.183   5.156  18.130  0.00  0.00    +0.000 C 
ENDROOT
BRANCH  16  18
ATOM     18  C   UNL     1       3.645   7.488  18.286  0.00  0.00    +0.000 C 
BRANCH  18  19
ATOM     19  O   UNL     1       2.651   8.453  17.967  0.00  0.00    +0.000 OA
BRANCH  19  20
ATOM     20  C   UNL     1       1.803   8.659  19.025  0.00  0.00    +0.000 A 
ATOM     21  C   UNL     1       1.792   7.919  20.212  0.00  0.00    +0.000 A 
ATOM     22  C   UNL     1       0.906   8.265  21.228  0.00  0.00    +0.000 A 
ATOM     23  C   UNL     1       0.048   9.329  21.012  0.00  0.00    +0.000 A 
ATOM     24  N   UNL     1       0.014  10.048  19.870  0.00  0.00    +0.000 NA
ATOM     25  C   UNL     1       0.886   9.691  18.899  0.00  0.00    +0.000 A 
ENDBRANCH  19  20
ENDBRANCH  18  19
ENDBRANCH  16  18
TORSDOF 3
ENDMDL
