MODEL 1
REMARK VINA RESULT:      -7.0      0.000      0.000
REMARK  Name = 
REMARK  8 active torsions:
REMARK  status: ('A' for Active; 'I' for Inactive)
REMARK    1  A    between atoms: C_1  and  O_2
REMARK    2  A    between atoms: O_2  and  C_3
REMARK    3  A    between atoms: C_3  and  C_4
REMARK    4  A    between atoms: C_4  and  C_5
REMARK    5  A    between atoms: N_7  and  C_8
REMARK    6  A    between atoms: C_10  and  O_11
REMARK    7  A    between atoms: C_12  and  C_13
REMARK    8  A    between atoms: C_13  and  O_14
REMARK                            x       y       z     vdW  Elec       q    Type
REMARK                         _______ _______ _______ _____ _____    ______ ____
ROOT
ATOM      1  C   UNL     1       4.708   5.133  16.521  0.00  0.00    +0.000 A 
ATOM      2  C   UNL     1       3.863   4.584  17.403  0.00  0.00    +0.000 A 
ATOM      3  N   UNL     1       3.040   5.319  18.252  0.00  0.00    +0.000 N 
ATOM      4  C   UNL     1       3.047   6.719  18.140  0.00  0.00    +0.000 A 
ATOM      5  O   UNL     1       2.201   7.484  18.595  0.00  0.00    +0.000 OA
ATOM      6  N   UNL     1       4.087   7.259  17.432  0.00  0.00    +0.000 N 
ATOM      7  C   UNL     1       4.758   6.603  16.444  0.00  0.00    +0.000 A 
ATOM      8  O   UNL     1       5.330   7.191  15.538  0.00  0.00    +0.000 OA
ATOM      9  H   UNL     1       4.053   8.262  17.333  0.00  0.00    +0.000 HD
ENDROOT
BRANCH   3  10
ATOM     10  C   UNL     1       1.900   4.648  18.931  0.00  0.00    +0.000 C 
ATOM     11  C   UNL     1       1.484   3.254  18.404  0.00  0.00    +0.000 C 
ATOM     12  C   UNL     1       2.112   2.116  19.230  0.00  0.00    +0.000 C 
ATOM     13  C   UNL     1       2.935   2.665  20.394  0.00  0.00    +0.000 C 
ATOM     14  S   UNL     1       2.159   4.273  20.693  0.00  0.00    +0.000 S 
BRANCH  12  15
ATOM     15  O   UNL     1       2.818   1.206  18.392  0.00  0.00    +0.000 OA
ATOM     16  H   UNL     1       2.459   1.234  17.488  0.00  0.00    +0.000 HD
ENDBRANCH  12  15
BRANCH  13  17
ATOM     17  C   UNL     1       4.436   2.821  20.144  0.00  0.00    +0.000 C 
BRANCH  17  18
ATOM     18  O   UNL     1       5.061   1.550  19.972  0.00  0.00    +0.000 OA
ATOM     19  H   UNL     1       4.343   0.896  19.863  0.00  0.00    +0.000 HD
ENDBRANCH  17  18
ENDBRANCH  13  17
ENDBRANCH   3  10
BRANCH   1  20
ATOM     20  C   UNL     1       5.544   4.333  15.558  0.00  0.00    +0.000 C 
BRANCH  20  21
ATOM     21  C   UNL     1       7.040   4.386  15.863  0.00  0.00    +0.000 C 
BRANCH  21  23
ATOM     22  C   UNL     1       7.157   4.845  13.560  0.00  0.00    +0.000 C 
ATOM     23  O   UNL     1       7.705   5.133  14.841  0.00  0.00    +0.000 OA
ENDBRANCH  21  23
ENDBRANCH  20  21
ENDBRANCH   1  20
TORSDOF 7
ENDMDL
MODEL 2
REMARK VINA RESULT:      -7.0      0.691      1.003
REMARK  Name = 
REMARK  8 active torsions:
REMARK  status: ('A' for Active; 'I' for Inactive)
REMARK    1  A    between atoms: C_1  and  O_2
REMARK    2  A    between atoms: O_2  and  C_3
REMARK    3  A    between atoms: C_3  and  C_4
REMARK    4  A    between atoms: C_4  and  C_5
REMARK    5  A    between atoms: N_7  and  C_8
REMARK    6  A    between atoms: C_10  and  O_11
REMARK    7  A    between atoms: C_12  and  C_13
REMARK    8  A    between atoms: C_13  and  O_14
REMARK                            x       y       z     vdW  Elec       q    Type
REMARK                         _______ _______ _______ _____ _____    ______ ____
ROOT
ATOM      1  C   UNL     1       4.606   5.147  16.327  0.00  0.00    +0.000 A 
ATOM      2  C   UNL     1       3.780   4.575  17.212  0.00  0.00    +0.000 A 
ATOM      3  N   UNL     1       3.058   5.281  18.170  0.00  0.00    +0.000 N 
ATOM      4  C   UNL     1       3.151   6.682  18.177  0.00  0.00    +0.000 A 
ATOM      5  O   UNL     1       2.385   7.454  18.746  0.00  0.00    +0.000 OA
ATOM      6  N   UNL     1       4.181   7.218  17.451  0.00  0.00    +0.000 N 
ATOM      7  C   UNL     1       4.748   6.612  16.371  0.00  0.00    +0.000 A 
ATOM      8  O   UNL     1       5.304   7.242  15.482  0.00  0.00    +0.000 OA
ATOM      9  H   UNL     1       4.207   8.226  17.439  0.00  0.00    +0.000 HD
ENDROOT
BRANCH   3  10
ATOM     10  C   UNL     1       1.918   4.623  18.862  0.00  0.00    +0.000 C 
ATOM     11  C   UNL     1       1.500   3.220  18.360  0.00  0.00    +0.000 C 
ATOM     12  C   UNL     1       2.127   2.096  19.205  0.00  0.00    +0.000 C 
ATOM     13  C   UNL     1       2.951   2.665  20.359  0.00  0.00    +0.000 C 
ATOM     14  S   UNL     1       2.178   4.278  20.630  0.00  0.00    +0.000 S 
BRANCH  12  15
ATOM     15  O   UNL     1       2.831   1.171  18.384  0.00  0.00    +0.000 OA
ATOM     16  H   UNL     1       2.255   0.424  18.147  0.00  0.00    +0.000 HD
ENDBRANCH  12  15
BRANCH  13  17
ATOM     17  C   UNL     1       4.453   2.815  20.106  0.00  0.00    +0.000 C 
BRANCH  17  18
ATOM     18  O   UNL     1       5.100   1.544  20.097  0.00  0.00    +0.000 OA
ATOM     19  H   UNL     1       6.014   1.691  20.409  0.00  0.00    +0.000 HD
ENDBRANCH  17  18
ENDBRANCH  13  17
ENDBRANCH   3  10
BRANCH   1  20
ATOM     20  C   UNL     1       5.330   4.385  15.248  0.00  0.00    +0.000 C 
BRANCH  20  21
ATOM     21  C   UNL     1       6.604   3.699  15.740  0.00  0.00    +0.000 C 
BRANCH  21  23
ATOM     22  C   UNL     1       7.697   4.576  17.628  0.00  0.00    +0.000 C 
ATOM     23  O   UNL     1       7.518   4.688  16.221  0.00  0.00    +0.000 OA
ENDBRANCH  21  23
ENDBRANCH  20  21
ENDBRANCH   1  20
TORSDOF 7
ENDMDL
MODEL 3
REMARK VINA RESULT:      -6.9      2.230      2.872
REMARK  Name = 
REMARK  8 active torsions:
REMARK  status: ('A' for Active; 'I' for Inactive)
REMARK    1  A    between atoms: C_1  and  O_2
REMARK    2  A    between atoms: O_2  and  C_3
REMARK    3  A    between atoms: C_3  and  C_4
REMARK    4  A    between atoms: C_4  and  C_5
REMARK    5  A    between atoms: N_7  and  C_8
REMARK    6  A    between atoms: C_10  and  O_11
REMARK    7  A    between atoms: C_12  and  C_13
REMARK    8  A    between atoms: C_13  and  O_14
REMARK                            x       y       z     vdW  Elec       q    Type
REMARK                         _______ _______ _______ _____ _____    ______ ____
ROOT
ATOM      1  C   UNL     1       5.578   4.533  15.903  0.00  0.00    +0.000 A 
ATOM      2  C   UNL     1       4.662   4.461  16.876  0.00  0.00    +0.000 A 
ATOM      3  N   UNL     1       4.965   4.498  18.234  0.00  0.00    +0.000 N 
ATOM      4  C   UNL     1       6.306   4.681  18.612  0.00  0.00    +0.000 A 
ATOM      5  O   UNL     1       6.702   5.015  19.725  0.00  0.00    +0.000 OA
ATOM      6  N   UNL     1       7.238   4.492  17.628  0.00  0.00    +0.000 N 
ATOM      7  C   UNL     1       6.990   4.667  16.300  0.00  0.00    +0.000 A 
ATOM      8  O   UNL     1       7.870   4.951  15.500  0.00  0.00    +0.000 OA
ATOM      9  H   UNL     1       8.190   4.665  17.912  0.00  0.00    +0.000 HD
ENDROOT
BRANCH   3  10
ATOM     10  C   UNL     1       3.886   4.768  19.220  0.00  0.00    +0.000 C 
ATOM     11  C   UNL     1       2.520   5.236  18.664  0.00  0.00    +0.000 C 
ATOM     12  C   UNL     1       1.528   4.068  18.515  0.00  0.00    +0.000 C 
ATOM     13  C   UNL     1       2.135   2.758  19.015  0.00  0.00    +0.000 C 
ATOM     14  S   UNL     1       3.365   3.333  20.212  0.00  0.00    +0.000 S 
BRANCH  12  15
ATOM     15  O   UNL     1       1.009   4.004  17.191  0.00  0.00    +0.000 OA
ATOM     16  H   UNL     1       1.118   3.107  16.830  0.00  0.00    +0.000 HD
ENDBRANCH  12  15
BRANCH  13  17
ATOM     17  C   UNL     1       2.782   1.866  17.954  0.00  0.00    +0.000 C 
BRANCH  17  18
ATOM     18  O   UNL     1       3.934   1.205  18.474  0.00  0.00    +0.000 OA
ATOM     19  H   UNL     1       3.981   0.332  18.035  0.00  0.00    +0.000 HD
ENDBRANCH  17  18
ENDBRANCH  13  17
ENDBRANCH   3  10
BRANCH   1  20
ATOM     20  C   UNL     1       5.237   4.563  14.436  0.00  0.00    +0.000 C 
BRANCH  20  21
ATOM     21  C   UNL     1       6.023   3.546  13.609  0.00  0.00    +0.000 C 
BRANCH  21  23
ATOM     22  C   UNL     1       5.550   2.333  11.651  0.00  0.00    +0.000 C 
ATOM     23  O   UNL     1       5.608   3.625  12.243  0.00  0.00    +0.000 OA
ENDBRANCH  21  23
ENDBRANCH  20  21
ENDBRANCH   1  20
TORSDOF 7
ENDMDL
MODEL 4
REMARK VINA RESULT:      -6.8      1.177      1.254
REMARK  Name = 
REMARK  8 active torsions:
REMARK  status: ('A' for Active; 'I' for Inactive)
REMARK    1  A    between atoms: C_1  and  O_2
REMARK    2  A    between atoms: O_2  and  C_3
REMARK    3  A    between atoms: C_3  and  C_4
REMARK    4  A    between atoms: C_4  and  C_5
REMARK    5  A    between atoms: N_7  and  C_8
REMARK    6  A    between atoms: C_10  and  O_11
REMARK    7  A    between atoms: C_12  and  C_13
REMARK    8  A    between atoms: C_13  and  O_14
REMARK                            x       y       z     vdW  Elec       q    Type
REMARK                         _______ _______ _______ _____ _____    ______ ____
ROOT
ATOM      1  C   UNL     1       5.780   5.133  16.667  0.00  0.00    +0.000 A 
ATOM      2  C   UNL     1       4.768   4.374  17.106  0.00  0.00    +0.000 A 
ATOM      3  N   UNL     1       3.647   4.876  17.761  0.00  0.00    +0.000 N 
ATOM      4  C   UNL     1       3.537   6.267  17.924  0.00  0.00    +0.000 A 
ATOM      5  O   UNL     1       2.514   6.880  18.212  0.00  0.00    +0.000 OA
ATOM      6  N   UNL     1       4.680   6.988  17.708  0.00  0.00    +0.000 N 
ATOM      7  C   UNL     1       5.691   6.587  16.888  0.00  0.00    +0.000 A 
ATOM      8  O   UNL     1       6.449   7.378  16.346  0.00  0.00    +0.000 OA
ATOM      9  H   UNL     1       4.569   7.987  17.793  0.00  0.00    +0.000 HD
ENDROOT
BRANCH   3  10
ATOM     10  C   UNL     1       2.433   4.028  17.892  0.00  0.00    +0.000 C 
ATOM     11  C   UNL     1       2.519   2.580  17.353  0.00  0.00    +0.000 C 
ATOM     12  C   UNL     1       2.845   1.569  18.467  0.00  0.00    +0.000 C 
ATOM     13  C   UNL     1       2.937   2.255  19.829  0.00  0.00    +0.000 C 
ATOM     14  S   UNL     1       1.888   3.713  19.601  0.00  0.00    +0.000 S 
BRANCH  12  15
ATOM     15  O   UNL     1       3.984   0.785  18.129  0.00  0.00    +0.000 OA
ATOM     16  H   UNL     1       4.515   0.604  18.923  0.00  0.00    +0.000 HD
ENDBRANCH  12  15
BRANCH  13  17
ATOM     17  C   UNL     1       4.340   2.659  20.287  0.00  0.00    +0.000 C 
BRANCH  17  18
ATOM     18  O   UNL     1       5.179   1.515  20.435  0.00  0.00    +0.000 OA
ATOM     19  H   UNL     1       6.094   1.812  20.263  0.00  0.00    +0.000 HD
ENDBRANCH  17  18
ENDBRANCH  13  17
ENDBRANCH   3  10
BRANCH   1  20
ATOM     20  C   UNL     1       6.956   4.593  15.897  0.00  0.00    +0.000 C 
BRANCH  20  21
ATOM     21  C   UNL     1       6.819   4.760  14.384  0.00  0.00    +0.000 C 
BRANCH  21  23
ATOM     22  C   UNL     1       6.297   3.498  12.470  0.00  0.00    +0.000 C 
ATOM     23  O   UNL     1       6.043   3.679  13.858  0.00  0.00    +0.000 OA
ENDBRANCH  21  23
ENDBRANCH  20  21
ENDBRANCH   1  20
TORSDOF 7
ENDMDL
MODEL 5
REMARK VINA RESULT:      -6.6      2.126      2.545
REMARK  Name = 
REMARK  8 active torsions:
REMARK  status: ('A' for Active; 'I' for Inactive)
REMARK    1  A    between atoms: C_1  and  O_2
REMARK    2  A    between atoms: O_2  and  C_3
REMARK    3  A    between atoms: C_3  and  C_4
REMARK    4  A    between atoms: C_4  and  C_5
REMARK    5  A    between atoms: N_7  and  C_8
REMARK    6  A    between atoms: C_10  and  O_11
REMARK    7  A    between atoms: C_12  and  C_13
REMARK    8  A    between atoms: C_13  and  O_14
REMARK                            x       y       z     vdW  Elec       q    Type
REMARK                         _______ _______ _______ _____ _____    ______ ____
ROOT
ATOM      1  C   UNL     1       5.893   4.090  16.125  0.00  0.00    +0.000 A 
ATOM      2  C   UNL     1       4.615   4.212  16.504  0.00  0.00    +0.000 A 
ATOM      3  N   UNL     1       4.215   4.550  17.794  0.00  0.00    +0.000 N 
ATOM      4  C   UNL     1       5.207   4.841  18.744  0.00  0.00    +0.000 A 
ATOM      5  O   UNL     1       5.034   5.418  19.814  0.00  0.00    +0.000 OA
ATOM      6  N   UNL     1       6.481   4.464  18.416  0.00  0.00    +0.000 N 
ATOM      7  C   UNL     1       6.934   4.340  17.137  0.00  0.00    +0.000 A 
ATOM      8  O   UNL     1       8.114   4.463  16.844  0.00  0.00    +0.000 OA
ATOM      9  H   UNL     1       7.182   4.716  19.095  0.00  0.00    +0.000 HD
ENDROOT
BRANCH   3  10
ATOM     10  C   UNL     1       2.819   5.004  18.034  0.00  0.00    +0.000 C 
ATOM     11  C   UNL     1       1.680   4.047  17.607  0.00  0.00    +0.000 C 
ATOM     12  C   UNL     1       1.171   3.197  18.785  0.00  0.00    +0.000 C 
ATOM     13  C   UNL     1       1.884   3.566  20.084  0.00  0.00    +0.000 C 
ATOM     14  S   UNL     1       2.383   5.279  19.780  0.00  0.00    +0.000 S 
BRANCH  12  15
ATOM     15  O   UNL     1       1.212   1.809  18.469  0.00  0.00    +0.000 OA
ATOM     16  H   UNL     1       1.819   1.345  19.070  0.00  0.00    +0.000 HD
ENDBRANCH  12  15
BRANCH  13  17
ATOM     17  C   UNL     1       3.092   2.704  20.459  0.00  0.00    +0.000 C 
BRANCH  17  18
ATOM     18  O   UNL     1       3.065   2.361  21.843  0.00  0.00    +0.000 OA
ATOM     19  H   UNL     1       3.925   1.944  22.047  0.00  0.00    +0.000 HD
ENDBRANCH  17  18
ENDBRANCH  13  17
ENDBRANCH   3  10
BRANCH   1  20
ATOM     20  C   UNL     1       6.320   3.793  14.712  0.00  0.00    +0.000 C 
BRANCH  20  21
ATOM     21  C   UNL     1       5.201   3.980  13.688  0.00  0.00    +0.000 C 
BRANCH  21  23
ATOM     22  C   UNL     1       4.477   3.213  11.587  0.00  0.00    +0.000 C 
ATOM     23  O   UNL     1       5.598   3.399  12.443  0.00  0.00    +0.000 OA
ENDBRANCH  21  23
ENDBRANCH  20  21
ENDBRANCH   1  20
TORSDOF 7
ENDMDL
MODEL 6
REMARK VINA RESULT:      -6.5      2.099      2.680
REMARK  Name = 
REMARK  8 active torsions:
REMARK  status: ('A' for Active; 'I' for Inactive)
REMARK    1  A    between atoms: C_1  and  O_2
REMARK    2  A    between atoms: O_2  and  C_3
REMARK    3  A    between atoms: C_3  and  C_4
REMARK    4  A    between atoms: C_4  and  C_5
REMARK    5  A    between atoms: N_7  and  C_8
REMARK    6  A    between atoms: C_10  and  O_11
REMARK    7  A    between atoms: C_12  and  C_13
REMARK    8  A    between atoms: C_13  and  O_14
REMARK                            x       y       z     vdW  Elec       q    Type
REMARK                         _______ _______ _______ _____ _____    ______ ____
ROOT
ATOM      1  C   UNL     1       5.976   4.247  14.972  0.00  0.00    +0.000 A 
ATOM      2  C   UNL     1       4.958   4.234  15.842  0.00  0.00    +0.000 A 
ATOM      3  N   UNL     1       4.807   5.153  16.877  0.00  0.00    +0.000 N 
ATOM      4  C   UNL     1       5.743   6.195  16.984  0.00  0.00    +0.000 A 
ATOM      5  O   UNL     1       5.604   7.224  17.638  0.00  0.00    +0.000 OA
ATOM      6  N   UNL     1       6.896   6.041  16.263  0.00  0.00    +0.000 N 
ATOM      7  C   UNL     1       6.989   5.306  15.120  0.00  0.00    +0.000 A 
ATOM      8  O   UNL     1       7.829   5.531  14.262  0.00  0.00    +0.000 OA
ATOM      9  H   UNL     1       7.537   6.817  16.326  0.00  0.00    +0.000 HD
ENDROOT
BRANCH   3  10
ATOM     10  C   UNL     1       3.492   5.281  17.559  0.00  0.00    +0.000 C 
ATOM     11  C   UNL     1       2.481   4.124  17.370  0.00  0.00    +0.000 C 
ATOM     12  C   UNL     1       2.528   3.123  18.539  0.00  0.00    +0.000 C 
ATOM     13  C   UNL     1       3.520   3.570  19.612  0.00  0.00    +0.000 C 
ATOM     14  S   UNL     1       3.566   5.363  19.376  0.00  0.00    +0.000 S 
BRANCH  12  15
ATOM     15  O   UNL     1       2.734   1.796  18.068  0.00  0.00    +0.000 OA
ATOM     16  H   UNL     1       3.649   1.515  18.242  0.00  0.00    +0.000 HD
ENDBRANCH  12  15
BRANCH  13  17
ATOM     17  C   UNL     1       4.925   2.971  19.522  0.00  0.00    +0.000 C 
BRANCH  17  18
ATOM     18  O   UNL     1       4.905   1.573  19.803  0.00  0.00    +0.000 OA
ATOM     19  H   UNL     1       5.024   1.112  18.950  0.00  0.00    +0.000 HD
ENDBRANCH  17  18
ENDBRANCH  13  17
ENDBRANCH   3  10
BRANCH   1  20
ATOM     20  C   UNL     1       6.095   3.293  13.814  0.00  0.00    +0.000 C 
BRANCH  20  21
ATOM     21  C   UNL     1       5.478   3.826  12.521  0.00  0.00    +0.000 C 
BRANCH  21  23
ATOM     22  C   UNL     1       3.819   3.099  11.022  0.00  0.00    +0.000 C 
ATOM     23  O   UNL     1       4.989   2.731  11.743  0.00  0.00    +0.000 OA
ENDBRANCH  21  23
ENDBRANCH  20  21
ENDBRANCH   1  20
TORSDOF 7
ENDMDL
MODEL 7
REMARK VINA RESULT:      -6.4      1.887      2.086
REMARK  Name = 
REMARK  8 active torsions:
REMARK  status: ('A' for Active; 'I' for Inactive)
REMARK    1  A    between atoms: C_1  and  O_2
REMARK    2  A    between atoms: O_2  and  C_3
REMARK    3  A    between atoms: C_3  and  C_4
REMARK    4  A    between atoms: C_4  and  C_5
REMARK    5  A    between atoms: N_7  and  C_8
REMARK    6  A    between atoms: C_10  and  O_11
REMARK    7  A    between atoms: C_12  and  C_13
REMARK    8  A    between atoms: C_13  and  O_14
REMARK                            x       y       z     vdW  Elec       q    Type
REMARK                         _______ _______ _______ _____ _____    ______ ____
ROOT
ATOM      1  C   UNL     1       5.608   5.100  15.920  0.00  0.00    +0.000 A 
ATOM      2  C   UNL     1       4.495   4.771  16.587  0.00  0.00    +0.000 A 
ATOM      3  N   UNL     1       4.362   4.864  17.970  0.00  0.00    +0.000 N 
ATOM      4  C   UNL     1       5.434   5.390  18.709  0.00  0.00    +0.000 A 
ATOM      5  O   UNL     1       5.382   5.798  19.865  0.00  0.00    +0.000 OA
ATOM      6  N   UNL     1       6.632   5.471  18.052  0.00  0.00    +0.000 N 
ATOM      7  C   UNL     1       6.754   5.596  16.701  0.00  0.00    +0.000 A 
ATOM      8  O   UNL     1       7.727   6.117  16.175  0.00  0.00    +0.000 OA
ATOM      9  H   UNL     1       7.379   5.885  18.589  0.00  0.00    +0.000 HD
ENDROOT
BRANCH   3  10
ATOM     10  C   UNL     1       3.006   4.822  18.580  0.00  0.00    +0.000 C 
ATOM     11  C   UNL     1       1.904   4.061  17.805  0.00  0.00    +0.000 C 
ATOM     12  C   UNL     1       1.731   2.619  18.317  0.00  0.00    +0.000 C 
ATOM     13  C   UNL     1       2.655   2.337  19.501  0.00  0.00    +0.000 C 
ATOM     14  S   UNL     1       2.910   3.988  20.196  0.00  0.00    +0.000 S 
BRANCH  12  15
ATOM     15  O   UNL     1       1.843   1.682  17.252  0.00  0.00    +0.000 OA
ATOM     16  H   UNL     1       2.711   1.764  16.821  0.00  0.00    +0.000 HD
ENDBRANCH  12  15
BRANCH  13  17
ATOM     17  C   UNL     1       3.992   1.671  19.170  0.00  0.00    +0.000 C 
BRANCH  17  18
ATOM     18  O   UNL     1       5.017   2.113  20.057  0.00  0.00    +0.000 OA
ATOM     19  H   UNL     1       5.344   1.321  20.528  0.00  0.00    +0.000 HD
ENDBRANCH  17  18
ENDBRANCH  13  17
ENDBRANCH   3  10
BRANCH   1  20
ATOM     20  C   UNL     1       5.722   5.063  14.418  0.00  0.00    +0.000 C 
BRANCH  20  21
ATOM     21  C   UNL     1       6.131   3.695  13.874  0.00  0.00    +0.000 C 
BRANCH  21  23
ATOM     22  C   UNL     1       5.185   3.048  11.821  0.00  0.00    +0.000 C 
ATOM     23  O   UNL     1       6.240   3.766  12.450  0.00  0.00    +0.000 OA
ENDBRANCH  21  23
ENDBRANCH  20  21
ENDBRANCH   1  20
TORSDOF 7
ENDMDL
MODEL 8
REMARK VINA RESULT:      -6.4      2.291      3.036
REMARK  Name = 
REMARK  8 active torsions:
REMARK  status: ('A' for Active; 'I' for Inactive)
REMARK    1  A    between atoms: C_1  and  O_2
REMARK    2  A    between atoms: O_2  and  C_3
REMARK    3  A    between atoms: C_3  and  C_4
REMARK    4  A    between atoms: C_4  and  C_5
REMARK    5  A    between atoms: N_7  and  C_8
REMARK    6  A    between atoms: C_10  and  O_11
REMARK    7  A    between atoms: C_12  and  C_13
REMARK    8  A    between atoms: C_13  and  O_14
REMARK                            x       y       z     vdW  Elec       q    Type
REMARK                         _______ _______ _______ _____ _____    ______ ____
ROOT
ATOM      1  C   UNL     1       5.736   4.757  14.980  0.00  0.00    +0.000 A 
ATOM      2  C   UNL     1       4.895   4.883  16.015  0.00  0.00    +0.000 A 
ATOM      3  N   UNL     1       5.272   5.350  17.270  0.00  0.00    +0.000 N 
ATOM      4  C   UNL     1       6.599   5.774  17.453  0.00  0.00    +0.000 A 
ATOM      5  O   UNL     1       7.016   6.461  18.381  0.00  0.00    +0.000 OA
ATOM      6  N   UNL     1       7.487   5.399  16.481  0.00  0.00    +0.000 N 
ATOM      7  C   UNL     1       7.141   5.147  15.188  0.00  0.00    +0.000 A 
ATOM      8  O   UNL     1       7.929   5.270  14.262  0.00  0.00    +0.000 OA
ATOM      9  H   UNL     1       8.425   5.744  16.614  0.00  0.00    +0.000 HD
ENDROOT
BRANCH   3  10
ATOM     10  C   UNL     1       4.228   5.787  18.234  0.00  0.00    +0.000 C 
ATOM     11  C   UNL     1       2.754   5.686  17.776  0.00  0.00    +0.000 C 
ATOM     12  C   UNL     1       2.085   4.390  18.270  0.00  0.00    +0.000 C 
ATOM     13  C   UNL     1       3.038   3.571  19.139  0.00  0.00    +0.000 C 
ATOM     14  S   UNL     1       4.158   4.837  19.786  0.00  0.00    +0.000 S 
BRANCH  12  15
ATOM     15  O   UNL     1       1.512   3.665  17.187  0.00  0.00    +0.000 OA
ATOM     16  H   UNL     1       2.156   3.031  16.828  0.00  0.00    +0.000 HD
ENDBRANCH  12  15
BRANCH  13  17
ATOM     17  C   UNL     1       3.819   2.465  18.425  0.00  0.00    +0.000 C 
BRANCH  17  18
ATOM     18  O   UNL     1       3.015   1.299  18.255  0.00  0.00    +0.000 OA
ATOM     19  H   UNL     1       3.389   0.611  18.840  0.00  0.00    +0.000 HD
ENDBRANCH  17  18
ENDBRANCH  13  17
ENDBRANCH   3  10
BRANCH   1  20
ATOM     20  C   UNL     1       5.307   4.317  13.605  0.00  0.00    +0.000 C 
BRANCH  20  21
ATOM     21  C   UNL     1       6.171   3.196  13.030  0.00  0.00    +0.000 C 
BRANCH  21  23
ATOM     22  C   UNL     1       4.335   3.281  11.564  0.00  0.00    +0.000 C 
ATOM     23  O   UNL     1       5.672   2.827  11.742  0.00  0.00    +0.000 OA
ENDBRANCH  21  23
ENDBRANCH  20  21
ENDBRANCH   1  20
TORSDOF 7
ENDMDL
MODEL 9
REMARK VINA RESULT:      -6.3      2.116      3.173
REMARK  Name = 
REMARK  8 active torsions:
REMARK  status: ('A' for Active; 'I' for Inactive)
REMARK    1  A    between atoms: C_1  and  O_2
REMARK    2  A    between atoms: O_2  and  C_3
REMARK    3  A    between atoms: C_3  and  C_4
REMARK    4  A    between atoms: C_4  and  C_5
REMARK    5  A    between atoms: N_7  and  C_8
REMARK    6  A    between atoms: C_10  and  O_11
REMARK    7  A    between atoms: C_12  and  C_13
REMARK    8  A    between atoms: C_13  and  O_14
REMARK                            x       y       z     vdW  Elec       q    Type
REMARK                         _______ _______ _______ _____ _____    ______ ____
ROOT
ATOM      1  C   UNL     1       5.080   4.636  16.903  0.00  0.00    +0.000 A 
ATOM      2  C   UNL     1       4.001   3.866  17.094  0.00  0.00    +0.000 A 
ATOM      3  N   UNL     1       3.814   3.053  18.209  0.00  0.00    +0.000 N 
ATOM      4  C   UNL     1       4.782   3.083  19.226  0.00  0.00    +0.000 A 
ATOM      5  O   UNL     1       4.639   2.663  20.371  0.00  0.00    +0.000 OA
ATOM      6  N   UNL     1       5.978   3.664  18.899  0.00  0.00    +0.000 N 
ATOM      7  C   UNL     1       6.123   4.624  17.943  0.00  0.00    +0.000 A 
ATOM      8  O   UNL     1       7.032   5.441  17.966  0.00  0.00    +0.000 OA
ATOM      9  H   UNL     1       6.644   3.708  19.654  0.00  0.00    +0.000 HD
ENDROOT
BRANCH   3  10
ATOM     10  C   UNL     1       2.459   2.518  18.508  0.00  0.00    +0.000 C 
ATOM     11  C   UNL     1       2.188   2.043  19.955  0.00  0.00    +0.000 C 
ATOM     12  C   UNL     1       1.496   3.130  20.798  0.00  0.00    +0.000 C 
ATOM     13  C   UNL     1       1.201   4.375  19.962  0.00  0.00    +0.000 C 
ATOM     14  S   UNL     1       1.093   3.701  18.286  0.00  0.00    +0.000 S 
BRANCH  12  15
ATOM     15  O   UNL     1       2.221   3.387  21.996  0.00  0.00    +0.000 OA
ATOM     16  H   UNL     1       2.767   4.185  21.893  0.00  0.00    +0.000 HD
ENDBRANCH  12  15
BRANCH  13  17
ATOM     17  C   UNL     1       2.240   5.496  20.034  0.00  0.00    +0.000 C 
BRANCH  17  18
ATOM     18  O   UNL     1       1.910   6.435  21.055  0.00  0.00    +0.000 OA
ATOM     19  H   UNL     1       1.333   7.108  20.644  0.00  0.00    +0.000 HD
ENDBRANCH  17  18
ENDBRANCH  13  17
ENDBRANCH   3  10
BRANCH   1  20
ATOM     20  C   UNL     1       5.244   5.565  15.730  0.00  0.00    +0.000 C 
BRANCH  20  21
ATOM     21  C   UNL     1       6.168   5.015  14.644  0.00  0.00    +0.000 C 
BRANCH  21  23
ATOM     22  C   UNL     1       6.239   3.615  12.757  0.00  0.00    +0.000 C 
ATOM     23  O   UNL     1       5.459   4.049  13.864  0.00  0.00    +0.000 OA
ENDBRANCH  21  23
ENDBRANCH  20  21
ENDBRANCH   1  20
TORSDOF 7
ENDMDL
