MODEL 1
REMARK VINA RESULT:      -8.1      0.000      0.000
REMARK  Name = 
REMARK  6 active torsions:
REMARK  status: ('A' for Active; 'I' for Inactive)
REMARK    1  A    between atoms: N_3  and  C_4
REMARK    2  A    between atoms: C_5  and  C_6
REMARK    3  A    between atoms: C_9  and  C_10
REMARK    4  A    between atoms: N_18  and  O_19
REMARK    5  A    between atoms: O_19  and  C_20
REMARK    6  A    between atoms: C_20  and  C_21
REMARK                            x       y       z     vdW  Elec       q    Type
REMARK                         _______ _______ _______ _____ _____    ______ ____
ROOT
ATOM      1  O   UNL     1       6.029   5.847  19.643  0.00  0.00    +0.000 OA
ATOM      2  C   UNL     1       6.674   5.400  18.700  0.00  0.00    +0.000 C 
ATOM      3  N   UNL     1       7.723   6.082  18.094  0.00  0.00    +0.000 N 
ATOM      4  N   UNL     1       6.429   4.183  18.099  0.00  0.00    +0.000 N 
ATOM      5  H   UNL     1       8.228   5.643  17.341  0.00  0.00    +0.000 HD
ATOM      6  H   UNL     1       7.075   3.742  17.464  0.00  0.00    +0.000 HD
ENDROOT
BRANCH   3   7
ATOM      7  C   UNL     1       8.115   7.333  18.511  0.00  0.00    +0.000 C 
ATOM      8  C   UNL     1       8.082   8.434  17.744  0.00  0.00    +0.000 C 
BRANCH   8   9
ATOM      9  C   UNL     1       8.554   9.737  18.252  0.00  0.00    +0.000 A 
ATOM     10  C   UNL     1       8.346  10.915  17.529  0.00  0.00    +0.000 A 
ATOM     11  C   UNL     1       8.831  12.143  17.992  0.00  0.00    +0.000 A 
ATOM     12  C   UNL     1       9.502  12.258  19.218  0.00  0.00    +0.000 A 
ATOM     13  C   UNL     1       9.666  11.073  19.961  0.00  0.00    +0.000 A 
ATOM     14  C   UNL     1       9.201   9.832  19.486  0.00  0.00    +0.000 A 
BRANCH  12  15
ATOM     15  C   UNL     1      10.033  13.568  19.672  0.00  0.00    +0.000 A 
ATOM     16  C   UNL     1      10.571  14.500  18.764  0.00  0.00    +0.000 A 
ATOM     17  C   UNL     1      11.147  15.699  19.192  0.00  0.00    +0.000 A 
ATOM     18  C   UNL     1      11.172  16.013  20.546  0.00  0.00    +0.000 A 
ATOM     19  C   UNL     1      10.614  15.129  21.467  0.00  0.00    +0.000 A 
ATOM     20  C   UNL     1      10.058  13.925  21.035  0.00  0.00    +0.000 A 
ENDBRANCH  12  15
ENDBRANCH   8   9
ENDBRANCH   3   7
BRANCH   4  21
ATOM     21  O   UNL     1       5.432   3.386  18.717  0.00  0.00    +0.000 OA
BRANCH  21  22
ATOM     22  C   UNL     1       4.259   3.334  17.897  0.00  0.00    +0.000 C 
BRANCH  22  23
ATOM     23  C   UNL     1       3.006   3.339  18.741  0.00  0.00    +0.000 A 
ATOM     24  C   UNL     1       1.873   2.597  18.371  0.00  0.00    +0.000 A 
ATOM     25  C   UNL     1       0.707   2.646  19.137  0.00  0.00    +0.000 A 
ATOM     26  C   UNL     1       0.667   3.410  20.301  0.00  0.00    +0.000 A 
ATOM     27  C   UNL     1       1.801   4.109  20.711  0.00  0.00    +0.000 A 
ATOM     28  C   UNL     1       2.965   4.069  19.940  0.00  0.00    +0.000 A 
ENDBRANCH  22  23
ENDBRANCH  21  22
ENDBRANCH   4  21
TORSDOF 6
ENDMDL
MODEL 2
REMARK VINA RESULT:      -8.0      1.615      1.843
REMARK  Name = 
REMARK  6 active torsions:
REMARK  status: ('A' for Active; 'I' for Inactive)
REMARK    1  A    between atoms: N_3  and  C_4
REMARK    2  A    between atoms: C_5  and  C_6
REMARK    3  A    between atoms: C_9  and  C_10
REMARK    4  A    between atoms: N_18  and  O_19
REMARK    5  A    between atoms: O_19  and  C_20
REMARK    6  A    between atoms: C_20  and  C_21
REMARK                            x       y       z     vdW  Elec       q    Type
REMARK                         _______ _______ _______ _____ _____    ______ ____
ROOT
ATOM      1  O   UNL     1       5.328   7.420  16.991  0.00  0.00    +0.000 OA
ATOM      2  C   UNL     1       6.184   6.645  17.404  0.00  0.00    +0.000 C 
ATOM      3  N   UNL     1       7.473   7.035  17.749  0.00  0.00    +0.000 N 
ATOM      4  N   UNL     1       5.995   5.287  17.552  0.00  0.00    +0.000 N 
ATOM      5  H   UNL     1       8.117   6.348  18.107  0.00  0.00    +0.000 HD
ATOM      6  H   UNL     1       6.626   4.696  18.068  0.00  0.00    +0.000 HD
ENDROOT
BRANCH   3   7
ATOM      7  C   UNL     1       7.890   8.341  17.642  0.00  0.00    +0.000 C 
ATOM      8  C   UNL     1       8.619   8.984  18.569  0.00  0.00    +0.000 C 
BRANCH   8   9
ATOM      9  C   UNL     1       8.998  10.399  18.401  0.00  0.00    +0.000 A 
ATOM     10  C   UNL     1       8.157  11.302  17.744  0.00  0.00    +0.000 A 
ATOM     11  C   UNL     1       8.538  12.635  17.549  0.00  0.00    +0.000 A 
ATOM     12  C   UNL     1       9.751  13.137  18.041  0.00  0.00    +0.000 A 
ATOM     13  C   UNL     1      10.570  12.231  18.741  0.00  0.00    +0.000 A 
ATOM     14  C   UNL     1      10.202  10.885  18.918  0.00  0.00    +0.000 A 
BRANCH  12  15
ATOM     15  C   UNL     1      10.143  14.547  17.794  0.00  0.00    +0.000 A 
ATOM     16  C   UNL     1      11.354  14.875  17.155  0.00  0.00    +0.000 A 
ATOM     17  C   UNL     1      11.767  16.200  16.993  0.00  0.00    +0.000 A 
ATOM     18  C   UNL     1      10.960  17.239  17.441  0.00  0.00    +0.000 A 
ATOM     19  C   UNL     1       9.738  16.950  18.044  0.00  0.00    +0.000 A 
ATOM     20  C   UNL     1       9.340  15.625  18.221  0.00  0.00    +0.000 A 
ENDBRANCH  12  15
ENDBRANCH   8   9
ENDBRANCH   3   7
BRANCH   4  21
ATOM     21  O   UNL     1       4.677   4.823  17.306  0.00  0.00    +0.000 OA
BRANCH  21  22
ATOM     22  C   UNL     1       4.442   3.599  18.012  0.00  0.00    +0.000 C 
BRANCH  22  23
ATOM     23  C   UNL     1       3.228   3.711  18.905  0.00  0.00    +0.000 A 
ATOM     24  C   UNL     1       2.228   2.727  18.905  0.00  0.00    +0.000 A 
ATOM     25  C   UNL     1       1.091   2.865  19.704  0.00  0.00    +0.000 A 
ATOM     26  C   UNL     1       0.953   3.973  20.537  0.00  0.00    +0.000 A 
ATOM     27  C   UNL     1       1.964   4.932  20.589  0.00  0.00    +0.000 A 
ATOM     28  C   UNL     1       3.097   4.800  19.783  0.00  0.00    +0.000 A 
ENDBRANCH  22  23
ENDBRANCH  21  22
ENDBRANCH   4  21
TORSDOF 6
ENDMDL
MODEL 3
REMARK VINA RESULT:      -7.8      2.764     11.501
REMARK  Name = 
REMARK  6 active torsions:
REMARK  status: ('A' for Active; 'I' for Inactive)
REMARK    1  A    between atoms: N_3  and  C_4
REMARK    2  A    between atoms: C_5  and  C_6
REMARK    3  A    between atoms: C_9  and  C_10
REMARK    4  A    between atoms: N_18  and  O_19
REMARK    5  A    between atoms: O_19  and  C_20
REMARK    6  A    between atoms: C_20  and  C_21
REMARK                            x       y       z     vdW  Elec       q    Type
REMARK                         _______ _______ _______ _____ _____    ______ ____
ROOT
ATOM      1  O   UNL     1       9.261  10.299  20.016  0.00  0.00    +0.000 OA
ATOM      2  C   UNL     1       9.498  10.555  18.840  0.00  0.00    +0.000 C 
ATOM      3  N   UNL     1       8.817   9.975  17.775  0.00  0.00    +0.000 N 
ATOM      4  N   UNL     1      10.483  11.422  18.417  0.00  0.00    +0.000 N 
ATOM      5  H   UNL     1       9.046  10.253  16.834  0.00  0.00    +0.000 HD
ATOM      6  H   UNL     1      10.541  11.772  17.474  0.00  0.00    +0.000 HD
ENDROOT
BRANCH   3   7
ATOM      7  C   UNL     1       7.817   9.051  17.968  0.00  0.00    +0.000 C 
ATOM      8  C   UNL     1       7.896   7.760  17.607  0.00  0.00    +0.000 C 
BRANCH   8   9
ATOM      9  C   UNL     1       6.766   6.835  17.814  0.00  0.00    +0.000 A 
ATOM     10  C   UNL     1       5.594   6.943  17.060  0.00  0.00    +0.000 A 
ATOM     11  C   UNL     1       4.507   6.091  17.287  0.00  0.00    +0.000 A 
ATOM     12  C   UNL     1       4.559   5.064  18.241  0.00  0.00    +0.000 A 
ATOM     13  C   UNL     1       5.761   4.934  18.963  0.00  0.00    +0.000 A 
ATOM     14  C   UNL     1       6.846   5.805  18.755  0.00  0.00    +0.000 A 
BRANCH  12  15
ATOM     15  C   UNL     1       3.380   4.194  18.482  0.00  0.00    +0.000 A 
ATOM     16  C   UNL     1       3.247   2.941  17.853  0.00  0.00    +0.000 A 
ATOM     17  C   UNL     1       2.104   2.154  18.011  0.00  0.00    +0.000 A 
ATOM     18  C   UNL     1       1.069   2.589  18.831  0.00  0.00    +0.000 A 
ATOM     19  C   UNL     1       1.185   3.807  19.497  0.00  0.00    +0.000 A 
ATOM     20  C   UNL     1       2.321   4.597  19.321  0.00  0.00    +0.000 A 
ENDBRANCH  12  15
ENDBRANCH   8   9
ENDBRANCH   3   7
BRANCH   4  21
ATOM     21  O   UNL     1      11.162  12.124  19.446  0.00  0.00    +0.000 OA
BRANCH  21  22
ATOM     22  C   UNL     1      12.331  12.764  18.922  0.00  0.00    +0.000 C 
BRANCH  22  23
ATOM     23  C   UNL     1      12.063  14.220  18.616  0.00  0.00    +0.000 A 
ATOM     24  C   UNL     1      12.085  15.194  19.626  0.00  0.00    +0.000 A 
ATOM     25  C   UNL     1      11.793  16.528  19.337  0.00  0.00    +0.000 A 
ATOM     26  C   UNL     1      11.506  16.912  18.029  0.00  0.00    +0.000 A 
ATOM     27  C   UNL     1      11.534  15.966  17.006  0.00  0.00    +0.000 A 
ATOM     28  C   UNL     1      11.817  14.630  17.296  0.00  0.00    +0.000 A 
ENDBRANCH  22  23
ENDBRANCH  21  22
ENDBRANCH   4  21
TORSDOF 6
ENDMDL
MODEL 4
REMARK VINA RESULT:      -7.8      1.022      1.068
REMARK  Name = 
REMARK  6 active torsions:
REMARK  status: ('A' for Active; 'I' for Inactive)
REMARK    1  A    between atoms: N_3  and  C_4
REMARK    2  A    between atoms: C_5  and  C_6
REMARK    3  A    between atoms: C_9  and  C_10
REMARK    4  A    between atoms: N_18  and  O_19
REMARK    5  A    between atoms: O_19  and  C_20
REMARK    6  A    between atoms: C_20  and  C_21
REMARK                            x       y       z     vdW  Elec       q    Type
REMARK                         _______ _______ _______ _____ _____    ______ ____
ROOT
ATOM      1  O   UNL     1       5.247   7.100  17.634  0.00  0.00    +0.000 OA
ATOM      2  C   UNL     1       6.114   6.350  17.198  0.00  0.00    +0.000 C 
ATOM      3  N   UNL     1       7.435   6.735  16.998  0.00  0.00    +0.000 N 
ATOM      4  N   UNL     1       5.891   5.042  16.821  0.00  0.00    +0.000 N 
ATOM      5  H   UNL     1       8.101   6.058  16.662  0.00  0.00    +0.000 HD
ATOM      6  H   UNL     1       6.635   4.383  16.652  0.00  0.00    +0.000 HD
ENDROOT
BRANCH   3   7
ATOM      7  C   UNL     1       7.870   8.011  17.273  0.00  0.00    +0.000 C 
ATOM      8  C   UNL     1       8.399   8.397  18.445  0.00  0.00    +0.000 C 
BRANCH   8   9
ATOM      9  C   UNL     1       8.810   9.794  18.677  0.00  0.00    +0.000 A 
ATOM     10  C   UNL     1       8.529  10.798  17.746  0.00  0.00    +0.000 A 
ATOM     11  C   UNL     1       8.956  12.115  17.949  0.00  0.00    +0.000 A 
ATOM     12  C   UNL     1       9.639  12.499  19.112  0.00  0.00    +0.000 A 
ATOM     13  C   UNL     1       9.877  11.490  20.066  0.00  0.00    +0.000 A 
ATOM     14  C   UNL     1       9.471  10.160  19.853  0.00  0.00    +0.000 A 
BRANCH  12  15
ATOM     15  C   UNL     1      10.107  13.896  19.289  0.00  0.00    +0.000 A 
ATOM     16  C   UNL     1       9.935  14.865  18.282  0.00  0.00    +0.000 A 
ATOM     17  C   UNL     1      10.446  16.160  18.408  0.00  0.00    +0.000 A 
ATOM     18  C   UNL     1      11.120  16.530  19.566  0.00  0.00    +0.000 A 
ATOM     19  C   UNL     1      11.275  15.607  20.597  0.00  0.00    +0.000 A 
ATOM     20  C   UNL     1      10.779  14.310  20.457  0.00  0.00    +0.000 A 
ENDBRANCH  12  15
ENDBRANCH   8   9
ENDBRANCH   3   7
BRANCH   4  21
ATOM     21  O   UNL     1       4.588   4.545  17.079  0.00  0.00    +0.000 OA
BRANCH  21  22
ATOM     22  C   UNL     1       4.606   3.667  18.210  0.00  0.00    +0.000 C 
BRANCH  22  23
ATOM     23  C   UNL     1       3.222   3.503  18.793  0.00  0.00    +0.000 A 
ATOM     24  C   UNL     1       2.297   2.606  18.237  0.00  0.00    +0.000 A 
ATOM     25  C   UNL     1       1.007   2.496  18.759  0.00  0.00    +0.000 A 
ATOM     26  C   UNL     1       0.634   3.258  19.865  0.00  0.00    +0.000 A 
ATOM     27  C   UNL     1       1.558   4.112  20.462  0.00  0.00    +0.000 A 
ATOM     28  C   UNL     1       2.846   4.230  19.935  0.00  0.00    +0.000 A 
ENDBRANCH  22  23
ENDBRANCH  21  22
ENDBRANCH   4  21
TORSDOF 6
ENDMDL
MODEL 5
REMARK VINA RESULT:      -7.8      1.347      2.300
REMARK  Name = 
REMARK  6 active torsions:
REMARK  status: ('A' for Active; 'I' for Inactive)
REMARK    1  A    between atoms: N_3  and  C_4
REMARK    2  A    between atoms: C_5  and  C_6
REMARK    3  A    between atoms: C_9  and  C_10
REMARK    4  A    between atoms: N_18  and  O_19
REMARK    5  A    between atoms: O_19  and  C_20
REMARK    6  A    between atoms: C_20  and  C_21
REMARK                            x       y       z     vdW  Elec       q    Type
REMARK                         _______ _______ _______ _____ _____    ______ ____
ROOT
ATOM      1  O   UNL     1       6.670   6.149  18.728  0.00  0.00    +0.000 OA
ATOM      2  C   UNL     1       6.962   6.307  17.547  0.00  0.00    +0.000 C 
ATOM      3  N   UNL     1       7.548   7.465  17.048  0.00  0.00    +0.000 N 
ATOM      4  N   UNL     1       6.723   5.377  16.557  0.00  0.00    +0.000 N 
ATOM      5  H   UNL     1       7.786   7.515  16.070  0.00  0.00    +0.000 HD
ATOM      6  H   UNL     1       7.136   5.430  15.640  0.00  0.00    +0.000 HD
ENDROOT
BRANCH   3   7
ATOM      7  C   UNL     1       7.840   8.539  17.856  0.00  0.00    +0.000 C 
ATOM      8  C   UNL     1       8.703   9.517  17.538  0.00  0.00    +0.000 C 
BRANCH   8   9
ATOM      9  C   UNL     1       8.993  10.619  18.474  0.00  0.00    +0.000 A 
ATOM     10  C   UNL     1       9.340  10.367  19.805  0.00  0.00    +0.000 A 
ATOM     11  C   UNL     1       9.573  11.416  20.702  0.00  0.00    +0.000 A 
ATOM     12  C   UNL     1       9.519  12.758  20.301  0.00  0.00    +0.000 A 
ATOM     13  C   UNL     1       9.214  13.000  18.947  0.00  0.00    +0.000 A 
ATOM     14  C   UNL     1       8.955  11.949  18.049  0.00  0.00    +0.000 A 
BRANCH  12  15
ATOM     15  C   UNL     1       9.742  13.851  21.280  0.00  0.00    +0.000 A 
ATOM     16  C   UNL     1       9.041  13.903  22.500  0.00  0.00    +0.000 A 
ATOM     17  C   UNL     1       9.185  14.971  23.389  0.00  0.00    +0.000 A 
ATOM     18  C   UNL     1      10.062  16.008  23.093  0.00  0.00    +0.000 A 
ATOM     19  C   UNL     1      10.799  15.969  21.911  0.00  0.00    +0.000 A 
ATOM     20  C   UNL     1      10.636  14.909  21.019  0.00  0.00    +0.000 A 
ENDBRANCH  12  15
ENDBRANCH   8   9
ENDBRANCH   3   7
BRANCH   4  21
ATOM     21  O   UNL     1       6.209   4.131  17.000  0.00  0.00    +0.000 OA
BRANCH  21  22
ATOM     22  C   UNL     1       5.023   3.796  16.271  0.00  0.00    +0.000 C 
BRANCH  22  23
ATOM     23  C   UNL     1       3.832   3.685  17.194  0.00  0.00    +0.000 A 
ATOM     24  C   UNL     1       3.092   4.816  17.571  0.00  0.00    +0.000 A 
ATOM     25  C   UNL     1       2.020   4.704  18.459  0.00  0.00    +0.000 A 
ATOM     26  C   UNL     1       1.653   3.456  18.957  0.00  0.00    +0.000 A 
ATOM     27  C   UNL     1       2.343   2.316  18.548  0.00  0.00    +0.000 A 
ATOM     28  C   UNL     1       3.421   2.428  17.668  0.00  0.00    +0.000 A 
ENDBRANCH  22  23
ENDBRANCH  21  22
ENDBRANCH   4  21
TORSDOF 6
ENDMDL
MODEL 6
REMARK VINA RESULT:      -7.7      1.226      1.785
REMARK  Name = 
REMARK  6 active torsions:
REMARK  status: ('A' for Active; 'I' for Inactive)
REMARK    1  A    between atoms: N_3  and  C_4
REMARK    2  A    between atoms: C_5  and  C_6
REMARK    3  A    between atoms: C_9  and  C_10
REMARK    4  A    between atoms: N_18  and  O_19
REMARK    5  A    between atoms: O_19  and  C_20
REMARK    6  A    between atoms: C_20  and  C_21
REMARK                            x       y       z     vdW  Elec       q    Type
REMARK                         _______ _______ _______ _____ _____    ______ ____
ROOT
ATOM      1  O   UNL     1       5.192   7.507  17.030  0.00  0.00    +0.000 OA
ATOM      2  C   UNL     1       6.064   6.652  17.147  0.00  0.00    +0.000 C 
ATOM      3  N   UNL     1       7.381   6.939  17.487  0.00  0.00    +0.000 N 
ATOM      4  N   UNL     1       5.864   5.305  16.932  0.00  0.00    +0.000 N 
ATOM      5  H   UNL     1       8.039   6.183  17.593  0.00  0.00    +0.000 HD
ATOM      6  H   UNL     1       6.523   4.598  17.217  0.00  0.00    +0.000 HD
ENDROOT
BRANCH   3   7
ATOM      7  C   UNL     1       7.811   8.226  17.711  0.00  0.00    +0.000 C 
ATOM      8  C   UNL     1       8.660   8.585  18.687  0.00  0.00    +0.000 C 
BRANCH   8   9
ATOM      9  C   UNL     1       9.046   9.994  18.888  0.00  0.00    +0.000 A 
ATOM     10  C   UNL     1       9.463  10.461  20.138  0.00  0.00    +0.000 A 
ATOM     11  C   UNL     1       9.789  11.807  20.336  0.00  0.00    +0.000 A 
ATOM     12  C   UNL     1       9.760  12.737  19.286  0.00  0.00    +0.000 A 
ATOM     13  C   UNL     1       9.382  12.248  18.021  0.00  0.00    +0.000 A 
ATOM     14  C   UNL     1       9.030  10.900  17.824  0.00  0.00    +0.000 A 
BRANCH  12  15
ATOM     15  C   UNL     1      10.081  14.165  19.531  0.00  0.00    +0.000 A 
ATOM     16  C   UNL     1      10.637  14.599  20.750  0.00  0.00    +0.000 A 
ATOM     17  C   UNL     1      10.865  15.951  21.017  0.00  0.00    +0.000 A 
ATOM     18  C   UNL     1      10.570  16.909  20.054  0.00  0.00    +0.000 A 
ATOM     19  C   UNL     1      10.055  16.510  18.823  0.00  0.00    +0.000 A 
ATOM     20  C   UNL     1       9.811  15.160  18.569  0.00  0.00    +0.000 A 
ENDBRANCH  12  15
ENDBRANCH   8   9
ENDBRANCH   3   7
BRANCH   4  21
ATOM     21  O   UNL     1       4.524   4.919  16.670  0.00  0.00    +0.000 OA
BRANCH  21  22
ATOM     22  C   UNL     1       4.293   3.583  17.130  0.00  0.00    +0.000 C 
BRANCH  22  23
ATOM     23  C   UNL     1       3.152   3.539  18.120  0.00  0.00    +0.000 A 
ATOM     24  C   UNL     1       2.102   2.618  17.983  0.00  0.00    +0.000 A 
ATOM     25  C   UNL     1       1.032   2.618  18.880  0.00  0.00    +0.000 A 
ATOM     26  C   UNL     1       1.013   3.516  19.945  0.00  0.00    +0.000 A 
ATOM     27  C   UNL     1       2.076   4.399  20.126  0.00  0.00    +0.000 A 
ATOM     28  C   UNL     1       3.142   4.407  19.224  0.00  0.00    +0.000 A 
ENDBRANCH  22  23
ENDBRANCH  21  22
ENDBRANCH   4  21
TORSDOF 6
ENDMDL
MODEL 7
REMARK VINA RESULT:      -7.7      6.778     10.148
REMARK  Name = 
REMARK  6 active torsions:
REMARK  status: ('A' for Active; 'I' for Inactive)
REMARK    1  A    between atoms: N_3  and  C_4
REMARK    2  A    between atoms: C_5  and  C_6
REMARK    3  A    between atoms: C_9  and  C_10
REMARK    4  A    between atoms: N_18  and  O_19
REMARK    5  A    between atoms: O_19  and  C_20
REMARK    6  A    between atoms: C_20  and  C_21
REMARK                            x       y       z     vdW  Elec       q    Type
REMARK                         _______ _______ _______ _____ _____    ______ ____
ROOT
ATOM      1  O   UNL     1       1.257   9.737  19.708  0.00  0.00    +0.000 OA
ATOM      2  C   UNL     1       1.249   8.921  20.624  0.00  0.00    +0.000 C 
ATOM      3  N   UNL     1       1.777   7.639  20.518  0.00  0.00    +0.000 N 
ATOM      4  N   UNL     1       0.694   9.153  21.865  0.00  0.00    +0.000 N 
ATOM      5  H   UNL     1       1.761   7.031  21.320  0.00  0.00    +0.000 HD
ATOM      6  H   UNL     1       0.862   8.562  22.663  0.00  0.00    +0.000 HD
ENDROOT
BRANCH   3   7
ATOM      7  C   UNL     1       2.349   7.183  19.353  0.00  0.00    +0.000 C 
ATOM      8  C   UNL     1       3.370   6.313  19.297  0.00  0.00    +0.000 C 
BRANCH   8   9
ATOM      9  C   UNL     1       3.955   5.898  18.009  0.00  0.00    +0.000 A 
ATOM     10  C   UNL     1       3.904   4.567  17.584  0.00  0.00    +0.000 A 
ATOM     11  C   UNL     1       4.497   4.169  16.381  0.00  0.00    +0.000 A 
ATOM     12  C   UNL     1       5.123   5.086  15.526  0.00  0.00    +0.000 A 
ATOM     13  C   UNL     1       5.129   6.432  15.940  0.00  0.00    +0.000 A 
ATOM     14  C   UNL     1       4.556   6.832  17.161  0.00  0.00    +0.000 A 
BRANCH  12  15
ATOM     15  C   UNL     1       5.770   4.631  14.269  0.00  0.00    +0.000 A 
ATOM     16  C   UNL     1       5.129   3.737  13.391  0.00  0.00    +0.000 A 
ATOM     17  C   UNL     1       5.764   3.240  12.250  0.00  0.00    +0.000 A 
ATOM     18  C   UNL     1       7.054   3.652  11.939  0.00  0.00    +0.000 A 
ATOM     19  C   UNL     1       7.703   4.566  12.766  0.00  0.00    +0.000 A 
ATOM     20  C   UNL     1       7.071   5.043  13.915  0.00  0.00    +0.000 A 
ENDBRANCH  12  15
ENDBRANCH   8   9
ENDBRANCH   3   7
BRANCH   4  21
ATOM     21  O   UNL     1       0.215  10.470  22.084  0.00  0.00    +0.000 OA
BRANCH  21  22
ATOM     22  C   UNL     1      -0.859  10.457  23.031  0.00  0.00    +0.000 C 
BRANCH  22  23
ATOM     23  C   UNL     1      -1.547  11.801  23.093  0.00  0.00    +0.000 A 
ATOM     24  C   UNL     1      -2.905  11.912  23.425  0.00  0.00    +0.000 A 
ATOM     25  C   UNL     1      -3.538  13.156  23.435  0.00  0.00    +0.000 A 
ATOM     26  C   UNL     1      -2.813  14.311  23.146  0.00  0.00    +0.000 A 
ATOM     27  C   UNL     1      -1.451  14.223  22.868  0.00  0.00    +0.000 A 
ATOM     28  C   UNL     1      -0.819  12.977  22.847  0.00  0.00    +0.000 A 
ENDBRANCH  22  23
ENDBRANCH  21  22
ENDBRANCH   4  21
TORSDOF 6
ENDMDL
MODEL 8
REMARK VINA RESULT:      -7.7      1.661      2.753
REMARK  Name = 
REMARK  6 active torsions:
REMARK  status: ('A' for Active; 'I' for Inactive)
REMARK    1  A    between atoms: N_3  and  C_4
REMARK    2  A    between atoms: C_5  and  C_6
REMARK    3  A    between atoms: C_9  and  C_10
REMARK    4  A    between atoms: N_18  and  O_19
REMARK    5  A    between atoms: O_19  and  C_20
REMARK    6  A    between atoms: C_20  and  C_21
REMARK                            x       y       z     vdW  Elec       q    Type
REMARK                         _______ _______ _______ _____ _____    ______ ____
ROOT
ATOM      1  O   UNL     1       7.512   6.502  18.675  0.00  0.00    +0.000 OA
ATOM      2  C   UNL     1       7.526   6.837  17.494  0.00  0.00    +0.000 C 
ATOM      3  N   UNL     1       7.743   8.142  17.067  0.00  0.00    +0.000 N 
ATOM      4  N   UNL     1       7.301   5.976  16.441  0.00  0.00    +0.000 N 
ATOM      5  H   UNL     1       7.769   8.340  16.080  0.00  0.00    +0.000 HD
ATOM      6  H   UNL     1       7.505   6.212  15.483  0.00  0.00    +0.000 HD
ENDROOT
BRANCH   3   7
ATOM      7  C   UNL     1       7.954   9.172  17.955  0.00  0.00    +0.000 C 
ATOM      8  C   UNL     1       9.025   9.981  17.940  0.00  0.00    +0.000 C 
BRANCH   8   9
ATOM      9  C   UNL     1       9.199  11.042  18.949  0.00  0.00    +0.000 A 
ATOM     10  C   UNL     1       9.485  10.735  20.282  0.00  0.00    +0.000 A 
ATOM     11  C   UNL     1       9.609  11.743  21.246  0.00  0.00    +0.000 A 
ATOM     12  C   UNL     1       9.499  13.101  20.914  0.00  0.00    +0.000 A 
ATOM     13  C   UNL     1       9.257  13.402  19.560  0.00  0.00    +0.000 A 
ATOM     14  C   UNL     1       9.108  12.391  18.593  0.00  0.00    +0.000 A 
BRANCH  12  15
ATOM     15  C   UNL     1       9.605  14.147  21.962  0.00  0.00    +0.000 A 
ATOM     16  C   UNL     1       8.836  14.092  23.140  0.00  0.00    +0.000 A 
ATOM     17  C   UNL     1       8.869  15.114  24.092  0.00  0.00    +0.000 A 
ATOM     18  C   UNL     1       9.700  16.212  23.903  0.00  0.00    +0.000 A 
ATOM     19  C   UNL     1      10.502  16.280  22.765  0.00  0.00    +0.000 A 
ATOM     20  C   UNL     1      10.450  15.265  21.810  0.00  0.00    +0.000 A 
ENDBRANCH  12  15
ENDBRANCH   8   9
ENDBRANCH   3   7
BRANCH   4  21
ATOM     21  O   UNL     1       7.161   4.608  16.789  0.00  0.00    +0.000 OA
BRANCH  21  22
ATOM     22  C   UNL     1       5.986   4.059  16.183  0.00  0.00    +0.000 C 
BRANCH  22  23
ATOM     23  C   UNL     1       4.843   3.998  17.169  0.00  0.00    +0.000 A 
ATOM     24  C   UNL     1       3.512   3.884  16.740  0.00  0.00    +0.000 A 
ATOM     25  C   UNL     1       2.464   3.873  17.661  0.00  0.00    +0.000 A 
ATOM     26  C   UNL     1       2.733   3.941  19.027  0.00  0.00    +0.000 A 
ATOM     27  C   UNL     1       4.052   3.999  19.471  0.00  0.00    +0.000 A 
ATOM     28  C   UNL     1       5.101   4.021  18.550  0.00  0.00    +0.000 A 
ENDBRANCH  22  23
ENDBRANCH  21  22
ENDBRANCH   4  21
TORSDOF 6
ENDMDL
MODEL 9
REMARK VINA RESULT:      -7.7      1.380      2.115
REMARK  Name = 
REMARK  6 active torsions:
REMARK  status: ('A' for Active; 'I' for Inactive)
REMARK    1  A    between atoms: N_3  and  C_4
REMARK    2  A    between atoms: C_5  and  C_6
REMARK    3  A    between atoms: C_9  and  C_10
REMARK    4  A    between atoms: N_18  and  O_19
REMARK    5  A    between atoms: O_19  and  C_20
REMARK    6  A    between atoms: C_20  and  C_21
REMARK                            x       y       z     vdW  Elec       q    Type
REMARK                         _______ _______ _______ _____ _____    ______ ____
ROOT
ATOM      1  O   UNL     1       5.333   7.186  17.585  0.00  0.00    +0.000 OA
ATOM      2  C   UNL     1       6.306   6.440  17.614  0.00  0.00    +0.000 C 
ATOM      3  N   UNL     1       7.621   6.892  17.617  0.00  0.00    +0.000 N 
ATOM      4  N   UNL     1       6.230   5.063  17.619  0.00  0.00    +0.000 N 
ATOM      5  H   UNL     1       8.373   6.223  17.670  0.00  0.00    +0.000 HD
ATOM      6  H   UNL     1       7.013   4.469  17.838  0.00  0.00    +0.000 HD
ENDROOT
BRANCH   3   7
ATOM      7  C   UNL     1       7.930   8.232  17.578  0.00  0.00    +0.000 C 
ATOM      8  C   UNL     1       8.650   8.873  18.511  0.00  0.00    +0.000 C 
BRANCH   8   9
ATOM      9  C   UNL     1       8.909  10.322  18.419  0.00  0.00    +0.000 A 
ATOM     10  C   UNL     1       9.970  10.915  19.111  0.00  0.00    +0.000 A 
ATOM     11  C   UNL     1      10.188  12.296  19.055  0.00  0.00    +0.000 A 
ATOM     12  C   UNL     1       9.388  13.140  18.270  0.00  0.00    +0.000 A 
ATOM     13  C   UNL     1       8.351  12.527  17.541  0.00  0.00    +0.000 A 
ATOM     14  C   UNL     1       8.114  11.142  17.614  0.00  0.00    +0.000 A 
BRANCH  12  15
ATOM     15  C   UNL     1       9.623  14.605  18.252  0.00  0.00    +0.000 A 
ATOM     16  C   UNL     1       8.562  15.522  18.129  0.00  0.00    +0.000 A 
ATOM     17  C   UNL     1       8.782  16.898  18.029  0.00  0.00    +0.000 A 
ATOM     18  C   UNL     1      10.078  17.399  18.081  0.00  0.00    +0.000 A 
ATOM     19  C   UNL     1      11.149  16.522  18.240  0.00  0.00    +0.000 A 
ATOM     20  C   UNL     1      10.923  15.148  18.320  0.00  0.00    +0.000 A 
ENDBRANCH  12  15
ENDBRANCH   8   9
ENDBRANCH   3   7
BRANCH   4  21
ATOM     21  O   UNL     1       4.921   4.524  17.708  0.00  0.00    +0.000 OA
BRANCH  21  22
ATOM     22  C   UNL     1       4.730   3.891  18.978  0.00  0.00    +0.000 C 
BRANCH  22  23
ATOM     23  C   UNL     1       3.267   3.612  19.232  0.00  0.00    +0.000 A 
ATOM     24  C   UNL     1       2.582   4.214  20.299  0.00  0.00    +0.000 A 
ATOM     25  C   UNL     1       1.242   3.912  20.548  0.00  0.00    +0.000 A 
ATOM     26  C   UNL     1       0.559   3.029  19.714  0.00  0.00    +0.000 A 
ATOM     27  C   UNL     1       1.210   2.465  18.619  0.00  0.00    +0.000 A 
ATOM     28  C   UNL     1       2.553   2.758  18.375  0.00  0.00    +0.000 A 
ENDBRANCH  22  23
ENDBRANCH  21  22
ENDBRANCH   4  21
TORSDOF 6
ENDMDL
