MODEL 1
REMARK VINA RESULT:      -6.7      0.000      0.000
REMARK  Name = 
REMARK  8 active torsions:
REMARK  status: ('A' for Active; 'I' for Inactive)
REMARK    1  A    between atoms: C_1  and  C_2
REMARK    2  A    between atoms: N_4  and  C_5
REMARK    3  A    between atoms: N_4  and  C_6
REMARK    4  A    between atoms: C_6  and  C_7
REMARK    5  A    between atoms: C_8  and  C_9
REMARK    6  A    between atoms: C_9  and  N_10
REMARK    7  A    between atoms: C_13  and  C_14
REMARK    8  A    between atoms: C_14  and  O_16
REMARK                            x       y       z     vdW  Elec       q    Type
REMARK                         _______ _______ _______ _____ _____    ______ ____
ROOT
ATOM      1  N   UNL     1       7.242   6.151  17.332  0.00  0.00    +0.000 NA
ATOM      2  C   UNL     1       7.246   4.681  17.258  0.00  0.00    +0.000 C 
ATOM      3  C   UNL     1       6.567   4.194  15.977  0.00  0.00    +0.000 C 
ATOM      4  C   UNL     1       5.132   4.709  15.870  0.00  0.00    +0.000 C 
ATOM      5  C   UNL     1       5.129   6.234  16.032  0.00  0.00    +0.000 C 
ATOM      6  C   UNL     1       5.873   6.685  17.293  0.00  0.00    +0.000 C 
ENDROOT
BRANCH   4   7
ATOM      7  C   UNL     1       4.213   4.040  16.883  0.00  0.00    +0.000 C 
ATOM      8  O   UNL     1       3.215   4.550  17.370  0.00  0.00    +0.000 OA
BRANCH   7   9
ATOM      9  O   UNL     1       4.575   2.772  17.185  0.00  0.00    +0.000 OA
ATOM     10  H   UNL     1       3.830   2.167  17.355  0.00  0.00    +0.000 HD
ENDBRANCH   7   9
ENDBRANCH   4   7
BRANCH   1  11
ATOM     11  C   UNL     1       7.907   6.619  18.561  0.00  0.00    +0.000 C 
BRANCH  11  13
ATOM     12  C   UNL     1       8.615   9.342  18.324  0.00  0.00    +0.000 C 
ATOM     13  C   UNL     1       8.287   8.085  18.433  0.00  0.00    +0.000 C 
BRANCH  12  14
ATOM     14  C   UNL     1       8.996  10.808  18.196  0.00  0.00    +0.000 C 
BRANCH  14  18
ATOM     15  C   UNL     1      12.163  12.073  19.909  0.00  0.00    +0.000 C 
ATOM     16  C   UNL     1      11.199  11.654  18.829  0.00  0.00    +0.000 C 
ATOM     17  O   UNL     1      11.538  11.719  17.646  0.00  0.00    +0.000 OA
ATOM     18  N   UNL     1       9.952  11.193  19.227  0.00  0.00    +0.000 N 
ATOM     19  C   UNL     1       9.482  11.140  20.603  0.00  0.00    +0.000 C 
ENDBRANCH  14  18
ENDBRANCH  12  14
ENDBRANCH  11  13
ENDBRANCH   1  11
TORSDOF 6
ENDMDL
MODEL 2
REMARK VINA RESULT:      -6.4      4.046      6.536
REMARK  Name = 
REMARK  8 active torsions:
REMARK  status: ('A' for Active; 'I' for Inactive)
REMARK    1  A    between atoms: C_1  and  C_2
REMARK    2  A    between atoms: N_4  and  C_5
REMARK    3  A    between atoms: N_4  and  C_6
REMARK    4  A    between atoms: C_6  and  C_7
REMARK    5  A    between atoms: C_8  and  C_9
REMARK    6  A    between atoms: C_9  and  N_10
REMARK    7  A    between atoms: C_13  and  C_14
REMARK    8  A    between atoms: C_14  and  O_16
REMARK                            x       y       z     vdW  Elec       q    Type
REMARK                         _______ _______ _______ _____ _____    ______ ____
ROOT
ATOM      1  N   UNL     1       2.492   2.176  19.313  0.00  0.00    +0.000 NA
ATOM      2  C   UNL     1       3.354   2.929  20.238  0.00  0.00    +0.000 C 
ATOM      3  C   UNL     1       2.540   3.520  21.389  0.00  0.00    +0.000 C 
ATOM      4  C   UNL     1       1.420   4.426  20.879  0.00  0.00    +0.000 C 
ATOM      5  C   UNL     1       0.577   3.659  19.854  0.00  0.00    +0.000 C 
ATOM      6  C   UNL     1       1.434   3.029  18.752  0.00  0.00    +0.000 C 
ENDROOT
BRANCH   4   7
ATOM      7  C   UNL     1       1.962   5.724  20.295  0.00  0.00    +0.000 C 
ATOM      8  O   UNL     1       2.443   5.844  19.179  0.00  0.00    +0.000 OA
BRANCH   7   9
ATOM      9  O   UNL     1       1.829   6.784  21.124  0.00  0.00    +0.000 OA
ATOM     10  H   UNL     1       2.667   7.112  21.501  0.00  0.00    +0.000 HD
ENDBRANCH   7   9
ENDBRANCH   4   7
BRANCH   1  11
ATOM     11  C   UNL     1       3.280   1.597  18.210  0.00  0.00    +0.000 C 
BRANCH  11  13
ATOM     12  C   UNL     1       4.667   3.626  16.819  0.00  0.00    +0.000 C 
ATOM     13  C   UNL     1       4.027   2.689  17.462  0.00  0.00    +0.000 C 
BRANCH  12  14
ATOM     14  C   UNL     1       5.413   4.718  16.070  0.00  0.00    +0.000 C 
BRANCH  14  18
ATOM     15  C   UNL     1       7.796   6.506  18.454  0.00  0.00    +0.000 C 
ATOM     16  C   UNL     1       7.229   5.464  17.524  0.00  0.00    +0.000 C 
ATOM     17  O   UNL     1       7.877   4.448  17.273  0.00  0.00    +0.000 OA
ATOM     18  N   UNL     1       5.968   5.701  16.993  0.00  0.00    +0.000 N 
ATOM     19  C   UNL     1       5.180   6.902  17.216  0.00  0.00    +0.000 C 
ENDBRANCH  14  18
ENDBRANCH  12  14
ENDBRANCH  11  13
ENDBRANCH   1  11
TORSDOF 6
ENDMDL
MODEL 3
REMARK VINA RESULT:      -6.4      3.651      6.082
REMARK  Name = 
REMARK  8 active torsions:
REMARK  status: ('A' for Active; 'I' for Inactive)
REMARK    1  A    between atoms: C_1  and  C_2
REMARK    2  A    between atoms: N_4  and  C_5
REMARK    3  A    between atoms: N_4  and  C_6
REMARK    4  A    between atoms: C_6  and  C_7
REMARK    5  A    between atoms: C_8  and  C_9
REMARK    6  A    between atoms: C_9  and  N_10
REMARK    7  A    between atoms: C_13  and  C_14
REMARK    8  A    between atoms: C_14  and  O_16
REMARK                            x       y       z     vdW  Elec       q    Type
REMARK                         _______ _______ _______ _____ _____    ______ ____
ROOT
ATOM      1  N   UNL     1       2.218   3.986  18.141  0.00  0.00    +0.000 NA
ATOM      2  C   UNL     1       1.187   3.126  18.745  0.00  0.00    +0.000 C 
ATOM      3  C   UNL     1       0.584   3.783  19.987  0.00  0.00    +0.000 C 
ATOM      4  C   UNL     1       1.654   4.108  21.028  0.00  0.00    +0.000 C 
ATOM      5  C   UNL     1       2.766   4.933  20.370  0.00  0.00    +0.000 C 
ATOM      6  C   UNL     1       3.300   4.274  19.094  0.00  0.00    +0.000 C 
ENDROOT
BRANCH   4   7
ATOM      7  C   UNL     1       2.209   2.850  21.683  0.00  0.00    +0.000 C 
ATOM      8  O   UNL     1       3.361   2.457  21.584  0.00  0.00    +0.000 OA
BRANCH   7   9
ATOM      9  O   UNL     1       1.304   2.196  22.446  0.00  0.00    +0.000 OA
ATOM     10  H   UNL     1       1.631   1.932  23.326  0.00  0.00    +0.000 HD
ENDBRANCH   7   9
ENDBRANCH   4   7
BRANCH   1  11
ATOM     11  C   UNL     1       2.790   3.357  16.938  0.00  0.00    +0.000 C 
BRANCH  11  13
ATOM     12  C   UNL     1       5.215   4.616  16.224  0.00  0.00    +0.000 C 
ATOM     13  C   UNL     1       4.096   4.035  16.554  0.00  0.00    +0.000 C 
BRANCH  12  14
ATOM     14  C   UNL     1       6.521   5.294  15.839  0.00  0.00    +0.000 C 
BRANCH  14  18
ATOM     15  C   UNL     1       8.208   7.249  18.649  0.00  0.00    +0.000 C 
ATOM     16  C   UNL     1       7.407   6.943  17.409  0.00  0.00    +0.000 C 
ATOM     17  O   UNL     1       6.877   7.859  16.780  0.00  0.00    +0.000 OA
ATOM     18  N   UNL     1       7.313   5.613  17.021  0.00  0.00    +0.000 N 
ATOM     19  C   UNL     1       7.876   4.488  17.750  0.00  0.00    +0.000 C 
ENDBRANCH  14  18
ENDBRANCH  12  14
ENDBRANCH  11  13
ENDBRANCH   1  11
TORSDOF 6
ENDMDL
MODEL 4
REMARK VINA RESULT:      -6.3      4.628      6.510
REMARK  Name = 
REMARK  8 active torsions:
REMARK  status: ('A' for Active; 'I' for Inactive)
REMARK    1  A    between atoms: C_1  and  C_2
REMARK    2  A    between atoms: N_4  and  C_5
REMARK    3  A    between atoms: N_4  and  C_6
REMARK    4  A    between atoms: C_6  and  C_7
REMARK    5  A    between atoms: C_8  and  C_9
REMARK    6  A    between atoms: C_9  and  N_10
REMARK    7  A    between atoms: C_13  and  C_14
REMARK    8  A    between atoms: C_14  and  O_16
REMARK                            x       y       z     vdW  Elec       q    Type
REMARK                         _______ _______ _______ _____ _____    ______ ____
ROOT
ATOM      1  N   UNL     1       1.386   4.974  20.529  0.00  0.00    +0.000 NA
ATOM      2  C   UNL     1       1.204   4.339  19.213  0.00  0.00    +0.000 C 
ATOM      3  C   UNL     1       0.822   2.866  19.363  0.00  0.00    +0.000 C 
ATOM      4  C   UNL     1       1.867   2.093  20.166  0.00  0.00    +0.000 C 
ATOM      5  C   UNL     1       2.110   2.808  21.500  0.00  0.00    +0.000 C 
ATOM      6  C   UNL     1       2.427   4.295  21.312  0.00  0.00    +0.000 C 
ENDROOT
BRANCH   4   7
ATOM      7  C   UNL     1       3.163   1.913  19.386  0.00  0.00    +0.000 C 
ATOM      8  O   UNL     1       4.283   2.106  19.833  0.00  0.00    +0.000 OA
BRANCH   7   9
ATOM      9  O   UNL     1       2.974   1.467  18.124  0.00  0.00    +0.000 OA
ATOM     10  H   UNL     1       2.040   1.333  17.877  0.00  0.00    +0.000 HD
ENDBRANCH   7   9
ENDBRANCH   4   7
BRANCH   1  11
ATOM     11  C   UNL     1       1.742   6.397  20.383  0.00  0.00    +0.000 C 
BRANCH  11  13
ATOM     12  C   UNL     1       3.496   6.756  18.200  0.00  0.00    +0.000 C 
ATOM     13  C   UNL     1       2.687   6.589  19.208  0.00  0.00    +0.000 C 
BRANCH  12  14
ATOM     14  C   UNL     1       4.441   6.950  17.024  0.00  0.00    +0.000 C 
BRANCH  14  18
ATOM     15  C   UNL     1       7.400   4.610  16.450  0.00  0.00    +0.000 C 
ATOM     16  C   UNL     1       6.605   5.870  16.675  0.00  0.00    +0.000 C 
ATOM     17  O   UNL     1       7.183   6.955  16.750  0.00  0.00    +0.000 OA
ATOM     18  N   UNL     1       5.226   5.746  16.779  0.00  0.00    +0.000 N 
ATOM     19  C   UNL     1       4.496   4.488  16.746  0.00  0.00    +0.000 C 
ENDBRANCH  14  18
ENDBRANCH  12  14
ENDBRANCH  11  13
ENDBRANCH   1  11
TORSDOF 6
ENDMDL
MODEL 5
REMARK VINA RESULT:      -6.2      3.855      6.504
REMARK  Name = 
REMARK  8 active torsions:
REMARK  status: ('A' for Active; 'I' for Inactive)
REMARK    1  A    between atoms: C_1  and  C_2
REMARK    2  A    between atoms: N_4  and  C_5
REMARK    3  A    between atoms: N_4  and  C_6
REMARK    4  A    between atoms: C_6  and  C_7
REMARK    5  A    between atoms: C_8  and  C_9
REMARK    6  A    between atoms: C_9  and  N_10
REMARK    7  A    between atoms: C_13  and  C_14
REMARK    8  A    between atoms: C_14  and  O_16
REMARK                            x       y       z     vdW  Elec       q    Type
REMARK                         _______ _______ _______ _____ _____    ______ ____
ROOT
ATOM      1  N   UNL     1       2.574   2.118  19.429  0.00  0.00    +0.000 NA
ATOM      2  C   UNL     1       3.298   2.896  20.448  0.00  0.00    +0.000 C 
ATOM      3  C   UNL     1       2.333   3.481  21.479  0.00  0.00    +0.000 C 
ATOM      4  C   UNL     1       1.271   4.361  20.822  0.00  0.00    +0.000 C 
ATOM      5  C   UNL     1       0.578   3.569  19.706  0.00  0.00    +0.000 C 
ATOM      6  C   UNL     1       1.580   2.946  18.729  0.00  0.00    +0.000 C 
ENDROOT
BRANCH   4   7
ATOM      7  C   UNL     1       1.859   5.664  20.296  0.00  0.00    +0.000 C 
ATOM      8  O   UNL     1       2.286   5.835  19.165  0.00  0.00    +0.000 OA
BRANCH   7   9
ATOM      9  O   UNL     1       1.834   6.669  21.201  0.00  0.00    +0.000 OA
ATOM     10  H   UNL     1       2.119   7.534  20.853  0.00  0.00    +0.000 HD
ENDBRANCH   7   9
ENDBRANCH   4   7
BRANCH   1  11
ATOM     11  C   UNL     1       3.505   1.545  18.442  0.00  0.00    +0.000 C 
BRANCH  11  13
ATOM     12  C   UNL     1       4.726   3.596  16.932  0.00  0.00    +0.000 C 
ATOM     13  C   UNL     1       4.163   2.649  17.630  0.00  0.00    +0.000 C 
BRANCH  12  14
ATOM     14  C   UNL     1       5.383   4.700  16.119  0.00  0.00    +0.000 C 
BRANCH  14  18
ATOM     15  C   UNL     1       7.653   7.276  17.784  0.00  0.00    +0.000 C 
ATOM     16  C   UNL     1       6.512   6.679  17.002  0.00  0.00    +0.000 C 
ATOM     17  O   UNL     1       5.649   7.413  16.518  0.00  0.00    +0.000 OA
ATOM     18  N   UNL     1       6.493   5.299  16.850  0.00  0.00    +0.000 N 
ATOM     19  C   UNL     1       7.456   4.381  17.438  0.00  0.00    +0.000 C 
ENDBRANCH  14  18
ENDBRANCH  12  14
ENDBRANCH  11  13
ENDBRANCH   1  11
TORSDOF 6
ENDMDL
MODEL 6
REMARK VINA RESULT:      -6.2      3.717      5.604
REMARK  Name = 
REMARK  8 active torsions:
REMARK  status: ('A' for Active; 'I' for Inactive)
REMARK    1  A    between atoms: C_1  and  C_2
REMARK    2  A    between atoms: N_4  and  C_5
REMARK    3  A    between atoms: N_4  and  C_6
REMARK    4  A    between atoms: C_6  and  C_7
REMARK    5  A    between atoms: C_8  and  C_9
REMARK    6  A    between atoms: C_9  and  N_10
REMARK    7  A    between atoms: C_13  and  C_14
REMARK    8  A    between atoms: C_14  and  O_16
REMARK                            x       y       z     vdW  Elec       q    Type
REMARK                         _______ _______ _______ _____ _____    ______ ____
ROOT
ATOM      1  N   UNL     1       1.786   5.126  18.931  0.00  0.00    +0.000 NA
ATOM      2  C   UNL     1       1.907   4.022  17.964  0.00  0.00    +0.000 C 
ATOM      3  C   UNL     1       1.566   2.682  18.617  0.00  0.00    +0.000 C 
ATOM      4  C   UNL     1       2.455   2.403  19.828  0.00  0.00    +0.000 C 
ATOM      5  C   UNL     1       2.387   3.594  20.790  0.00  0.00    +0.000 C 
ATOM      6  C   UNL     1       2.672   4.925  20.087  0.00  0.00    +0.000 C 
ENDROOT
BRANCH   4   7
ATOM      7  C   UNL     1       3.890   2.098  19.420  0.00  0.00    +0.000 C 
ATOM      8  O   UNL     1       4.871   2.266  20.127  0.00  0.00    +0.000 OA
BRANCH   7   9
ATOM      9  O   UNL     1       3.996   1.567  18.180  0.00  0.00    +0.000 OA
ATOM     10  H   UNL     1       4.877   1.204  17.969  0.00  0.00    +0.000 HD
ENDBRANCH   7   9
ENDBRANCH   4   7
BRANCH   1  11
ATOM     11  C   UNL     1       2.104   6.418  18.299  0.00  0.00    +0.000 C 
BRANCH  11  13
ATOM     12  C   UNL     1       4.720   6.379  17.237  0.00  0.00    +0.000 C 
ATOM     13  C   UNL     1       3.513   6.398  17.727  0.00  0.00    +0.000 C 
BRANCH  12  14
ATOM     14  C   UNL     1       6.129   6.358  16.665  0.00  0.00    +0.000 C 
BRANCH  14  18
ATOM     15  C   UNL     1       8.447   5.692  19.623  0.00  0.00    +0.000 C 
ATOM     16  C   UNL     1       7.396   5.484  18.563  0.00  0.00    +0.000 C 
ATOM     17  O   UNL     1       6.810   4.403  18.484  0.00  0.00    +0.000 OA
ATOM     18  N   UNL     1       7.123   6.548  17.714  0.00  0.00    +0.000 N 
ATOM     19  C   UNL     1       7.816   7.828  17.731  0.00  0.00    +0.000 C 
ENDBRANCH  14  18
ENDBRANCH  12  14
ENDBRANCH  11  13
ENDBRANCH   1  11
TORSDOF 6
ENDMDL
MODEL 7
REMARK VINA RESULT:      -6.2      6.626      7.564
REMARK  Name = 
REMARK  8 active torsions:
REMARK  status: ('A' for Active; 'I' for Inactive)
REMARK    1  A    between atoms: C_1  and  C_2
REMARK    2  A    between atoms: N_4  and  C_5
REMARK    3  A    between atoms: N_4  and  C_6
REMARK    4  A    between atoms: C_6  and  C_7
REMARK    5  A    between atoms: C_8  and  C_9
REMARK    6  A    between atoms: C_9  and  N_10
REMARK    7  A    between atoms: C_13  and  C_14
REMARK    8  A    between atoms: C_14  and  O_16
REMARK                            x       y       z     vdW  Elec       q    Type
REMARK                         _______ _______ _______ _____ _____    ______ ____
ROOT
ATOM      1  N   UNL     1       3.251   5.033  18.204  0.00  0.00    +0.000 NA
ATOM      2  C   UNL     1       3.973   4.621  19.419  0.00  0.00    +0.000 C 
ATOM      3  C   UNL     1       4.017   3.098  19.541  0.00  0.00    +0.000 C 
ATOM      4  C   UNL     1       2.614   2.493  19.549  0.00  0.00    +0.000 C 
ATOM      5  C   UNL     1       1.841   2.993  18.322  0.00  0.00    +0.000 C 
ATOM      6  C   UNL     1       1.873   4.519  18.199  0.00  0.00    +0.000 C 
ENDROOT
BRANCH   4   7
ATOM      7  C   UNL     1       1.869   2.803  20.840  0.00  0.00    +0.000 C 
ATOM      8  O   UNL     1       2.381   2.871  21.947  0.00  0.00    +0.000 OA
BRANCH   7   9
ATOM      9  O   UNL     1       0.551   3.046  20.657  0.00  0.00    +0.000 OA
ATOM     10  H   UNL     1      -0.006   2.873  21.439  0.00  0.00    +0.000 HD
ENDBRANCH   7   9
ENDBRANCH   4   7
BRANCH   1  11
ATOM     11  C   UNL     1       3.219   6.501  18.081  0.00  0.00    +0.000 C 
BRANCH  11  13
ATOM     12  C   UNL     1       1.831   7.642  20.259  0.00  0.00    +0.000 C 
ATOM     13  C   UNL     1       2.472   7.116  19.254  0.00  0.00    +0.000 C 
BRANCH  12  14
ATOM     14  C   UNL     1       1.084   8.256  21.433  0.00  0.00    +0.000 C 
BRANCH  14  18
ATOM     15  C   UNL     1      -0.430  11.748  21.700  0.00  0.00    +0.000 C 
ATOM     16  C   UNL     1       0.132  10.406  22.094  0.00  0.00    +0.000 C 
ATOM     17  O   UNL     1       0.228  10.108  23.285  0.00  0.00    +0.000 OA
ATOM     18  N   UNL     1       0.513   9.548  21.072  0.00  0.00    +0.000 N 
ATOM     19  C   UNL     1       0.467   9.866  19.653  0.00  0.00    +0.000 C 
ENDBRANCH  14  18
ENDBRANCH  12  14
ENDBRANCH  11  13
ENDBRANCH   1  11
TORSDOF 6
ENDMDL
MODEL 8
REMARK VINA RESULT:      -6.1      4.550      6.288
REMARK  Name = 
REMARK  8 active torsions:
REMARK  status: ('A' for Active; 'I' for Inactive)
REMARK    1  A    between atoms: C_1  and  C_2
REMARK    2  A    between atoms: N_4  and  C_5
REMARK    3  A    between atoms: N_4  and  C_6
REMARK    4  A    between atoms: C_6  and  C_7
REMARK    5  A    between atoms: C_8  and  C_9
REMARK    6  A    between atoms: C_9  and  N_10
REMARK    7  A    between atoms: C_13  and  C_14
REMARK    8  A    between atoms: C_14  and  O_16
REMARK                            x       y       z     vdW  Elec       q    Type
REMARK                         _______ _______ _______ _____ _____    ______ ____
ROOT
ATOM      1  N   UNL     1       1.890   5.214  19.292  0.00  0.00    +0.000 NA
ATOM      2  C   UNL     1       1.710   4.271  18.175  0.00  0.00    +0.000 C 
ATOM      3  C   UNL     1       1.343   2.878  18.687  0.00  0.00    +0.000 C 
ATOM      4  C   UNL     1       2.398   2.336  19.650  0.00  0.00    +0.000 C 
ATOM      5  C   UNL     1       2.640   3.361  20.764  0.00  0.00    +0.000 C 
ATOM      6  C   UNL     1       2.942   4.758  20.213  0.00  0.00    +0.000 C 
ENDROOT
BRANCH   4   7
ATOM      7  C   UNL     1       3.693   1.980  18.930  0.00  0.00    +0.000 C 
ATOM      8  O   UNL     1       3.784   1.705  17.744  0.00  0.00    +0.000 OA
BRANCH   7   9
ATOM      9  O   UNL     1       4.784   2.034  19.728  0.00  0.00    +0.000 OA
ATOM     10  H   UNL     1       4.604   1.870  20.672  0.00  0.00    +0.000 HD
ENDBRANCH   7   9
ENDBRANCH   4   7
BRANCH   1  11
ATOM     11  C   UNL     1       2.232   6.559  18.798  0.00  0.00    +0.000 C 
BRANCH  11  13
ATOM     12  C   UNL     1       4.872   6.600  17.797  0.00  0.00    +0.000 C 
ATOM     13  C   UNL     1       3.654   6.581  18.260  0.00  0.00    +0.000 C 
BRANCH  12  14
ATOM     14  C   UNL     1       6.294   6.622  17.258  0.00  0.00    +0.000 C 
BRANCH  14  18
ATOM     15  C   UNL     1       6.451   3.994  14.497  0.00  0.00    +0.000 C 
ATOM     16  C   UNL     1       6.102   5.256  15.242  0.00  0.00    +0.000 C 
ATOM     17  O   UNL     1       5.394   6.109  14.705  0.00  0.00    +0.000 OA
ATOM     18  N   UNL     1       6.598   5.396  16.531  0.00  0.00    +0.000 N 
ATOM     19  C   UNL     1       7.476   4.445  17.195  0.00  0.00    +0.000 C 
ENDBRANCH  14  18
ENDBRANCH  12  14
ENDBRANCH  11  13
ENDBRANCH   1  11
TORSDOF 6
ENDMDL
MODEL 9
REMARK VINA RESULT:      -6.1      4.567      6.304
REMARK  Name = 
REMARK  8 active torsions:
REMARK  status: ('A' for Active; 'I' for Inactive)
REMARK    1  A    between atoms: C_1  and  C_2
REMARK    2  A    between atoms: N_4  and  C_5
REMARK    3  A    between atoms: N_4  and  C_6
REMARK    4  A    between atoms: C_6  and  C_7
REMARK    5  A    between atoms: C_8  and  C_9
REMARK    6  A    between atoms: C_9  and  N_10
REMARK    7  A    between atoms: C_13  and  C_14
REMARK    8  A    between atoms: C_14  and  O_16
REMARK                            x       y       z     vdW  Elec       q    Type
REMARK                         _______ _______ _______ _____ _____    ______ ____
ROOT
ATOM      1  N   UNL     1       1.822   5.052  19.643  0.00  0.00    +0.000 NA
ATOM      2  C   UNL     1       1.714   4.346  18.355  0.00  0.00    +0.000 C 
ATOM      3  C   UNL     1       1.174   2.929  18.550  0.00  0.00    +0.000 C 
ATOM      4  C   UNL     1       2.050   2.120  19.506  0.00  0.00    +0.000 C 
ATOM      5  C   UNL     1       2.225   2.901  20.814  0.00  0.00    +0.000 C 
ATOM      6  C   UNL     1       2.705   4.335  20.574  0.00  0.00    +0.000 C 
ENDROOT
BRANCH   4   7
ATOM      7  C   UNL     1       3.394   1.768  18.884  0.00  0.00    +0.000 C 
ATOM      8  O   UNL     1       3.572   1.489  17.708  0.00  0.00    +0.000 OA
BRANCH   7   9
ATOM      9  O   UNL     1       4.424   1.827  19.758  0.00  0.00    +0.000 OA
ATOM     10  H   UNL     1       4.872   2.693  19.799  0.00  0.00    +0.000 HD
ENDBRANCH   7   9
ENDBRANCH   4   7
BRANCH   1  11
ATOM     11  C   UNL     1       2.331   6.422  19.452  0.00  0.00    +0.000 C 
BRANCH  11  13
ATOM     12  C   UNL     1       4.879   6.366  18.238  0.00  0.00    +0.000 C 
ATOM     13  C   UNL     1       3.703   6.392  18.799  0.00  0.00    +0.000 C 
BRANCH  12  14
ATOM     14  C   UNL     1       6.252   6.336  17.584  0.00  0.00    +0.000 C 
BRANCH  14  18
ATOM     15  C   UNL     1       6.886   4.417  14.348  0.00  0.00    +0.000 C 
ATOM     16  C   UNL     1       7.013   4.880  15.776  0.00  0.00    +0.000 C 
ATOM     17  O   UNL     1       7.857   4.369  16.513  0.00  0.00    +0.000 OA
ATOM     18  N   UNL     1       6.162   5.892  16.199  0.00  0.00    +0.000 N 
ATOM     19  C   UNL     1       5.118   6.498  15.387  0.00  0.00    +0.000 C 
ENDBRANCH  14  18
ENDBRANCH  12  14
ENDBRANCH  11  13
ENDBRANCH   1  11
TORSDOF 6
ENDMDL
