MODEL 1
REMARK VINA RESULT:      -7.9      0.000      0.000
REMARK  Name = 
REMARK  6 active torsions:
REMARK  status: ('A' for Active; 'I' for Inactive)
REMARK    1  A    between atoms: C_1  and  O_2
REMARK    2  A    between atoms: O_2  and  C_3
REMARK    3  A    between atoms: C_8  and  O_9
REMARK    4  A    between atoms: O_9  and  C_10
REMARK    5  A    between atoms: C_14  and  C_15
REMARK    6  A    between atoms: C_18  and  N_19
REMARK                            x       y       z     vdW  Elec       q    Type
REMARK                         _______ _______ _______ _____ _____    ______ ____
ROOT
ATOM      1  C   UNL     1       0.133  12.041  20.089  0.00  0.00    +0.000 A 
ATOM      2  C   UNL     1       0.820  11.545  18.971  0.00  0.00    +0.000 A 
ATOM      3  C   UNL     1       1.283  10.227  18.929  0.00  0.00    +0.000 A 
ATOM      4  C   UNL     1       1.063   9.399  20.039  0.00  0.00    +0.000 A 
ATOM      5  C   UNL     1       0.370   9.885  21.158  0.00  0.00    +0.000 A 
ATOM      6  C   UNL     1      -0.111  11.202  21.192  0.00  0.00    +0.000 A 
ATOM      7  C   UNL     1       1.581   8.002  20.064  0.00  0.00    +0.000 C 
ATOM      8  O   UNL     1       1.468   7.298  21.060  0.00  0.00    +0.000 OA
ATOM      9  C   UNL     1       2.262   7.524  18.819  0.00  0.00    +0.000 C 
ATOM     10  C   UNL     1       3.182   6.554  18.959  0.00  0.00    +0.000 C 
ATOM     11  C   UNL     1       1.862   8.225  17.555  0.00  0.00    +0.000 C 
ATOM     12  C   UNL     1       2.039   9.729  17.725  0.00  0.00    +0.000 C 
ENDROOT
BRANCH  10  13
ATOM     13  C   UNL     1       4.018   6.050  17.869  0.00  0.00    +0.000 A 
ATOM     14  C   UNL     1       4.939   6.908  17.252  0.00  0.00    +0.000 A 
ATOM     15  C   UNL     1       5.765   6.440  16.229  0.00  0.00    +0.000 A 
ATOM     16  C   UNL     1       5.665   5.103  15.821  0.00  0.00    +0.000 A 
ATOM     17  C   UNL     1       4.733   4.243  16.418  0.00  0.00    +0.000 A 
ATOM     18  C   UNL     1       3.911   4.721  17.442  0.00  0.00    +0.000 A 
BRANCH  16  19
ATOM     19  N   UNL     1       6.556   4.597  14.768  0.00  0.00    +0.000 N 
ATOM     20  O   UNL     1       6.167   3.629  14.100  0.00  0.00    +0.000 OA
ATOM     21  O   UNL     1       7.644   5.169  14.609  0.00  0.00    +0.000 OA
ENDBRANCH  16  19
ENDBRANCH  10  13
BRANCH   1  23
ATOM     22  C   UNL     1      -0.144  13.900  18.624  0.00  0.00    +0.000 C 
ATOM     23  O   UNL     1      -0.287  13.335  19.922  0.00  0.00    +0.000 OA
ENDBRANCH   1  23
BRANCH   6  24
ATOM     24  O   UNL     1      -0.828  11.713  22.238  0.00  0.00    +0.000 OA
ATOM     25  C   UNL     1      -1.349  10.811  23.206  0.00  0.00    +0.000 C 
ENDBRANCH   6  24
TORSDOF 4
ENDMDL
MODEL 2
REMARK VINA RESULT:      -7.8      0.641      1.140
REMARK  Name = 
REMARK  6 active torsions:
REMARK  status: ('A' for Active; 'I' for Inactive)
REMARK    1  A    between atoms: C_1  and  O_2
REMARK    2  A    between atoms: O_2  and  C_3
REMARK    3  A    between atoms: C_8  and  O_9
REMARK    4  A    between atoms: O_9  and  C_10
REMARK    5  A    between atoms: C_14  and  C_15
REMARK    6  A    between atoms: C_18  and  N_19
REMARK                            x       y       z     vdW  Elec       q    Type
REMARK                         _______ _______ _______ _____ _____    ______ ____
ROOT
ATOM      1  C   UNL     1       0.156  11.522  20.133  0.00  0.00    +0.000 A 
ATOM      2  C   UNL     1       0.910  11.115  19.022  0.00  0.00    +0.000 A 
ATOM      3  C   UNL     1       1.437   9.822  18.937  0.00  0.00    +0.000 A 
ATOM      4  C   UNL     1       1.212   8.932  19.996  0.00  0.00    +0.000 A 
ATOM      5  C   UNL     1       0.452   9.329  21.107  0.00  0.00    +0.000 A 
ATOM      6  C   UNL     1      -0.091  10.619  21.183  0.00  0.00    +0.000 A 
ATOM      7  C   UNL     1       1.795   7.560  19.976  0.00  0.00    +0.000 C 
ATOM      8  O   UNL     1       1.676   6.803  20.931  0.00  0.00    +0.000 OA
ATOM      9  C   UNL     1       2.547   7.176  18.739  0.00  0.00    +0.000 C 
ATOM     10  C   UNL     1       3.507   6.243  18.871  0.00  0.00    +0.000 C 
ATOM     11  C   UNL     1       2.165   7.920  17.494  0.00  0.00    +0.000 C 
ATOM     12  C   UNL     1       2.263   9.420  17.743  0.00  0.00    +0.000 C 
ENDROOT
BRANCH  10  13
ATOM     13  C   UNL     1       4.408   5.833  17.794  0.00  0.00    +0.000 A 
ATOM     14  C   UNL     1       4.108   4.687  17.044  0.00  0.00    +0.000 A 
ATOM     15  C   UNL     1       4.940   4.293  15.993  0.00  0.00    +0.000 A 
ATOM     16  C   UNL     1       6.078   5.053  15.695  0.00  0.00    +0.000 A 
ATOM     17  C   UNL     1       6.396   6.189  16.453  0.00  0.00    +0.000 A 
ATOM     18  C   UNL     1       5.558   6.576  17.502  0.00  0.00    +0.000 A 
BRANCH  16  19
ATOM     19  N   UNL     1       6.938   4.662  14.570  0.00  0.00    +0.000 N 
ATOM     20  O   UNL     1       6.587   3.689  13.888  0.00  0.00    +0.000 OA
ATOM     21  O   UNL     1       7.963   5.329  14.368  0.00  0.00    +0.000 OA
ENDBRANCH  16  19
ENDBRANCH  10  13
BRANCH   1  23
ATOM     22  C   UNL     1      -1.608  12.962  19.430  0.00  0.00    +0.000 C 
ATOM     23  O   UNL     1      -0.319  12.803  20.010  0.00  0.00    +0.000 OA
ENDBRANCH   1  23
BRANCH   6  24
ATOM     24  O   UNL     1      -0.874  11.044  22.221  0.00  0.00    +0.000 OA
ATOM     25  C   UNL     1      -0.979  10.216  23.372  0.00  0.00    +0.000 C 
ENDBRANCH   6  24
TORSDOF 4
ENDMDL
MODEL 3
REMARK VINA RESULT:      -7.4      0.515      1.259
REMARK  Name = 
REMARK  6 active torsions:
REMARK  status: ('A' for Active; 'I' for Inactive)
REMARK    1  A    between atoms: C_1  and  O_2
REMARK    2  A    between atoms: O_2  and  C_3
REMARK    3  A    between atoms: C_8  and  O_9
REMARK    4  A    between atoms: O_9  and  C_10
REMARK    5  A    between atoms: C_14  and  C_15
REMARK    6  A    between atoms: C_18  and  N_19
REMARK                            x       y       z     vdW  Elec       q    Type
REMARK                         _______ _______ _______ _____ _____    ______ ____
ROOT
ATOM      1  C   UNL     1       0.210  12.162  20.286  0.00  0.00    +0.000 A 
ATOM      2  C   UNL     1       0.929  11.686  19.179  0.00  0.00    +0.000 A 
ATOM      3  C   UNL     1       1.348  10.354  19.104  0.00  0.00    +0.000 A 
ATOM      4  C   UNL     1       1.052   9.493  20.169  0.00  0.00    +0.000 A 
ATOM      5  C   UNL     1       0.326   9.959  21.276  0.00  0.00    +0.000 A 
ATOM      6  C   UNL     1      -0.111  11.290  21.342  0.00  0.00    +0.000 A 
ATOM      7  C   UNL     1       1.521   8.078  20.160  0.00  0.00    +0.000 C 
ATOM      8  O   UNL     1       1.340   7.341  21.120  0.00  0.00    +0.000 OA
ATOM      9  C   UNL     1       2.239   7.626  18.926  0.00  0.00    +0.000 C 
ATOM     10  C   UNL     1       3.120   6.618  19.067  0.00  0.00    +0.000 C 
ATOM     11  C   UNL     1       1.920   8.389  17.676  0.00  0.00    +0.000 C 
ATOM     12  C   UNL     1       2.140   9.877  17.914  0.00  0.00    +0.000 C 
ENDROOT
BRANCH  10  13
ATOM     13  C   UNL     1       3.985   6.128  17.993  0.00  0.00    +0.000 A 
ATOM     14  C   UNL     1       3.769   4.848  17.464  0.00  0.00    +0.000 A 
ATOM     15  C   UNL     1       4.565   4.371  16.421  0.00  0.00    +0.000 A 
ATOM     16  C   UNL     1       5.584   5.183  15.907  0.00  0.00    +0.000 A 
ATOM     17  C   UNL     1       5.820   6.456  16.443  0.00  0.00    +0.000 A 
ATOM     18  C   UNL     1       5.017   6.925  17.487  0.00  0.00    +0.000 A 
BRANCH  16  19
ATOM     19  N   UNL     1       6.402   4.699  14.787  0.00  0.00    +0.000 N 
ATOM     20  O   UNL     1       7.477   5.275  14.567  0.00  0.00    +0.000 OA
ATOM     21  O   UNL     1       5.969   3.743  14.127  0.00  0.00    +0.000 OA
ENDBRANCH  16  19
ENDBRANCH  10  13
BRANCH   1  23
ATOM     22  C   UNL     1       0.849  14.394  19.747  0.00  0.00    +0.000 C 
ATOM     23  O   UNL     1      -0.159  13.476  20.153  0.00  0.00    +0.000 OA
ENDBRANCH   1  23
BRANCH   6  24
ATOM     24  O   UNL     1      -0.856  11.785  22.376  0.00  0.00    +0.000 OA
ATOM     25  C   UNL     1      -2.253  11.965  22.178  0.00  0.00    +0.000 C 
ENDBRANCH   6  24
TORSDOF 4
ENDMDL
MODEL 4
REMARK VINA RESULT:      -7.4      1.408      1.966
REMARK  Name = 
REMARK  6 active torsions:
REMARK  status: ('A' for Active; 'I' for Inactive)
REMARK    1  A    between atoms: C_1  and  O_2
REMARK    2  A    between atoms: O_2  and  C_3
REMARK    3  A    between atoms: C_8  and  O_9
REMARK    4  A    between atoms: O_9  and  C_10
REMARK    5  A    between atoms: C_14  and  C_15
REMARK    6  A    between atoms: C_18  and  N_19
REMARK                            x       y       z     vdW  Elec       q    Type
REMARK                         _______ _______ _______ _____ _____    ______ ____
ROOT
ATOM      1  C   UNL     1       0.255  10.111  20.604  0.00  0.00    +0.000 A 
ATOM      2  C   UNL     1       0.979   9.954  19.413  0.00  0.00    +0.000 A 
ATOM      3  C   UNL     1       1.636   8.756  19.115  0.00  0.00    +0.000 A 
ATOM      4  C   UNL     1       1.573   7.705  20.041  0.00  0.00    +0.000 A 
ATOM      5  C   UNL     1       0.844   7.851  21.231  0.00  0.00    +0.000 A 
ATOM      6  C   UNL     1       0.170   9.047  21.520  0.00  0.00    +0.000 A 
ATOM      7  C   UNL     1       2.298   6.426  19.793  0.00  0.00    +0.000 C 
ATOM      8  O   UNL     1       2.319   5.533  20.631  0.00  0.00    +0.000 OA
ATOM      9  C   UNL     1       3.009   6.310  18.481  0.00  0.00    +0.000 C 
ATOM     10  C   UNL     1       4.070   5.484  18.432  0.00  0.00    +0.000 C 
ATOM     11  C   UNL     1       2.475   7.173  17.378  0.00  0.00    +0.000 C 
ATOM     12  C   UNL     1       2.427   8.624  17.840  0.00  0.00    +0.000 C 
ENDROOT
BRANCH  10  13
ATOM     13  C   UNL     1       4.943   5.336  17.267  0.00  0.00    +0.000 A 
ATOM     14  C   UNL     1       4.617   4.400  16.275  0.00  0.00    +0.000 A 
ATOM     15  C   UNL     1       5.421   4.263  15.142  0.00  0.00    +0.000 A 
ATOM     16  C   UNL     1       6.559   5.068  15.004  0.00  0.00    +0.000 A 
ATOM     17  C   UNL     1       6.903   5.993  15.999  0.00  0.00    +0.000 A 
ATOM     18  C   UNL     1       6.092   6.124  17.130  0.00  0.00    +0.000 A 
BRANCH  16  19
ATOM     19  N   UNL     1       7.389   4.951  13.797  0.00  0.00    +0.000 N 
ATOM     20  O   UNL     1       7.066   4.101  12.956  0.00  0.00    +0.000 OA
ATOM     21  O   UNL     1       8.364   5.709  13.692  0.00  0.00    +0.000 OA
ENDBRANCH  16  19
ENDBRANCH  10  13
BRANCH   1  23
ATOM     22  C   UNL     1      -1.514  11.536  19.885  0.00  0.00    +0.000 C 
ATOM     23  O   UNL     1      -0.361  11.333  20.693  0.00  0.00    +0.000 OA
ENDBRANCH   1  23
BRANCH   6  24
ATOM     24  O   UNL     1      -0.588   9.228  22.643  0.00  0.00    +0.000 OA
ATOM     25  C   UNL     1       0.060   9.645  23.838  0.00  0.00    +0.000 C 
ENDBRANCH   6  24
TORSDOF 4
ENDMDL
MODEL 5
REMARK VINA RESULT:      -7.3      2.609      3.680
REMARK  Name = 
REMARK  6 active torsions:
REMARK  status: ('A' for Active; 'I' for Inactive)
REMARK    1  A    between atoms: C_1  and  O_2
REMARK    2  A    between atoms: O_2  and  C_3
REMARK    3  A    between atoms: C_8  and  O_9
REMARK    4  A    between atoms: O_9  and  C_10
REMARK    5  A    between atoms: C_14  and  C_15
REMARK    6  A    between atoms: C_18  and  N_19
REMARK                            x       y       z     vdW  Elec       q    Type
REMARK                         _______ _______ _______ _____ _____    ______ ____
ROOT
ATOM      1  C   UNL     1      -1.143  11.648  20.929  0.00  0.00    +0.000 A 
ATOM      2  C   UNL     1      -0.666  10.390  21.325  0.00  0.00    +0.000 A 
ATOM      3  C   UNL     1       0.234   9.671  20.532  0.00  0.00    +0.000 A 
ATOM      4  C   UNL     1       0.648  10.224  19.312  0.00  0.00    +0.000 A 
ATOM      5  C   UNL     1       0.182  11.486  18.912  0.00  0.00    +0.000 A 
ATOM      6  C   UNL     1      -0.707  12.214  19.717  0.00  0.00    +0.000 A 
ATOM      7  C   UNL     1       1.566   9.476  18.407  0.00  0.00    +0.000 C 
ATOM      8  O   UNL     1       1.868   9.913  17.304  0.00  0.00    +0.000 OA
ATOM      9  C   UNL     1       2.074   8.163  18.916  0.00  0.00    +0.000 C 
ATOM     10  C   UNL     1       2.419   7.244  17.997  0.00  0.00    +0.000 C 
ATOM     11  C   UNL     1       2.093   8.012  20.408  0.00  0.00    +0.000 C 
ATOM     12  C   UNL     1       0.711   8.311  20.972  0.00  0.00    +0.000 C 
ENDROOT
BRANCH  10  13
ATOM     13  C   UNL     1       2.827   5.875  18.316  0.00  0.00    +0.000 A 
ATOM     14  C   UNL     1       4.092   5.422  17.915  0.00  0.00    +0.000 A 
ATOM     15  C   UNL     1       4.513   4.129  18.234  0.00  0.00    +0.000 A 
ATOM     16  C   UNL     1       3.659   3.286  18.957  0.00  0.00    +0.000 A 
ATOM     17  C   UNL     1       2.385   3.725  19.345  0.00  0.00    +0.000 A 
ATOM     18  C   UNL     1       1.973   5.021  19.022  0.00  0.00    +0.000 A 
BRANCH  16  19
ATOM     19  N   UNL     1       4.110   1.938  19.324  0.00  0.00    +0.000 N 
ATOM     20  O   UNL     1       4.791   1.817  20.352  0.00  0.00    +0.000 OA
ATOM     21  O   UNL     1       3.782   0.999  18.585  0.00  0.00    +0.000 OA
ENDBRANCH  16  19
ENDBRANCH  10  13
BRANCH   1  23
ATOM     22  C   UNL     1      -2.016  11.612  23.146  0.00  0.00    +0.000 C 
ATOM     23  O   UNL     1      -1.972  12.218  21.860  0.00  0.00    +0.000 OA
ENDBRANCH   1  23
BRANCH   6  24
ATOM     24  O   UNL     1      -1.158  13.464  19.396  0.00  0.00    +0.000 OA
ATOM     25  C   UNL     1      -0.202  14.493  19.172  0.00  0.00    +0.000 C 
ENDBRANCH   6  24
TORSDOF 4
ENDMDL
MODEL 6
REMARK VINA RESULT:      -6.9      2.667      3.710
REMARK  Name = 
REMARK  6 active torsions:
REMARK  status: ('A' for Active; 'I' for Inactive)
REMARK    1  A    between atoms: C_1  and  O_2
REMARK    2  A    between atoms: O_2  and  C_3
REMARK    3  A    between atoms: C_8  and  O_9
REMARK    4  A    between atoms: O_9  and  C_10
REMARK    5  A    between atoms: C_14  and  C_15
REMARK    6  A    between atoms: C_18  and  N_19
REMARK                            x       y       z     vdW  Elec       q    Type
REMARK                         _______ _______ _______ _____ _____    ______ ____
ROOT
ATOM      1  C   UNL     1      -1.179  11.641  21.110  0.00  0.00    +0.000 A 
ATOM      2  C   UNL     1      -0.656  10.405  21.516  0.00  0.00    +0.000 A 
ATOM      3  C   UNL     1       0.236   9.693  20.709  0.00  0.00    +0.000 A 
ATOM      4  C   UNL     1       0.595  10.230  19.464  0.00  0.00    +0.000 A 
ATOM      5  C   UNL     1       0.082  11.470  19.054  0.00  0.00    +0.000 A 
ATOM      6  C   UNL     1      -0.798  12.192  19.873  0.00  0.00    +0.000 A 
ATOM      7  C   UNL     1       1.502   9.486  18.545  0.00  0.00    +0.000 C 
ATOM      8  O   UNL     1       1.755   9.906  17.422  0.00  0.00    +0.000 OA
ATOM      9  C   UNL     1       2.061   8.197  19.063  0.00  0.00    +0.000 C 
ATOM     10  C   UNL     1       2.399   7.268  18.152  0.00  0.00    +0.000 C 
ATOM     11  C   UNL     1       2.134   8.079  20.556  0.00  0.00    +0.000 C 
ATOM     12  C   UNL     1       0.763   8.355  21.160  0.00  0.00    +0.000 C 
ENDROOT
BRANCH  10  13
ATOM     13  C   UNL     1       2.854   5.917  18.486  0.00  0.00    +0.000 A 
ATOM     14  C   UNL     1       1.917   4.951  18.876  0.00  0.00    +0.000 A 
ATOM     15  C   UNL     1       2.326   3.649  19.172  0.00  0.00    +0.000 A 
ATOM     16  C   UNL     1       3.683   3.316  19.077  0.00  0.00    +0.000 A 
ATOM     17  C   UNL     1       4.630   4.281  18.706  0.00  0.00    +0.000 A 
ATOM     18  C   UNL     1       4.211   5.581  18.411  0.00  0.00    +0.000 A 
BRANCH  16  19
ATOM     19  N   UNL     1       4.114   1.939  19.354  0.00  0.00    +0.000 N 
ATOM     20  O   UNL     1       3.771   1.056  18.556  0.00  0.00    +0.000 OA
ATOM     21  O   UNL     1       4.796   1.742  20.371  0.00  0.00    +0.000 OA
ENDBRANCH  16  19
ENDBRANCH  10  13
BRANCH   1  23
ATOM     22  C   UNL     1      -3.365  12.365  21.723  0.00  0.00    +0.000 C 
ATOM     23  O   UNL     1      -1.991  12.210  22.057  0.00  0.00    +0.000 OA
ENDBRANCH   1  23
BRANCH   6  24
ATOM     24  O   UNL     1      -1.293  13.423  19.541  0.00  0.00    +0.000 OA
ATOM     25  C   UNL     1      -0.479  14.292  18.764  0.00  0.00    +0.000 C 
ENDBRANCH   6  24
TORSDOF 4
ENDMDL
MODEL 7
REMARK VINA RESULT:      -6.9      2.647      3.876
REMARK  Name = 
REMARK  6 active torsions:
REMARK  status: ('A' for Active; 'I' for Inactive)
REMARK    1  A    between atoms: C_1  and  O_2
REMARK    2  A    between atoms: O_2  and  C_3
REMARK    3  A    between atoms: C_8  and  O_9
REMARK    4  A    between atoms: O_9  and  C_10
REMARK    5  A    between atoms: C_14  and  C_15
REMARK    6  A    between atoms: C_18  and  N_19
REMARK                            x       y       z     vdW  Elec       q    Type
REMARK                         _______ _______ _______ _____ _____    ______ ____
ROOT
ATOM      1  C   UNL     1      -2.040  13.649  21.416  0.00  0.00    +0.000 A 
ATOM      2  C   UNL     1      -1.726  12.713  20.419  0.00  0.00    +0.000 A 
ATOM      3  C   UNL     1      -1.096  11.504  20.730  0.00  0.00    +0.000 A 
ATOM      4  C   UNL     1      -0.763  11.242  22.066  0.00  0.00    +0.000 A 
ATOM      5  C   UNL     1      -1.081  12.169  23.071  0.00  0.00    +0.000 A 
ATOM      6  C   UNL     1      -1.730  13.373  22.760  0.00  0.00    +0.000 A 
ATOM      7  C   UNL     1      -0.045   9.991  22.443  0.00  0.00    +0.000 C 
ATOM      8  O   UNL     1       0.324   9.790  23.593  0.00  0.00    +0.000 OA
ATOM      9  C   UNL     1       0.214   9.016  21.336  0.00  0.00    +0.000 C 
ATOM     10  C   UNL     1       1.272   8.198  21.478  0.00  0.00    +0.000 C 
ATOM     11  C   UNL     1      -0.722   9.102  20.168  0.00  0.00    +0.000 C 
ATOM     12  C   UNL     1      -0.749  10.529  19.635  0.00  0.00    +0.000 C 
ENDROOT
BRANCH  10  13
ATOM     13  C   UNL     1       1.733   7.266  20.449  0.00  0.00    +0.000 A 
ATOM     14  C   UNL     1       1.676   5.886  20.692  0.00  0.00    +0.000 A 
ATOM     15  C   UNL     1       2.085   4.979  19.713  0.00  0.00    +0.000 A 
ATOM     16  C   UNL     1       2.555   5.458  18.484  0.00  0.00    +0.000 A 
ATOM     17  C   UNL     1       2.634   6.836  18.239  0.00  0.00    +0.000 A 
ATOM     18  C   UNL     1       2.222   7.737  19.225  0.00  0.00    +0.000 A 
BRANCH  16  19
ATOM     19  N   UNL     1       2.955   4.507  17.438  0.00  0.00    +0.000 N 
ATOM     20  O   UNL     1       2.156   3.607  17.142  0.00  0.00    +0.000 OA
ATOM     21  O   UNL     1       4.067   4.659  16.914  0.00  0.00    +0.000 OA
ENDBRANCH  16  19
ENDBRANCH  10  13
BRANCH   1  23
ATOM     22  C   UNL     1      -4.123  14.688  20.905  0.00  0.00    +0.000 C 
ATOM     23  O   UNL     1      -2.702  14.745  20.925  0.00  0.00    +0.000 OA
ENDBRANCH   1  23
BRANCH   6  24
ATOM     24  O   UNL     1      -2.100  14.291  23.703  0.00  0.00    +0.000 OA
ATOM     25  C   UNL     1      -1.136  15.242  24.137  0.00  0.00    +0.000 C 
ENDBRANCH   6  24
TORSDOF 4
ENDMDL
MODEL 8
REMARK VINA RESULT:      -6.8      2.937      4.428
REMARK  Name = 
REMARK  6 active torsions:
REMARK  status: ('A' for Active; 'I' for Inactive)
REMARK    1  A    between atoms: C_1  and  O_2
REMARK    2  A    between atoms: O_2  and  C_3
REMARK    3  A    between atoms: C_8  and  O_9
REMARK    4  A    between atoms: O_9  and  C_10
REMARK    5  A    between atoms: C_14  and  C_15
REMARK    6  A    between atoms: C_18  and  N_19
REMARK                            x       y       z     vdW  Elec       q    Type
REMARK                         _______ _______ _______ _____ _____    ______ ____
ROOT
ATOM      1  C   UNL     1      -2.030  12.389  22.911  0.00  0.00    +0.000 A 
ATOM      2  C   UNL     1      -1.406  11.163  23.189  0.00  0.00    +0.000 A 
ATOM      3  C   UNL     1      -0.551  10.558  22.263  0.00  0.00    +0.000 A 
ATOM      4  C   UNL     1      -0.334  11.191  21.031  0.00  0.00    +0.000 A 
ATOM      5  C   UNL     1      -0.948  12.421  20.749  0.00  0.00    +0.000 A 
ATOM      6  C   UNL     1      -1.791  13.036  21.686  0.00  0.00    +0.000 A 
ATOM      7  C   UNL     1       0.529  10.562  19.991  0.00  0.00    +0.000 C 
ATOM      8  O   UNL     1       0.659  11.064  18.882  0.00  0.00    +0.000 OA
ATOM      9  C   UNL     1       1.201   9.280  20.374  0.00  0.00    +0.000 C 
ATOM     10  C   UNL     1       1.509   8.430  19.378  0.00  0.00    +0.000 C 
ATOM     11  C   UNL     1       1.412   9.075  21.844  0.00  0.00    +0.000 C 
ATOM     12  C   UNL     1       0.087   9.230  22.579  0.00  0.00    +0.000 C 
ENDROOT
BRANCH  10  13
ATOM     13  C   UNL     1       2.066   7.092  19.581  0.00  0.00    +0.000 A 
ATOM     14  C   UNL     1       3.159   6.675  18.809  0.00  0.00    +0.000 A 
ATOM     15  C   UNL     1       3.722   5.413  19.006  0.00  0.00    +0.000 A 
ATOM     16  C   UNL     1       3.185   4.564  19.983  0.00  0.00    +0.000 A 
ATOM     17  C   UNL     1       2.080   4.966  20.747  0.00  0.00    +0.000 A 
ATOM     18  C   UNL     1       1.523   6.231  20.543  0.00  0.00    +0.000 A 
BRANCH  16  19
ATOM     19  N   UNL     1       3.796   3.249  20.218  0.00  0.00    +0.000 N 
ATOM     20  O   UNL     1       3.210   2.469  20.982  0.00  0.00    +0.000 OA
ATOM     21  O   UNL     1       4.862   2.997  19.638  0.00  0.00    +0.000 OA
ENDBRANCH  16  19
ENDBRANCH  10  13
BRANCH   1  23
ATOM     22  C   UNL     1      -4.077  12.273  24.127  0.00  0.00    +0.000 C 
ATOM     23  O   UNL     1      -2.786  12.848  23.959  0.00  0.00    +0.000 OA
ENDBRANCH   1  23
BRANCH   6  24
ATOM     24  O   UNL     1      -2.380  14.253  21.479  0.00  0.00    +0.000 OA
ATOM     25  C   UNL     1      -3.685  14.286  20.916  0.00  0.00    +0.000 C 
ENDBRANCH   6  24
TORSDOF 4
ENDMDL
MODEL 9
REMARK VINA RESULT:      -6.8      2.616      3.772
REMARK  Name = 
REMARK  6 active torsions:
REMARK  status: ('A' for Active; 'I' for Inactive)
REMARK    1  A    between atoms: C_1  and  O_2
REMARK    2  A    between atoms: O_2  and  C_3
REMARK    3  A    between atoms: C_8  and  O_9
REMARK    4  A    between atoms: O_9  and  C_10
REMARK    5  A    between atoms: C_14  and  C_15
REMARK    6  A    between atoms: C_18  and  N_19
REMARK                            x       y       z     vdW  Elec       q    Type
REMARK                         _______ _______ _______ _____ _____    ______ ____
ROOT
ATOM      1  C   UNL     1      -2.224  13.696  21.315  0.00  0.00    +0.000 A 
ATOM      2  C   UNL     1      -1.879  12.761  20.328  0.00  0.00    +0.000 A 
ATOM      3  C   UNL     1      -1.224  11.569  20.653  0.00  0.00    +0.000 A 
ATOM      4  C   UNL     1      -0.900  11.323  21.994  0.00  0.00    +0.000 A 
ATOM      5  C   UNL     1      -1.249  12.249  22.989  0.00  0.00    +0.000 A 
ATOM      6  C   UNL     1      -1.922  13.436  22.664  0.00  0.00    +0.000 A 
ATOM      7  C   UNL     1      -0.158  10.091  22.386  0.00  0.00    +0.000 C 
ATOM      8  O   UNL     1       0.204   9.906  23.542  0.00  0.00    +0.000 OA
ATOM      9  C   UNL     1       0.135   9.115  21.289  0.00  0.00    +0.000 C 
ATOM     10  C   UNL     1       1.210   8.322  21.447  0.00  0.00    +0.000 C 
ATOM     11  C   UNL     1      -0.791   9.172  20.110  0.00  0.00    +0.000 C 
ATOM     12  C   UNL     1      -0.844  10.595  19.568  0.00  0.00    +0.000 C 
ENDROOT
BRANCH  10  13
ATOM     13  C   UNL     1       1.703   7.394  20.428  0.00  0.00    +0.000 A 
ATOM     14  C   UNL     1       2.226   7.900  19.230  0.00  0.00    +0.000 A 
ATOM     15  C   UNL     1       2.728   7.033  18.257  0.00  0.00    +0.000 A 
ATOM     16  C   UNL     1       2.702   5.652  18.487  0.00  0.00    +0.000 A 
ATOM     17  C   UNL     1       2.163   5.137  19.674  0.00  0.00    +0.000 A 
ATOM     18  C   UNL     1       1.664   6.012  20.642  0.00  0.00    +0.000 A 
BRANCH  16  19
ATOM     19  N   UNL     1       3.259   4.738  17.481  0.00  0.00    +0.000 N 
ATOM     20  O   UNL     1       2.622   3.708  17.222  0.00  0.00    +0.000 OA
ATOM     21  O   UNL     1       4.335   5.051  16.950  0.00  0.00    +0.000 OA
ENDBRANCH  16  19
ENDBRANCH  10  13
BRANCH   1  23
ATOM     22  C   UNL     1      -4.326  14.701  20.814  0.00  0.00    +0.000 C 
ATOM     23  O   UNL     1      -2.906  14.773  20.810  0.00  0.00    +0.000 OA
ENDBRANCH   1  23
BRANCH   6  24
ATOM     24  O   UNL     1      -2.323  14.351  23.597  0.00  0.00    +0.000 OA
ATOM     25  C   UNL     1      -1.334  14.954  24.423  0.00  0.00    +0.000 C 
ENDBRANCH   6  24
TORSDOF 4
ENDMDL
