MODEL 1
REMARK VINA RESULT:      -9.2      0.000      0.000
REMARK  Name = 
REMARK  6 active torsions:
REMARK  status: ('A' for Active; 'I' for Inactive)
REMARK    1  A    between atoms: C_2  and  C_3
REMARK    2  A    between atoms: N_5  and  C_6
REMARK    3  A    between atoms: C_9  and  C_10
REMARK    4  A    between atoms: C_10  and  O_12
REMARK    5  A    between atoms: C_13  and  O_14
REMARK    6  A    between atoms: C_19  and  C_20
REMARK                            x       y       z     vdW  Elec       q    Type
REMARK                         _______ _______ _______ _____ _____    ______ ____
ROOT
ATOM      1  C   UNL     1       2.546   4.474  20.360  0.00  0.00    +0.000 A 
ATOM      2  C   UNL     1       3.336   4.063  19.310  0.00  0.00    +0.000 A 
ATOM      3  N   UNL     1       3.605   5.153  18.505  0.00  0.00    +0.000 N 
ATOM      4  C   UNL     1       2.919   6.255  19.010  0.00  0.00    +0.000 A 
ATOM      5  C   UNL     1       2.773   7.562  18.520  0.00  0.00    +0.000 A 
ATOM      6  C   UNL     1       1.991   8.467  19.240  0.00  0.00    +0.000 A 
ATOM      7  C   UNL     1       1.307   8.109  20.409  0.00  0.00    +0.000 A 
ATOM      8  C   UNL     1       1.451   6.785  20.868  0.00  0.00    +0.000 A 
ATOM      9  C   UNL     1       2.250   5.847  20.170  0.00  0.00    +0.000 A 
ENDROOT
BRANCH   3  10
ATOM     10  C   UNL     1       4.452   5.114  17.362  0.00  0.00    +0.000 A 
ATOM     11  C   UNL     1       4.146   4.262  16.296  0.00  0.00    +0.000 A 
ATOM     12  C   UNL     1       4.988   4.198  15.177  0.00  0.00    +0.000 A 
ATOM     13  C   UNL     1       6.170   4.954  15.128  0.00  0.00    +0.000 A 
ATOM     14  C   UNL     1       6.460   5.807  16.208  0.00  0.00    +0.000 A 
ATOM     15  C   UNL     1       5.609   5.894  17.309  0.00  0.00    +0.000 A 
BRANCH  13  16
ATOM     16  C   UNL     1       7.141   4.884  13.998  0.00  0.00    +0.000 C 
ATOM     17  O   UNL     1       8.127   5.610  13.977  0.00  0.00    +0.000 OA
BRANCH  16  18
ATOM     18  O   UNL     1       6.904   3.989  13.025  0.00  0.00    +0.000 OA
ATOM     19  H   UNL     1       6.885   4.300  12.106  0.00  0.00    +0.000 HD
ENDBRANCH  16  18
ENDBRANCH  13  16
BRANCH  14  20
ATOM     20  O   UNL     1       7.584   6.590  16.281  0.00  0.00    +0.000 OA
ATOM     21  H   UNL     1       7.348   7.511  16.023  0.00  0.00    +0.000 HD
ENDBRANCH  14  20
ENDBRANCH   3  10
BRANCH   7  22
ATOM     22  C   UNL     1       0.463   9.100  21.116  0.00  0.00    +0.000 A 
ATOM     23  C   UNL     1      -0.081  10.208  20.435  0.00  0.00    +0.000 A 
ATOM     24  C   UNL     1      -0.813  11.192  21.103  0.00  0.00    +0.000 A 
ATOM     25  C   UNL     1      -1.046  11.074  22.468  0.00  0.00    +0.000 A 
ATOM     26  C   UNL     1      -0.556   9.970  23.160  0.00  0.00    +0.000 A 
ATOM     27  C   UNL     1       0.194   8.998  22.491  0.00  0.00    +0.000 A 
ENDBRANCH   7  22
BRANCH   1  29
ATOM     28  N   UNL     1       1.756   2.939  22.293  0.00  0.00    +0.000 NA
ATOM     29  C   UNL     1       2.107   3.630  21.431  0.00  0.00    +0.000 C 
ENDBRANCH   1  29
TORSDOF 6
ENDMDL
MODEL 2
REMARK VINA RESULT:      -8.9      0.721      1.192
REMARK  Name = 
REMARK  6 active torsions:
REMARK  status: ('A' for Active; 'I' for Inactive)
REMARK    1  A    between atoms: C_2  and  C_3
REMARK    2  A    between atoms: N_5  and  C_6
REMARK    3  A    between atoms: C_9  and  C_10
REMARK    4  A    between atoms: C_10  and  O_12
REMARK    5  A    between atoms: C_13  and  O_14
REMARK    6  A    between atoms: C_19  and  C_20
REMARK                            x       y       z     vdW  Elec       q    Type
REMARK                         _______ _______ _______ _____ _____    ______ ____
ROOT
ATOM      1  C   UNL     1       2.381   4.455  20.385  0.00  0.00    +0.000 A 
ATOM      2  C   UNL     1       3.182   4.040  19.345  0.00  0.00    +0.000 A 
ATOM      3  N   UNL     1       3.496   5.136  18.564  0.00  0.00    +0.000 N 
ATOM      4  C   UNL     1       2.828   6.247  19.073  0.00  0.00    +0.000 A 
ATOM      5  C   UNL     1       2.726   7.566  18.602  0.00  0.00    +0.000 A 
ATOM      6  C   UNL     1       1.952   8.479  19.320  0.00  0.00    +0.000 A 
ATOM      7  C   UNL     1       1.234   8.120  20.468  0.00  0.00    +0.000 A 
ATOM      8  C   UNL     1       1.334   6.786  20.908  0.00  0.00    +0.000 A 
ATOM      9  C   UNL     1       2.123   5.838  20.211  0.00  0.00    +0.000 A 
ENDROOT
BRANCH   3  10
ATOM     10  C   UNL     1       4.367   5.094  17.439  0.00  0.00    +0.000 A 
ATOM     11  C   UNL     1       4.699   6.277  16.770  0.00  0.00    +0.000 A 
ATOM     12  C   UNL     1       5.534   6.242  15.644  0.00  0.00    +0.000 A 
ATOM     13  C   UNL     1       6.015   5.020  15.149  0.00  0.00    +0.000 A 
ATOM     14  C   UNL     1       5.673   3.842  15.836  0.00  0.00    +0.000 A 
ATOM     15  C   UNL     1       4.866   3.876  16.972  0.00  0.00    +0.000 A 
BRANCH  13  16
ATOM     16  C   UNL     1       6.854   4.908  13.920  0.00  0.00    +0.000 C 
ATOM     17  O   UNL     1       7.833   5.628  13.766  0.00  0.00    +0.000 OA
BRANCH  16  18
ATOM     18  O   UNL     1       6.508   3.984  13.010  0.00  0.00    +0.000 OA
ATOM     19  H   UNL     1       7.127   3.793  12.287  0.00  0.00    +0.000 HD
ENDBRANCH  16  18
ENDBRANCH  13  16
BRANCH  14  20
ATOM     20  O   UNL     1       6.074   2.589  15.448  0.00  0.00    +0.000 OA
ATOM     21  H   UNL     1       5.373   1.940  15.691  0.00  0.00    +0.000 HD
ENDBRANCH  14  20
ENDBRANCH   3  10
BRANCH   7  22
ATOM     22  C   UNL     1       0.401   9.121  21.174  0.00  0.00    +0.000 A 
ATOM     23  C   UNL     1      -0.076  10.268  20.507  0.00  0.00    +0.000 A 
ATOM     24  C   UNL     1      -0.796  11.259  21.179  0.00  0.00    +0.000 A 
ATOM     25  C   UNL     1      -1.085  11.110  22.530  0.00  0.00    +0.000 A 
ATOM     26  C   UNL     1      -0.663   9.969  23.205  0.00  0.00    +0.000 A 
ATOM     27  C   UNL     1       0.076   8.988  22.535  0.00  0.00    +0.000 A 
ENDBRANCH   7  22
BRANCH   1  29
ATOM     28  N   UNL     1       1.513   2.911  22.276  0.00  0.00    +0.000 NA
ATOM     29  C   UNL     1       1.897   3.605  21.432  0.00  0.00    +0.000 C 
ENDBRANCH   1  29
TORSDOF 6
ENDMDL
MODEL 3
REMARK VINA RESULT:      -8.5      1.060      1.716
REMARK  Name = 
REMARK  6 active torsions:
REMARK  status: ('A' for Active; 'I' for Inactive)
REMARK    1  A    between atoms: C_2  and  C_3
REMARK    2  A    between atoms: N_5  and  C_6
REMARK    3  A    between atoms: C_9  and  C_10
REMARK    4  A    between atoms: C_10  and  O_12
REMARK    5  A    between atoms: C_13  and  O_14
REMARK    6  A    between atoms: C_19  and  C_20
REMARK                            x       y       z     vdW  Elec       q    Type
REMARK                         _______ _______ _______ _____ _____    ______ ____
ROOT
ATOM      1  C   UNL     1       3.329   4.182  19.805  0.00  0.00    +0.000 A 
ATOM      2  C   UNL     1       4.135   3.795  18.758  0.00  0.00    +0.000 A 
ATOM      3  N   UNL     1       4.334   4.881  17.927  0.00  0.00    +0.000 N 
ATOM      4  C   UNL     1       3.587   5.952  18.414  0.00  0.00    +0.000 A 
ATOM      5  C   UNL     1       3.361   7.238  17.897  0.00  0.00    +0.000 A 
ATOM      6  C   UNL     1       2.532   8.110  18.603  0.00  0.00    +0.000 A 
ATOM      7  C   UNL     1       1.877   7.739  19.785  0.00  0.00    +0.000 A 
ATOM      8  C   UNL     1       2.103   6.436  20.271  0.00  0.00    +0.000 A 
ATOM      9  C   UNL     1       2.951   5.531  19.587  0.00  0.00    +0.000 A 
ENDROOT
BRANCH   3  10
ATOM     10  C   UNL     1       5.175   4.867  16.779  0.00  0.00    +0.000 A 
ATOM     11  C   UNL     1       6.451   5.436  16.843  0.00  0.00    +0.000 A 
ATOM     12  C   UNL     1       7.277   5.450  15.709  0.00  0.00    +0.000 A 
ATOM     13  C   UNL     1       6.820   4.934  14.487  0.00  0.00    +0.000 A 
ATOM     14  C   UNL     1       5.536   4.364  14.442  0.00  0.00    +0.000 A 
ATOM     15  C   UNL     1       4.724   4.322  15.575  0.00  0.00    +0.000 A 
BRANCH  13  16
ATOM     16  C   UNL     1       7.622   4.976  13.229  0.00  0.00    +0.000 C 
ATOM     17  O   UNL     1       7.321   4.271  12.274  0.00  0.00    +0.000 OA
BRANCH  16  18
ATOM     18  O   UNL     1       8.663   5.824  13.180  0.00  0.00    +0.000 OA
ATOM     19  H   UNL     1       9.559   5.453  13.140  0.00  0.00    +0.000 HD
ENDBRANCH  16  18
ENDBRANCH  13  16
BRANCH  14  20
ATOM     20  O   UNL     1       4.975   3.833  13.309  0.00  0.00    +0.000 OA
ATOM     21  H   UNL     1       5.688   3.661  12.651  0.00  0.00    +0.000 HD
ENDBRANCH  14  20
ENDBRANCH   3  10
BRANCH   7  22
ATOM     22  C   UNL     1       0.982   8.693  20.477  0.00  0.00    +0.000 A 
ATOM     23  C   UNL     1       0.505   9.847  19.821  0.00  0.00    +0.000 A 
ATOM     24  C   UNL     1      -0.277  10.795  20.484  0.00  0.00    +0.000 A 
ATOM     25  C   UNL     1      -0.628  10.597  21.814  0.00  0.00    +0.000 A 
ATOM     26  C   UNL     1      -0.205   9.448  22.476  0.00  0.00    +0.000 A 
ATOM     27  C   UNL     1       0.594   8.510  21.815  0.00  0.00    +0.000 A 
ENDBRANCH   7  22
BRANCH   1  29
ATOM     28  N   UNL     1       2.629   2.653  21.776  0.00  0.00    +0.000 NA
ATOM     29  C   UNL     1       2.947   3.337  20.896  0.00  0.00    +0.000 C 
ENDBRANCH   1  29
TORSDOF 6
ENDMDL
MODEL 4
REMARK VINA RESULT:      -8.0      0.832      1.410
REMARK  Name = 
REMARK  6 active torsions:
REMARK  status: ('A' for Active; 'I' for Inactive)
REMARK    1  A    between atoms: C_2  and  C_3
REMARK    2  A    between atoms: N_5  and  C_6
REMARK    3  A    between atoms: C_9  and  C_10
REMARK    4  A    between atoms: C_10  and  O_12
REMARK    5  A    between atoms: C_13  and  O_14
REMARK    6  A    between atoms: C_19  and  C_20
REMARK                            x       y       z     vdW  Elec       q    Type
REMARK                         _______ _______ _______ _____ _____    ______ ____
ROOT
ATOM      1  C   UNL     1       3.239   4.149  19.853  0.00  0.00    +0.000 A 
ATOM      2  C   UNL     1       3.951   3.751  18.745  0.00  0.00    +0.000 A 
ATOM      3  N   UNL     1       4.088   4.831  17.894  0.00  0.00    +0.000 N 
ATOM      4  C   UNL     1       3.392   5.910  18.435  0.00  0.00    +0.000 A 
ATOM      5  C   UNL     1       3.132   7.194  17.932  0.00  0.00    +0.000 A 
ATOM      6  C   UNL     1       2.371   8.076  18.700  0.00  0.00    +0.000 A 
ATOM      7  C   UNL     1       1.815   7.716  19.935  0.00  0.00    +0.000 A 
ATOM      8  C   UNL     1       2.072   6.414  20.408  0.00  0.00    +0.000 A 
ATOM      9  C   UNL     1       2.853   5.499  19.661  0.00  0.00    +0.000 A 
ENDROOT
BRANCH   3  10
ATOM     10  C   UNL     1       4.829   4.805  16.680  0.00  0.00    +0.000 A 
ATOM     11  C   UNL     1       4.332   4.106  15.575  0.00  0.00    +0.000 A 
ATOM     12  C   UNL     1       5.067   4.053  14.382  0.00  0.00    +0.000 A 
ATOM     13  C   UNL     1       6.328   4.664  14.292  0.00  0.00    +0.000 A 
ATOM     14  C   UNL     1       6.810   5.364  15.412  0.00  0.00    +0.000 A 
ATOM     15  C   UNL     1       6.068   5.443  16.590  0.00  0.00    +0.000 A 
BRANCH  13  16
ATOM     16  C   UNL     1       7.189   4.591  13.076  0.00  0.00    +0.000 C 
ATOM     17  O   UNL     1       7.111   3.635  12.314  0.00  0.00    +0.000 OA
BRANCH  16  18
ATOM     18  O   UNL     1       8.029   5.612  12.842  0.00  0.00    +0.000 OA
ATOM     19  H   UNL     1       8.109   5.946  11.934  0.00  0.00    +0.000 HD
ENDBRANCH  16  18
ENDBRANCH  13  16
BRANCH  14  20
ATOM     20  O   UNL     1       8.027   5.996  15.452  0.00  0.00    +0.000 OA
ATOM     21  H   UNL     1       7.899   6.913  15.789  0.00  0.00    +0.000 HD
ENDBRANCH  14  20
ENDBRANCH   3  10
BRANCH   7  22
ATOM     22  C   UNL     1       0.988   8.681  20.694  0.00  0.00    +0.000 A 
ATOM     23  C   UNL     1       0.844   8.570  22.093  0.00  0.00    +0.000 A 
ATOM     24  C   UNL     1       0.006   9.425  22.813  0.00  0.00    +0.000 A 
ATOM     25  C   UNL     1      -0.688  10.432  22.153  0.00  0.00    +0.000 A 
ATOM     26  C   UNL     1      -0.535  10.591  20.779  0.00  0.00    +0.000 A 
ATOM     27  C   UNL     1       0.290   9.722  20.058  0.00  0.00    +0.000 A 
ENDBRANCH   7  22
BRANCH   1  29
ATOM     28  N   UNL     1       2.699   2.642  21.891  0.00  0.00    +0.000 NA
ATOM     29  C   UNL     1       2.945   3.313  20.978  0.00  0.00    +0.000 C 
ENDBRANCH   1  29
TORSDOF 6
ENDMDL
MODEL 5
REMARK VINA RESULT:      -7.9      3.486      8.395
REMARK  Name = 
REMARK  6 active torsions:
REMARK  status: ('A' for Active; 'I' for Inactive)
REMARK    1  A    between atoms: C_2  and  C_3
REMARK    2  A    between atoms: N_5  and  C_6
REMARK    3  A    between atoms: C_9  and  C_10
REMARK    4  A    between atoms: C_10  and  O_12
REMARK    5  A    between atoms: C_13  and  O_14
REMARK    6  A    between atoms: C_19  and  C_20
REMARK                            x       y       z     vdW  Elec       q    Type
REMARK                         _______ _______ _______ _____ _____    ______ ____
ROOT
ATOM      1  C   UNL     1       3.776   4.137  18.956  0.00  0.00    +0.000 A 
ATOM      2  C   UNL     1       3.104   5.067  19.717  0.00  0.00    +0.000 A 
ATOM      3  N   UNL     1       3.011   6.243  18.997  0.00  0.00    +0.000 N 
ATOM      4  C   UNL     1       3.695   6.081  17.795  0.00  0.00    +0.000 A 
ATOM      5  C   UNL     1       3.986   6.986  16.761  0.00  0.00    +0.000 A 
ATOM      6  C   UNL     1       4.724   6.540  15.665  0.00  0.00    +0.000 A 
ATOM      7  C   UNL     1       5.227   5.236  15.573  0.00  0.00    +0.000 A 
ATOM      8  C   UNL     1       4.940   4.352  16.633  0.00  0.00    +0.000 A 
ATOM      9  C   UNL     1       4.181   4.768  17.753  0.00  0.00    +0.000 A 
ENDROOT
BRANCH   3  10
ATOM     10  C   UNL     1       2.319   7.403  19.445  0.00  0.00    +0.000 A 
ATOM     11  C   UNL     1       1.910   7.500  20.779  0.00  0.00    +0.000 A 
ATOM     12  C   UNL     1       1.205   8.627  21.224  0.00  0.00    +0.000 A 
ATOM     13  C   UNL     1       0.862   9.653  20.330  0.00  0.00    +0.000 A 
ATOM     14  C   UNL     1       1.283   9.540  18.993  0.00  0.00    +0.000 A 
ATOM     15  C   UNL     1       2.010   8.434  18.555  0.00  0.00    +0.000 A 
BRANCH  13  16
ATOM     16  C   UNL     1       0.058  10.847  20.723  0.00  0.00    +0.000 C 
ATOM     17  O   UNL     1      -0.899  11.203  20.047  0.00  0.00    +0.000 OA
BRANCH  16  18
ATOM     18  O   UNL     1       0.409  11.495  21.845  0.00  0.00    +0.000 OA
ATOM     19  H   UNL     1       1.353  11.588  22.048  0.00  0.00    +0.000 HD
ENDBRANCH  16  18
ENDBRANCH  13  16
BRANCH  14  20
ATOM     20  O   UNL     1       1.006  10.471  18.024  0.00  0.00    +0.000 OA
ATOM     21  H   UNL     1       1.802  11.036  17.889  0.00  0.00    +0.000 HD
ENDBRANCH  14  20
ENDBRANCH   3  10
BRANCH   7  22
ATOM     22  C   UNL     1       6.033   4.823  14.401  0.00  0.00    +0.000 A 
ATOM     23  C   UNL     1       7.262   5.450  14.109  0.00  0.00    +0.000 A 
ATOM     24  C   UNL     1       7.996   5.126  12.966  0.00  0.00    +0.000 A 
ATOM     25  C   UNL     1       7.531   4.143  12.100  0.00  0.00    +0.000 A 
ATOM     26  C   UNL     1       6.341   3.479  12.383  0.00  0.00    +0.000 A 
ATOM     27  C   UNL     1       5.599   3.820  13.519  0.00  0.00    +0.000 A 
ENDBRANCH   7  22
BRANCH   1  29
ATOM     28  N   UNL     1       4.208   1.686  19.678  0.00  0.00    +0.000 NA
ATOM     29  C   UNL     1       4.018   2.781  19.350  0.00  0.00    +0.000 C 
ENDBRANCH   1  29
TORSDOF 6
ENDMDL
MODEL 6
REMARK VINA RESULT:      -7.9      4.417      8.404
REMARK  Name = 
REMARK  6 active torsions:
REMARK  status: ('A' for Active; 'I' for Inactive)
REMARK    1  A    between atoms: C_2  and  C_3
REMARK    2  A    between atoms: N_5  and  C_6
REMARK    3  A    between atoms: C_9  and  C_10
REMARK    4  A    between atoms: C_10  and  O_12
REMARK    5  A    between atoms: C_13  and  O_14
REMARK    6  A    between atoms: C_19  and  C_20
REMARK                            x       y       z     vdW  Elec       q    Type
REMARK                         _______ _______ _______ _____ _____    ______ ____
ROOT
ATOM      1  C   UNL     1       2.121   4.892  20.165  0.00  0.00    +0.000 A 
ATOM      2  C   UNL     1       1.504   5.914  20.850  0.00  0.00    +0.000 A 
ATOM      3  N   UNL     1       1.756   7.103  20.193  0.00  0.00    +0.000 N 
ATOM      4  C   UNL     1       2.603   6.843  19.118  0.00  0.00    +0.000 A 
ATOM      5  C   UNL     1       3.233   7.700  18.203  0.00  0.00    +0.000 A 
ATOM      6  C   UNL     1       4.063   7.149  17.225  0.00  0.00    +0.000 A 
ATOM      7  C   UNL     1       4.329   5.776  17.148  0.00  0.00    +0.000 A 
ATOM      8  C   UNL     1       3.702   4.938  18.092  0.00  0.00    +0.000 A 
ATOM      9  C   UNL     1       2.843   5.464  19.087  0.00  0.00    +0.000 A 
ENDROOT
BRANCH   3  10
ATOM     10  C   UNL     1       1.216   8.362  20.580  0.00  0.00    +0.000 A 
ATOM     11  C   UNL     1       1.057   9.374  19.629  0.00  0.00    +0.000 A 
ATOM     12  C   UNL     1       0.550  10.626  20.005  0.00  0.00    +0.000 A 
ATOM     13  C   UNL     1       0.236  10.895  21.346  0.00  0.00    +0.000 A 
ATOM     14  C   UNL     1       0.400   9.865  22.289  0.00  0.00    +0.000 A 
ATOM     15  C   UNL     1       0.876   8.609  21.912  0.00  0.00    +0.000 A 
BRANCH  13  16
ATOM     16  C   UNL     1      -0.245  12.224  21.824  0.00  0.00    +0.000 C 
ATOM     17  O   UNL     1       0.498  13.197  21.812  0.00  0.00    +0.000 OA
BRANCH  16  18
ATOM     18  O   UNL     1      -1.518  12.314  22.244  0.00  0.00    +0.000 OA
ATOM     19  H   UNL     1      -2.217  11.949  21.680  0.00  0.00    +0.000 HD
ENDBRANCH  16  18
ENDBRANCH  13  16
BRANCH  14  20
ATOM     20  O   UNL     1       0.134  10.004  23.627  0.00  0.00    +0.000 OA
ATOM     21  H   UNL     1      -0.659  10.579  23.736  0.00  0.00    +0.000 HD
ENDBRANCH  14  20
ENDBRANCH   3  10
BRANCH   7  22
ATOM     22  C   UNL     1       5.243   5.247  16.111  0.00  0.00    +0.000 A 
ATOM     23  C   UNL     1       6.625   5.526  16.150  0.00  0.00    +0.000 A 
ATOM     24  C   UNL     1       7.488   5.100  15.138  0.00  0.00    +0.000 A 
ATOM     25  C   UNL     1       6.993   4.356  14.074  0.00  0.00    +0.000 A 
ATOM     26  C   UNL     1       5.640   4.030  14.028  0.00  0.00    +0.000 A 
ATOM     27  C   UNL     1       4.776   4.476  15.033  0.00  0.00    +0.000 A 
ENDBRANCH   7  22
BRANCH   1  29
ATOM     28  N   UNL     1       1.970   2.387  20.814  0.00  0.00    +0.000 NA
ATOM     29  C   UNL     1       2.039   3.506  20.518  0.00  0.00    +0.000 C 
ENDBRANCH   1  29
TORSDOF 6
ENDMDL
MODEL 7
REMARK VINA RESULT:      -7.7      4.467      8.413
REMARK  Name = 
REMARK  6 active torsions:
REMARK  status: ('A' for Active; 'I' for Inactive)
REMARK    1  A    between atoms: C_2  and  C_3
REMARK    2  A    between atoms: N_5  and  C_6
REMARK    3  A    between atoms: C_9  and  C_10
REMARK    4  A    between atoms: C_10  and  O_12
REMARK    5  A    between atoms: C_13  and  O_14
REMARK    6  A    between atoms: C_19  and  C_20
REMARK                            x       y       z     vdW  Elec       q    Type
REMARK                         _______ _______ _______ _____ _____    ______ ____
ROOT
ATOM      1  C   UNL     1       2.265   5.091  20.407  0.00  0.00    +0.000 A 
ATOM      2  C   UNL     1       1.584   6.109  21.035  0.00  0.00    +0.000 A 
ATOM      3  N   UNL     1       1.706   7.257  20.276  0.00  0.00    +0.000 N 
ATOM      4  C   UNL     1       2.535   6.983  19.190  0.00  0.00    +0.000 A 
ATOM      5  C   UNL     1       3.054   7.814  18.185  0.00  0.00    +0.000 A 
ATOM      6  C   UNL     1       3.894   7.257  17.219  0.00  0.00    +0.000 A 
ATOM      7  C   UNL     1       4.278   5.910  17.240  0.00  0.00    +0.000 A 
ATOM      8  C   UNL     1       3.762   5.102  18.272  0.00  0.00    +0.000 A 
ATOM      9  C   UNL     1       2.895   5.632  19.258  0.00  0.00    +0.000 A 
ENDROOT
BRANCH   3  10
ATOM     10  C   UNL     1       1.070   8.492  20.585  0.00  0.00    +0.000 A 
ATOM     11  C   UNL     1       0.834   9.427  19.572  0.00  0.00    +0.000 A 
ATOM     12  C   UNL     1       0.232  10.658  19.871  0.00  0.00    +0.000 A 
ATOM     13  C   UNL     1      -0.104  10.986  21.194  0.00  0.00    +0.000 A 
ATOM     14  C   UNL     1       0.139  10.033  22.198  0.00  0.00    +0.000 A 
ATOM     15  C   UNL     1       0.711   8.797  21.900  0.00  0.00    +0.000 A 
BRANCH  13  16
ATOM     16  C   UNL     1      -0.687  12.302  21.588  0.00  0.00    +0.000 C 
ATOM     17  O   UNL     1      -0.124  13.010  22.414  0.00  0.00    +0.000 OA
BRANCH  16  18
ATOM     18  O   UNL     1      -1.829  12.683  20.994  0.00  0.00    +0.000 OA
ATOM     19  H   UNL     1      -2.138  13.593  21.128  0.00  0.00    +0.000 HD
ENDBRANCH  16  18
ENDBRANCH  13  16
BRANCH  14  20
ATOM     20  O   UNL     1      -0.139  10.236  23.527  0.00  0.00    +0.000 OA
ATOM     21  H   UNL     1      -0.897   9.662  23.785  0.00  0.00    +0.000 HD
ENDBRANCH  14  20
ENDBRANCH   3  10
BRANCH   7  22
ATOM     22  C   UNL     1       5.199   5.378  16.210  0.00  0.00    +0.000 A 
ATOM     23  C   UNL     1       4.713   4.627  15.119  0.00  0.00    +0.000 A 
ATOM     24  C   UNL     1       5.575   4.054  14.183  0.00  0.00    +0.000 A 
ATOM     25  C   UNL     1       6.947   4.243  14.296  0.00  0.00    +0.000 A 
ATOM     26  C   UNL     1       7.454   5.013  15.339  0.00  0.00    +0.000 A 
ATOM     27  C   UNL     1       6.589   5.570  16.287  0.00  0.00    +0.000 A 
ENDBRANCH   7  22
BRANCH   1  29
ATOM     28  N   UNL     1       2.352   2.641  21.247  0.00  0.00    +0.000 NA
ATOM     29  C   UNL     1       2.319   3.737  20.872  0.00  0.00    +0.000 C 
ENDBRANCH   1  29
TORSDOF 6
ENDMDL
MODEL 8
REMARK VINA RESULT:      -7.7      4.006      8.442
REMARK  Name = 
REMARK  6 active torsions:
REMARK  status: ('A' for Active; 'I' for Inactive)
REMARK    1  A    between atoms: C_2  and  C_3
REMARK    2  A    between atoms: N_5  and  C_6
REMARK    3  A    between atoms: C_9  and  C_10
REMARK    4  A    between atoms: C_10  and  O_12
REMARK    5  A    between atoms: C_13  and  O_14
REMARK    6  A    between atoms: C_19  and  C_20
REMARK                            x       y       z     vdW  Elec       q    Type
REMARK                         _______ _______ _______ _____ _____    ______ ____
ROOT
ATOM      1  C   UNL     1       3.990   4.352  19.164  0.00  0.00    +0.000 A 
ATOM      2  C   UNL     1       3.267   5.281  19.877  0.00  0.00    +0.000 A 
ATOM      3  N   UNL     1       3.054   6.386  19.075  0.00  0.00    +0.000 N 
ATOM      4  C   UNL     1       3.712   6.186  17.864  0.00  0.00    +0.000 A 
ATOM      5  C   UNL     1       3.895   7.029  16.756  0.00  0.00    +0.000 A 
ATOM      6  C   UNL     1       4.634   6.560  15.669  0.00  0.00    +0.000 A 
ATOM      7  C   UNL     1       5.241   5.297  15.657  0.00  0.00    +0.000 A 
ATOM      8  C   UNL     1       5.061   4.479  16.790  0.00  0.00    +0.000 A 
ATOM      9  C   UNL     1       4.305   4.918  17.904  0.00  0.00    +0.000 A 
ENDROOT
BRANCH   3  10
ATOM     10  C   UNL     1       2.281   7.518  19.460  0.00  0.00    +0.000 A 
ATOM     11  C   UNL     1       1.967   8.501  18.516  0.00  0.00    +0.000 A 
ATOM     12  C   UNL     1       1.228   9.632  18.891  0.00  0.00    +0.000 A 
ATOM     13  C   UNL     1       0.830   9.814  20.224  0.00  0.00    +0.000 A 
ATOM     14  C   UNL     1       1.152   8.815  21.159  0.00  0.00    +0.000 A 
ATOM     15  C   UNL     1       1.861   7.675  20.782  0.00  0.00    +0.000 A 
BRANCH  13  16
ATOM     16  C   UNL     1       0.099  11.024  20.702  0.00  0.00    +0.000 C 
ATOM     17  O   UNL     1      -0.955  11.364  20.177  0.00  0.00    +0.000 OA
BRANCH  16  18
ATOM     18  O   UNL     1       0.625  11.707  21.732  0.00  0.00    +0.000 OA
ATOM     19  H   UNL     1       1.075  12.547  21.547  0.00  0.00    +0.000 HD
ENDBRANCH  16  18
ENDBRANCH  13  16
BRANCH  14  20
ATOM     20  O   UNL     1       0.824   8.879  22.490  0.00  0.00    +0.000 OA
ATOM     21  H   UNL     1       0.933   7.985  22.888  0.00  0.00    +0.000 HD
ENDBRANCH  14  20
ENDBRANCH   3  10
BRANCH   7  22
ATOM     22  C   UNL     1       6.043   4.862  14.491  0.00  0.00    +0.000 A 
ATOM     23  C   UNL     1       7.274   5.478  14.185  0.00  0.00    +0.000 A 
ATOM     24  C   UNL     1       8.003   5.131  13.046  0.00  0.00    +0.000 A 
ATOM     25  C   UNL     1       7.533   4.135  12.199  0.00  0.00    +0.000 A 
ATOM     26  C   UNL     1       6.341   3.481  12.496  0.00  0.00    +0.000 A 
ATOM     27  C   UNL     1       5.603   3.844  13.627  0.00  0.00    +0.000 A 
ENDBRANCH   7  22
BRANCH   1  29
ATOM     28  N   UNL     1       4.643   2.003  20.043  0.00  0.00    +0.000 NA
ATOM     29  C   UNL     1       4.356   3.055  19.650  0.00  0.00    +0.000 C 
ENDBRANCH   1  29
TORSDOF 6
ENDMDL
MODEL 9
REMARK VINA RESULT:      -7.5      4.471      6.925
REMARK  Name = 
REMARK  6 active torsions:
REMARK  status: ('A' for Active; 'I' for Inactive)
REMARK    1  A    between atoms: C_2  and  C_3
REMARK    2  A    between atoms: N_5  and  C_6
REMARK    3  A    between atoms: C_9  and  C_10
REMARK    4  A    between atoms: C_10  and  O_12
REMARK    5  A    between atoms: C_13  and  O_14
REMARK    6  A    between atoms: C_19  and  C_20
REMARK                            x       y       z     vdW  Elec       q    Type
REMARK                         _______ _______ _______ _____ _____    ______ ____
ROOT
ATOM      1  C   UNL     1      -0.463  12.073  21.162  0.00  0.00    +0.000 A 
ATOM      2  C   UNL     1       0.566  11.174  20.992  0.00  0.00    +0.000 A 
ATOM      3  N   UNL     1       0.278  10.372  19.905  0.00  0.00    +0.000 N 
ATOM      4  C   UNL     1      -0.982  10.718  19.422  0.00  0.00    +0.000 A 
ATOM      5  C   UNL     1      -1.777  10.155  18.410  0.00  0.00    +0.000 A 
ATOM      6  C   UNL     1      -3.032  10.707  18.155  0.00  0.00    +0.000 A 
ATOM      7  C   UNL     1      -3.553  11.773  18.899  0.00  0.00    +0.000 A 
ATOM      8  C   UNL     1      -2.746  12.307  19.924  0.00  0.00    +0.000 A 
ATOM      9  C   UNL     1      -1.461  11.780  20.198  0.00  0.00    +0.000 A 
ENDROOT
BRANCH   3  10
ATOM     10  C   UNL     1       1.153   9.373  19.392  0.00  0.00    +0.000 A 
ATOM     11  C   UNL     1       1.663   9.492  18.096  0.00  0.00    +0.000 A 
ATOM     12  C   UNL     1       2.505   8.500  17.573  0.00  0.00    +0.000 A 
ATOM     13  C   UNL     1       2.814   7.357  18.325  0.00  0.00    +0.000 A 
ATOM     14  C   UNL     1       2.294   7.255  19.627  0.00  0.00    +0.000 A 
ATOM     15  C   UNL     1       1.480   8.254  20.161  0.00  0.00    +0.000 A 
BRANCH  13  16
ATOM     16  C   UNL     1       3.650   6.235  17.805  0.00  0.00    +0.000 C 
ATOM     17  O   UNL     1       4.814   6.427  17.475  0.00  0.00    +0.000 OA
BRANCH  16  18
ATOM     18  O   UNL     1       3.088   5.018  17.732  0.00  0.00    +0.000 OA
ATOM     19  H   UNL     1       3.248   4.482  16.940  0.00  0.00    +0.000 HD
ENDBRANCH  16  18
ENDBRANCH  13  16
BRANCH  14  20
ATOM     20  O   UNL     1       2.519   6.187  20.458  0.00  0.00    +0.000 OA
ATOM     21  H   UNL     1       3.438   6.243  20.809  0.00  0.00    +0.000 HD
ENDBRANCH  14  20
ENDBRANCH   3  10
BRANCH   7  22
ATOM     22  C   UNL     1      -4.906  12.300  18.608  0.00  0.00    +0.000 A 
ATOM     23  C   UNL     1      -5.691  12.885  19.623  0.00  0.00    +0.000 A 
ATOM     24  C   UNL     1      -6.997  13.316  19.382  0.00  0.00    +0.000 A 
ATOM     25  C   UNL     1      -7.541  13.200  18.109  0.00  0.00    +0.000 A 
ATOM     26  C   UNL     1      -6.776  12.663  17.077  0.00  0.00    +0.000 A 
ATOM     27  C   UNL     1      -5.475  12.215  17.327  0.00  0.00    +0.000 A 
ENDBRANCH   7  22
BRANCH   1  29
ATOM     28  N   UNL     1      -0.517  13.940  22.958  0.00  0.00    +0.000 NA
ATOM     29  C   UNL     1      -0.492  13.101  22.158  0.00  0.00    +0.000 C 
ENDBRANCH   1  29
TORSDOF 6
ENDMDL
