MODEL 1
REMARK VINA RESULT:      -7.2      0.000      0.000
REMARK  Name = 
REMARK  11 active torsions:
REMARK  status: ('A' for Active; 'I' for Inactive)
REMARK    1  A    between atoms: C_1  and  C_2
REMARK    2  A    between atoms: C_2  and  C_3
REMARK    3  A    between atoms: C_2  and  C_4
REMARK    4  A    between atoms: C_4  and  N_5
REMARK    5  A    between atoms: C_4  and  C_6
REMARK    6  A    between atoms: C_6  and  O_8
REMARK    7  A    between atoms: O_8  and  C_9
REMARK    8  A    between atoms: C_9  and  C_10
REMARK    9  A    between atoms: C_9  and  C_11
REMARK   10  A    between atoms: C_24  and  C_25
REMARK   11  A    between atoms: C_29  and  C_30
REMARK                            x       y       z     vdW  Elec       q    Type
REMARK                         _______ _______ _______ _____ _____    ______ ____
ROOT
ATOM      1  C   UNL     1      -0.098  11.427  19.743  0.00  0.00    +0.000 C 
ATOM      2  C   UNL     1      -0.767  10.897  21.044  0.00  0.00    +0.000 C 
ATOM      3  C   UNL     1      -0.255   9.466  21.271  0.00  0.00    +0.000 C 
ATOM      4  C   UNL     1       0.892   9.312  20.282  0.00  0.00    +0.000 C 
ATOM      5  C   UNL     1       1.320   7.890  19.896  0.00  0.00    +0.000 C 
ATOM      6  C   UNL     1       1.759   7.054  21.106  0.00  0.00    +0.000 C 
ATOM      7  C   UNL     1       2.162   5.641  20.684  0.00  0.00    +0.000 C 
ATOM      8  C   UNL     1       3.178   5.624  19.562  0.00  0.00    +0.000 C 
ATOM      9  C   UNL     1       4.272   4.850  19.662  0.00  0.00    +0.000 C 
ATOM     10  C   UNL     1       5.229   4.700  18.539  0.00  0.00    +0.000 C 
ATOM     11  O   UNL     1       6.244   4.030  18.693  0.00  0.00    +0.000 OA
ATOM     12  C   UNL     1       4.851   5.303  17.212  0.00  0.00    +0.000 C 
ATOM     13  C   UNL     1       4.128   6.625  17.427  0.00  0.00    +0.000 C 
ATOM     14  C   UNL     1       2.874   6.505  18.343  0.00  0.00    +0.000 C 
ATOM     15  C   UNL     1       1.736   5.840  17.528  0.00  0.00    +0.000 C 
ATOM     16  C   UNL     1       2.482   7.942  18.855  0.00  0.00    +0.000 C 
ATOM     17  C   UNL     1       2.244   8.962  17.712  0.00  0.00    +0.000 C 
ATOM     18  C   UNL     1       1.680  10.311  18.178  0.00  0.00    +0.000 C 
ATOM     19  C   UNL     1       0.428  10.132  19.053  0.00  0.00    +0.000 C 
ATOM     20  C   UNL     1      -0.706   9.444  18.249  0.00  0.00    +0.000 C 
ENDROOT
BRANCH   1  21
ATOM     21  C   UNL     1      -1.058  12.333  18.929  0.00  0.00    +0.000 C 
ATOM     22  C   UNL     1      -0.625  13.799  18.929  0.00  0.00    +0.000 C 
BRANCH  21  23
ATOM     23  O   UNL     1      -2.383  12.256  19.509  0.00  0.00    +0.000 OA
BRANCH  23  24
ATOM     24  C   UNL     1      -3.389  11.985  18.623  0.00  0.00    +0.000 C 
ATOM     25  O   UNL     1      -3.230  11.597  17.471  0.00  0.00    +0.000 OA
BRANCH  24  26
ATOM     26  C   UNL     1      -4.770  12.269  19.238  0.00  0.00    +0.000 C 
BRANCH  26  28
ATOM     27  C   UNL     1      -6.850  13.281  18.165  0.00  0.00    +0.000 C 
ATOM     28  C   UNL     1      -5.927  12.062  18.234  0.00  0.00    +0.000 C 
ATOM     29  C   UNL     1      -6.768  10.807  18.499  0.00  0.00    +0.000 C 
ENDBRANCH  26  28
BRANCH  26  30
ATOM     30  N   UNL     1      -4.797  13.659  19.773  0.00  0.00    +0.000 NA
ATOM     31  H   UNL     1      -3.862  14.058  19.651  0.00  0.00    +0.000 HD
ATOM     32  H   UNL     1      -4.906  13.610  20.788  0.00  0.00    +0.000 HD
ENDBRANCH  26  30
ENDBRANCH  24  26
ENDBRANCH  23  24
ENDBRANCH  21  23
ENDBRANCH   1  21
TORSDOF 6
ENDMDL
MODEL 2
REMARK VINA RESULT:      -6.9      1.149      1.413
REMARK  Name = 
REMARK  11 active torsions:
REMARK  status: ('A' for Active; 'I' for Inactive)
REMARK    1  A    between atoms: C_1  and  C_2
REMARK    2  A    between atoms: C_2  and  C_3
REMARK    3  A    between atoms: C_2  and  C_4
REMARK    4  A    between atoms: C_4  and  N_5
REMARK    5  A    between atoms: C_4  and  C_6
REMARK    6  A    between atoms: C_6  and  O_8
REMARK    7  A    between atoms: O_8  and  C_9
REMARK    8  A    between atoms: C_9  and  C_10
REMARK    9  A    between atoms: C_9  and  C_11
REMARK   10  A    between atoms: C_24  and  C_25
REMARK   11  A    between atoms: C_29  and  C_30
REMARK                            x       y       z     vdW  Elec       q    Type
REMARK                         _______ _______ _______ _____ _____    ______ ____
ROOT
ATOM      1  C   UNL     1      -0.109  11.652  20.033  0.00  0.00    +0.000 C 
ATOM      2  C   UNL     1      -0.754  11.086  21.331  0.00  0.00    +0.000 C 
ATOM      3  C   UNL     1      -0.264   9.639  21.491  0.00  0.00    +0.000 C 
ATOM      4  C   UNL     1       0.853   9.500  20.465  0.00  0.00    +0.000 C 
ATOM      5  C   UNL     1       1.241   8.086  20.015  0.00  0.00    +0.000 C 
ATOM      6  C   UNL     1       1.696   7.196  21.180  0.00  0.00    +0.000 C 
ATOM      7  C   UNL     1       2.058   5.793  20.695  0.00  0.00    +0.000 C 
ATOM      8  C   UNL     1       3.044   5.799  19.545  0.00  0.00    +0.000 C 
ATOM      9  C   UNL     1       4.124   5.001  19.586  0.00  0.00    +0.000 C 
ATOM     10  C   UNL     1       5.048   4.876  18.433  0.00  0.00    +0.000 C 
ATOM     11  O   UNL     1       6.052   4.181  18.534  0.00  0.00    +0.000 OA
ATOM     12  C   UNL     1       4.647   5.536  17.140  0.00  0.00    +0.000 C 
ATOM     13  C   UNL     1       3.957   6.862  17.424  0.00  0.00    +0.000 C 
ATOM     14  C   UNL     1       2.725   6.731  18.368  0.00  0.00    +0.000 C 
ATOM     15  C   UNL     1       1.553   6.120  17.561  0.00  0.00    +0.000 C 
ATOM     16  C   UNL     1       2.376   8.155  18.944  0.00  0.00    +0.000 C 
ATOM     17  C   UNL     1       2.129   9.223  17.848  0.00  0.00    +0.000 C 
ATOM     18  C   UNL     1       1.604  10.563  18.379  0.00  0.00    +0.000 C 
ATOM     19  C   UNL     1       0.373  10.375  19.281  0.00  0.00    +0.000 C 
ATOM     20  C   UNL     1      -0.796   9.740  18.483  0.00  0.00    +0.000 C 
ENDROOT
BRANCH   1  21
ATOM     21  C   UNL     1      -1.071  12.607  19.280  0.00  0.00    +0.000 C 
ATOM     22  C   UNL     1      -0.394  13.908  18.850  0.00  0.00    +0.000 C 
BRANCH  21  23
ATOM     23  O   UNL     1      -2.178  12.945  20.152  0.00  0.00    +0.000 OA
BRANCH  23  24
ATOM     24  C   UNL     1      -3.416  12.624  19.669  0.00  0.00    +0.000 C 
ATOM     25  O   UNL     1      -3.636  11.830  18.760  0.00  0.00    +0.000 OA
BRANCH  24  26
ATOM     26  C   UNL     1      -4.521  13.422  20.382  0.00  0.00    +0.000 C 
BRANCH  26  28
ATOM     27  C   UNL     1      -6.747  12.663  21.365  0.00  0.00    +0.000 C 
ATOM     28  C   UNL     1      -5.223  12.608  21.493  0.00  0.00    +0.000 C 
ATOM     29  C   UNL     1      -4.823  13.017  22.916  0.00  0.00    +0.000 C 
ENDBRANCH  26  28
BRANCH  26  30
ATOM     30  N   UNL     1      -5.517  13.892  19.381  0.00  0.00    +0.000 NA
ATOM     31  H   UNL     1      -5.157  14.754  18.964  0.00  0.00    +0.000 HD
ATOM     32  H   UNL     1      -6.354  14.199  19.881  0.00  0.00    +0.000 HD
ENDBRANCH  26  30
ENDBRANCH  24  26
ENDBRANCH  23  24
ENDBRANCH  21  23
ENDBRANCH   1  21
TORSDOF 6
ENDMDL
MODEL 3
REMARK VINA RESULT:      -6.9      1.784      2.249
REMARK  Name = 
REMARK  11 active torsions:
REMARK  status: ('A' for Active; 'I' for Inactive)
REMARK    1  A    between atoms: C_1  and  C_2
REMARK    2  A    between atoms: C_2  and  C_3
REMARK    3  A    between atoms: C_2  and  C_4
REMARK    4  A    between atoms: C_4  and  N_5
REMARK    5  A    between atoms: C_4  and  C_6
REMARK    6  A    between atoms: C_6  and  O_8
REMARK    7  A    between atoms: O_8  and  C_9
REMARK    8  A    between atoms: C_9  and  C_10
REMARK    9  A    between atoms: C_9  and  C_11
REMARK   10  A    between atoms: C_24  and  C_25
REMARK   11  A    between atoms: C_29  and  C_30
REMARK                            x       y       z     vdW  Elec       q    Type
REMARK                         _______ _______ _______ _____ _____    ______ ____
ROOT
ATOM      1  C   UNL     1       1.648  10.456  19.642  0.00  0.00    +0.000 C 
ATOM      2  C   UNL     1       0.743  10.266  20.892  0.00  0.00    +0.000 C 
ATOM      3  C   UNL     1       0.607   8.754  21.132  0.00  0.00    +0.000 C 
ATOM      4  C   UNL     1       1.647   8.129  20.213  0.00  0.00    +0.000 C 
ATOM      5  C   UNL     1       1.476   6.651  19.836  0.00  0.00    +0.000 C 
ATOM      6  C   UNL     1       1.458   5.725  21.060  0.00  0.00    +0.000 C 
ATOM      7  C   UNL     1       1.269   4.267  20.645  0.00  0.00    +0.000 C 
ATOM      8  C   UNL     1       2.255   3.818  19.586  0.00  0.00    +0.000 C 
ATOM      9  C   UNL     1       2.925   2.664  19.744  0.00  0.00    +0.000 C 
ATOM     10  C   UNL     1       3.804   2.119  18.680  0.00  0.00    +0.000 C 
ATOM     11  O   UNL     1       4.441   1.093  18.887  0.00  0.00    +0.000 OA
ATOM     12  C   UNL     1       3.788   2.806  17.339  0.00  0.00    +0.000 C 
ATOM     13  C   UNL     1       3.661   4.311  17.527  0.00  0.00    +0.000 C 
ATOM     14  C   UNL     1       2.415   4.730  18.363  0.00  0.00    +0.000 C 
ATOM     15  C   UNL     1       1.156   4.580  17.472  0.00  0.00    +0.000 C 
ATOM     16  C   UNL     1       2.617   6.208  18.868  0.00  0.00    +0.000 C 
ATOM     17  C   UNL     1       2.890   7.220  17.726  0.00  0.00    +0.000 C 
ATOM     18  C   UNL     1       2.903   8.687  18.174  0.00  0.00    +0.000 C 
ATOM     19  C   UNL     1       1.637   9.051  18.968  0.00  0.00    +0.000 C 
ATOM     20  C   UNL     1       0.372   8.879  18.088  0.00  0.00    +0.000 C 
ENDROOT
BRANCH   1  21
ATOM     21  C   UNL     1       1.198  11.666  18.782  0.00  0.00    +0.000 C 
ATOM     22  C   UNL     1       2.226  12.797  18.772  0.00  0.00    +0.000 C 
BRANCH  21  23
ATOM     23  O   UNL     1      -0.040  12.190  19.320  0.00  0.00    +0.000 OA
BRANCH  23  24
ATOM     24  C   UNL     1      -1.059  12.317  18.416  0.00  0.00    +0.000 C 
ATOM     25  O   UNL     1      -0.955  12.819  17.301  0.00  0.00    +0.000 OA
BRANCH  24  26
ATOM     26  C   UNL     1      -2.384  11.784  18.985  0.00  0.00    +0.000 C 
BRANCH  26  28
ATOM     27  C   UNL     1      -4.800  11.585  18.196  0.00  0.00    +0.000 C 
ATOM     28  C   UNL     1      -3.337  11.257  17.888  0.00  0.00    +0.000 C 
ATOM     29  C   UNL     1      -3.205   9.754  17.613  0.00  0.00    +0.000 C 
ENDBRANCH  26  28
BRANCH  26  30
ATOM     30  N   UNL     1      -3.051  12.856  19.774  0.00  0.00    +0.000 NA
ATOM     31  H   UNL     1      -3.949  12.490  20.099  0.00  0.00    +0.000 HD
ATOM     32  H   UNL     1      -3.315  13.607  19.135  0.00  0.00    +0.000 HD
ENDBRANCH  26  30
ENDBRANCH  24  26
ENDBRANCH  23  24
ENDBRANCH  21  23
ENDBRANCH   1  21
TORSDOF 6
ENDMDL
MODEL 4
REMARK VINA RESULT:      -6.7      1.370      1.791
REMARK  Name = 
REMARK  11 active torsions:
REMARK  status: ('A' for Active; 'I' for Inactive)
REMARK    1  A    between atoms: C_1  and  C_2
REMARK    2  A    between atoms: C_2  and  C_3
REMARK    3  A    between atoms: C_2  and  C_4
REMARK    4  A    between atoms: C_4  and  N_5
REMARK    5  A    between atoms: C_4  and  C_6
REMARK    6  A    between atoms: C_6  and  O_8
REMARK    7  A    between atoms: O_8  and  C_9
REMARK    8  A    between atoms: C_9  and  C_10
REMARK    9  A    between atoms: C_9  and  C_11
REMARK   10  A    between atoms: C_24  and  C_25
REMARK   11  A    between atoms: C_29  and  C_30
REMARK                            x       y       z     vdW  Elec       q    Type
REMARK                         _______ _______ _______ _____ _____    ______ ____
ROOT
ATOM      1  C   UNL     1      -0.178  11.653  20.093  0.00  0.00    +0.000 C 
ATOM      2  C   UNL     1      -0.834  11.064  21.374  0.00  0.00    +0.000 C 
ATOM      3  C   UNL     1      -0.339   9.616  21.517  0.00  0.00    +0.000 C 
ATOM      4  C   UNL     1       0.791   9.499  20.503  0.00  0.00    +0.000 C 
ATOM      5  C   UNL     1       1.192   8.094  20.035  0.00  0.00    +0.000 C 
ATOM      6  C   UNL     1       1.638   7.189  21.192  0.00  0.00    +0.000 C 
ATOM      7  C   UNL     1       2.014   5.796  20.690  0.00  0.00    +0.000 C 
ATOM      8  C   UNL     1       3.012   5.824  19.552  0.00  0.00    +0.000 C 
ATOM      9  C   UNL     1       4.096   5.031  19.593  0.00  0.00    +0.000 C 
ATOM     10  C   UNL     1       5.034   4.929  18.449  0.00  0.00    +0.000 C 
ATOM     11  O   UNL     1       6.041   4.237  18.551  0.00  0.00    +0.000 OA
ATOM     12  C   UNL     1       4.644   5.606  17.161  0.00  0.00    +0.000 C 
ATOM     13  C   UNL     1       3.943   6.924  17.457  0.00  0.00    +0.000 C 
ATOM     14  C   UNL     1       2.702   6.773  18.386  0.00  0.00    +0.000 C 
ATOM     15  C   UNL     1       1.542   6.167  17.556  0.00  0.00    +0.000 C 
ATOM     16  C   UNL     1       2.338   8.186  18.979  0.00  0.00    +0.000 C 
ATOM     17  C   UNL     1       2.098   9.268  17.896  0.00  0.00    +0.000 C 
ATOM     18  C   UNL     1       1.560  10.597  18.441  0.00  0.00    +0.000 C 
ATOM     19  C   UNL     1       0.319  10.390  19.326  0.00  0.00    +0.000 C 
ATOM     20  C   UNL     1      -0.837   9.760  18.506  0.00  0.00    +0.000 C 
ENDROOT
BRANCH   1  21
ATOM     21  C   UNL     1      -1.137  12.614  19.343  0.00  0.00    +0.000 C 
ATOM     22  C   UNL     1      -0.461  13.924  18.939  0.00  0.00    +0.000 C 
BRANCH  21  23
ATOM     23  O   UNL     1      -2.254  12.933  20.207  0.00  0.00    +0.000 OA
BRANCH  23  24
ATOM     24  C   UNL     1      -3.482  12.570  19.727  0.00  0.00    +0.000 C 
ATOM     25  O   UNL     1      -3.675  11.808  18.786  0.00  0.00    +0.000 OA
BRANCH  24  26
ATOM     26  C   UNL     1      -4.614  13.275  20.493  0.00  0.00    +0.000 C 
BRANCH  26  28
ATOM     27  C   UNL     1      -4.499  14.399  22.778  0.00  0.00    +0.000 C 
ATOM     28  C   UNL     1      -4.121  14.499  21.298  0.00  0.00    +0.000 C 
ATOM     29  C   UNL     1      -4.600  15.847  20.745  0.00  0.00    +0.000 C 
ENDBRANCH  26  28
BRANCH  26  30
ATOM     30  N   UNL     1      -5.282  12.299  21.398  0.00  0.00    +0.000 NA
ATOM     31  H   UNL     1      -6.074  12.775  21.838  0.00  0.00    +0.000 HD
ATOM     32  H   UNL     1      -4.654  12.105  22.179  0.00  0.00    +0.000 HD
ENDBRANCH  26  30
ENDBRANCH  24  26
ENDBRANCH  23  24
ENDBRANCH  21  23
ENDBRANCH   1  21
TORSDOF 6
ENDMDL
MODEL 5
REMARK VINA RESULT:      -6.6      2.325      2.940
REMARK  Name = 
REMARK  11 active torsions:
REMARK  status: ('A' for Active; 'I' for Inactive)
REMARK    1  A    between atoms: C_1  and  C_2
REMARK    2  A    between atoms: C_2  and  C_3
REMARK    3  A    between atoms: C_2  and  C_4
REMARK    4  A    between atoms: C_4  and  N_5
REMARK    5  A    between atoms: C_4  and  C_6
REMARK    6  A    between atoms: C_6  and  O_8
REMARK    7  A    between atoms: O_8  and  C_9
REMARK    8  A    between atoms: C_9  and  C_10
REMARK    9  A    between atoms: C_9  and  C_11
REMARK   10  A    between atoms: C_24  and  C_25
REMARK   11  A    between atoms: C_29  and  C_30
REMARK                            x       y       z     vdW  Elec       q    Type
REMARK                         _______ _______ _______ _____ _____    ______ ____
ROOT
ATOM      1  C   UNL     1       1.632  10.495  19.606  0.00  0.00    +0.000 C 
ATOM      2  C   UNL     1       0.727  10.309  20.857  0.00  0.00    +0.000 C 
ATOM      3  C   UNL     1       0.599   8.798  21.109  0.00  0.00    +0.000 C 
ATOM      4  C   UNL     1       1.645   8.172  20.195  0.00  0.00    +0.000 C 
ATOM      5  C   UNL     1       1.482   6.691  19.829  0.00  0.00    +0.000 C 
ATOM      6  C   UNL     1       1.468   5.774  21.060  0.00  0.00    +0.000 C 
ATOM      7  C   UNL     1       1.289   4.311  20.657  0.00  0.00    +0.000 C 
ATOM      8  C   UNL     1       2.279   3.860  19.603  0.00  0.00    +0.000 C 
ATOM      9  C   UNL     1       2.956   2.711  19.770  0.00  0.00    +0.000 C 
ATOM     10  C   UNL     1       3.838   2.164  18.711  0.00  0.00    +0.000 C 
ATOM     11  O   UNL     1       4.482   1.143  18.927  0.00  0.00    +0.000 OA
ATOM     12  C   UNL     1       3.821   2.840  17.365  0.00  0.00    +0.000 C 
ATOM     13  C   UNL     1       3.684   4.346  17.541  0.00  0.00    +0.000 C 
ATOM     14  C   UNL     1       2.434   4.763  18.372  0.00  0.00    +0.000 C 
ATOM     15  C   UNL     1       1.178   4.599  17.481  0.00  0.00    +0.000 C 
ATOM     16  C   UNL     1       2.627   6.246  18.866  0.00  0.00    +0.000 C 
ATOM     17  C   UNL     1       2.896   7.251  17.717  0.00  0.00    +0.000 C 
ATOM     18  C   UNL     1       2.899   8.722  18.153  0.00  0.00    +0.000 C 
ATOM     19  C   UNL     1       1.631   9.084  18.943  0.00  0.00    +0.000 C 
ATOM     20  C   UNL     1       0.367   8.898  18.063  0.00  0.00    +0.000 C 
ENDROOT
BRANCH   1  21
ATOM     21  C   UNL     1       1.175  11.695  18.737  0.00  0.00    +0.000 C 
ATOM     22  C   UNL     1       2.349  12.517  18.203  0.00  0.00    +0.000 C 
BRANCH  21  23
ATOM     23  O   UNL     1       0.344  12.568  19.539  0.00  0.00    +0.000 OA
BRANCH  23  24
ATOM     24  C   UNL     1      -0.928  12.750  19.072  0.00  0.00    +0.000 C 
ATOM     25  O   UNL     1      -1.337  12.379  17.976  0.00  0.00    +0.000 OA
BRANCH  24  26
ATOM     26  C   UNL     1      -1.792  13.524  20.081  0.00  0.00    +0.000 C 
BRANCH  26  28
ATOM     27  C   UNL     1      -2.165  12.263  22.265  0.00  0.00    +0.000 C 
ATOM     28  C   UNL     1      -1.330  13.322  21.543  0.00  0.00    +0.000 C 
ATOM     29  C   UNL     1      -1.317  14.609  22.378  0.00  0.00    +0.000 C 
ENDBRANCH  26  28
BRANCH  26  30
ATOM     30  N   UNL     1      -3.216  13.114  19.931  0.00  0.00    +0.000 NA
ATOM     31  H   UNL     1      -3.456  12.525  20.732  0.00  0.00    +0.000 HD
ATOM     32  H   UNL     1      -3.284  12.477  19.136  0.00  0.00    +0.000 HD
ENDBRANCH  26  30
ENDBRANCH  24  26
ENDBRANCH  23  24
ENDBRANCH  21  23
ENDBRANCH   1  21
TORSDOF 6
ENDMDL
MODEL 6
REMARK VINA RESULT:      -6.5      1.416      1.611
REMARK  Name = 
REMARK  11 active torsions:
REMARK  status: ('A' for Active; 'I' for Inactive)
REMARK    1  A    between atoms: C_1  and  C_2
REMARK    2  A    between atoms: C_2  and  C_3
REMARK    3  A    between atoms: C_2  and  C_4
REMARK    4  A    between atoms: C_4  and  N_5
REMARK    5  A    between atoms: C_4  and  C_6
REMARK    6  A    between atoms: C_6  and  O_8
REMARK    7  A    between atoms: O_8  and  C_9
REMARK    8  A    between atoms: C_9  and  C_10
REMARK    9  A    between atoms: C_9  and  C_11
REMARK   10  A    between atoms: C_24  and  C_25
REMARK   11  A    between atoms: C_29  and  C_30
REMARK                            x       y       z     vdW  Elec       q    Type
REMARK                         _______ _______ _______ _____ _____    ______ ____
ROOT
ATOM      1  C   UNL     1      -0.302  12.001  20.568  0.00  0.00    +0.000 C 
ATOM      2  C   UNL     1      -0.891  11.322  21.837  0.00  0.00    +0.000 C 
ATOM      3  C   UNL     1      -0.383   9.872  21.857  0.00  0.00    +0.000 C 
ATOM      4  C   UNL     1       0.695   9.833  20.782  0.00  0.00    +0.000 C 
ATOM      5  C   UNL     1       1.080   8.465  20.201  0.00  0.00    +0.000 C 
ATOM      6  C   UNL     1       1.586   7.488  21.271  0.00  0.00    +0.000 C 
ATOM      7  C   UNL     1       1.943   6.135  20.657  0.00  0.00    +0.000 C 
ATOM      8  C   UNL     1       2.884   6.248  19.476  0.00  0.00    +0.000 C 
ATOM      9  C   UNL     1       3.972   5.462  19.410  0.00  0.00    +0.000 C 
ATOM     10  C   UNL     1       4.852   5.445  18.217  0.00  0.00    +0.000 C 
ATOM     11  O   UNL     1       5.866   4.756  18.222  0.00  0.00    +0.000 OA
ATOM     12  C   UNL     1       4.396   6.205  16.999  0.00  0.00    +0.000 C 
ATOM     13  C   UNL     1       3.705   7.494  17.418  0.00  0.00    +0.000 C 
ATOM     14  C   UNL     1       2.512   7.271  18.394  0.00  0.00    +0.000 C 
ATOM     15  C   UNL     1       1.315   6.714  17.583  0.00  0.00    +0.000 C 
ATOM     16  C   UNL     1       2.171   8.637  19.099  0.00  0.00    +0.000 C 
ATOM     17  C   UNL     1       1.873   9.789  18.106  0.00  0.00    +0.000 C 
ATOM     18  C   UNL     1       1.357  11.074  18.765  0.00  0.00    +0.000 C 
ATOM     19  C   UNL     1       0.162  10.797  19.694  0.00  0.00    +0.000 C 
ATOM     20  C   UNL     1      -1.030  10.216  18.890  0.00  0.00    +0.000 C 
ENDROOT
BRANCH   1  21
ATOM     21  C   UNL     1      -1.301  13.003  19.933  0.00  0.00    +0.000 C 
ATOM     22  C   UNL     1      -0.618  14.010  19.008  0.00  0.00    +0.000 C 
BRANCH  21  23
ATOM     23  O   UNL     1      -1.963  13.741  20.989  0.00  0.00    +0.000 OA
BRANCH  23  24
ATOM     24  C   UNL     1      -3.301  13.952  20.800  0.00  0.00    +0.000 C 
ATOM     25  O   UNL     1      -3.827  15.049  20.643  0.00  0.00    +0.000 OA
BRANCH  24  26
ATOM     26  C   UNL     1      -4.090  12.633  20.848  0.00  0.00    +0.000 C 
BRANCH  26  28
ATOM     27  C   UNL     1      -6.497  11.924  20.397  0.00  0.00    +0.000 C 
ATOM     28  C   UNL     1      -5.244  12.589  19.821  0.00  0.00    +0.000 C 
ATOM     29  C   UNL     1      -4.877  11.909  18.496  0.00  0.00    +0.000 C 
ENDBRANCH  26  28
BRANCH  26  30
ATOM     30  N   UNL     1      -4.618  12.423  22.225  0.00  0.00    +0.000 NA
ATOM     31  H   UNL     1      -4.431  13.273  22.763  0.00  0.00    +0.000 HD
ATOM     32  H   UNL     1      -4.041  11.716  22.684  0.00  0.00    +0.000 HD
ENDBRANCH  26  30
ENDBRANCH  24  26
ENDBRANCH  23  24
ENDBRANCH  21  23
ENDBRANCH   1  21
TORSDOF 6
ENDMDL
MODEL 7
REMARK VINA RESULT:      -6.5      2.730      3.534
REMARK  Name = 
REMARK  11 active torsions:
REMARK  status: ('A' for Active; 'I' for Inactive)
REMARK    1  A    between atoms: C_1  and  C_2
REMARK    2  A    between atoms: C_2  and  C_3
REMARK    3  A    between atoms: C_2  and  C_4
REMARK    4  A    between atoms: C_4  and  N_5
REMARK    5  A    between atoms: C_4  and  C_6
REMARK    6  A    between atoms: C_6  and  O_8
REMARK    7  A    between atoms: O_8  and  C_9
REMARK    8  A    between atoms: C_9  and  C_10
REMARK    9  A    between atoms: C_9  and  C_11
REMARK   10  A    between atoms: C_24  and  C_25
REMARK   11  A    between atoms: C_29  and  C_30
REMARK                            x       y       z     vdW  Elec       q    Type
REMARK                         _______ _______ _______ _____ _____    ______ ____
ROOT
ATOM      1  C   UNL     1       1.752  10.377  19.538  0.00  0.00    +0.000 C 
ATOM      2  C   UNL     1       0.866  10.220  20.808  0.00  0.00    +0.000 C 
ATOM      3  C   UNL     1       0.710   8.714  21.072  0.00  0.00    +0.000 C 
ATOM      4  C   UNL     1       1.723   8.058  20.143  0.00  0.00    +0.000 C 
ATOM      5  C   UNL     1       1.521   6.579  19.791  0.00  0.00    +0.000 C 
ATOM      6  C   UNL     1       1.510   5.671  21.028  0.00  0.00    +0.000 C 
ATOM      7  C   UNL     1       1.290   4.209  20.638  0.00  0.00    +0.000 C 
ATOM      8  C   UNL     1       2.249   3.729  19.568  0.00  0.00    +0.000 C 
ATOM      9  C   UNL     1       2.904   2.567  19.730  0.00  0.00    +0.000 C 
ATOM     10  C   UNL     1       3.753   1.993  18.659  0.00  0.00    +0.000 C 
ATOM     11  O   UNL     1       4.378   0.959  18.869  0.00  0.00    +0.000 OA
ATOM     12  C   UNL     1       3.725   2.661  17.309  0.00  0.00    +0.000 C 
ATOM     13  C   UNL     1       3.625   4.170  17.477  0.00  0.00    +0.000 C 
ATOM     14  C   UNL     1       2.402   4.621  18.329  0.00  0.00    +0.000 C 
ATOM     15  C   UNL     1       1.125   4.480  17.463  0.00  0.00    +0.000 C 
ATOM     16  C   UNL     1       2.637   6.103  18.809  0.00  0.00    +0.000 C 
ATOM     17  C   UNL     1       2.906   7.094  17.648  0.00  0.00    +0.000 C 
ATOM     18  C   UNL     1       2.950   8.567  18.074  0.00  0.00    +0.000 C 
ATOM     19  C   UNL     1       1.706   8.963  18.885  0.00  0.00    +0.000 C 
ATOM     20  C   UNL     1       0.422   8.799  18.031  0.00  0.00    +0.000 C 
ENDROOT
BRANCH   1  21
ATOM     21  C   UNL     1       1.305  11.581  18.670  0.00  0.00    +0.000 C 
ATOM     22  C   UNL     1       2.486  12.374  18.109  0.00  0.00    +0.000 C 
BRANCH  21  23
ATOM     23  O   UNL     1       0.509  12.478  19.481  0.00  0.00    +0.000 OA
BRANCH  23  24
ATOM     24  C   UNL     1      -0.523  13.092  18.826  0.00  0.00    +0.000 C 
ATOM     25  O   UNL     1      -1.171  12.598  17.910  0.00  0.00    +0.000 OA
BRANCH  24  26
ATOM     26  C   UNL     1      -0.755  14.517  19.355  0.00  0.00    +0.000 C 
BRANCH  26  28
ATOM     27  C   UNL     1       1.409  15.850  19.555  0.00  0.00    +0.000 C 
ATOM     28  C   UNL     1       0.177  15.559  18.695  0.00  0.00    +0.000 C 
ATOM     29  C   UNL     1      -0.514  16.882  18.342  0.00  0.00    +0.000 C 
ENDBRANCH  26  28
BRANCH  26  30
ATOM     30  N   UNL     1      -0.577  14.532  20.834  0.00  0.00    +0.000 NA
ATOM     31  H   UNL     1      -1.432  14.159  21.253  0.00  0.00    +0.000 HD
ATOM     32  H   UNL     1      -0.562  15.504  21.145  0.00  0.00    +0.000 HD
ENDBRANCH  26  30
ENDBRANCH  24  26
ENDBRANCH  23  24
ENDBRANCH  21  23
ENDBRANCH   1  21
TORSDOF 6
ENDMDL
MODEL 8
REMARK VINA RESULT:      -6.4      3.303      8.893
REMARK  Name = 
REMARK  11 active torsions:
REMARK  status: ('A' for Active; 'I' for Inactive)
REMARK    1  A    between atoms: C_1  and  C_2
REMARK    2  A    between atoms: C_2  and  C_3
REMARK    3  A    between atoms: C_2  and  C_4
REMARK    4  A    between atoms: C_4  and  N_5
REMARK    5  A    between atoms: C_4  and  C_6
REMARK    6  A    between atoms: C_6  and  O_8
REMARK    7  A    between atoms: O_8  and  C_9
REMARK    8  A    between atoms: C_9  and  C_10
REMARK    9  A    between atoms: C_9  and  C_11
REMARK   10  A    between atoms: C_24  and  C_25
REMARK   11  A    between atoms: C_29  and  C_30
REMARK                            x       y       z     vdW  Elec       q    Type
REMARK                         _______ _______ _______ _____ _____    ______ ____
ROOT
ATOM      1  C   UNL     1       0.990   8.740  19.743  0.00  0.00    +0.000 C 
ATOM      2  C   UNL     1       1.521   8.430  21.172  0.00  0.00    +0.000 C 
ATOM      3  C   UNL     1       0.784   9.364  22.145  0.00  0.00    +0.000 C 
ATOM      4  C   UNL     1      -0.335   9.974  21.312  0.00  0.00    +0.000 C 
ATOM      5  C   UNL     1      -0.964  11.284  21.805  0.00  0.00    +0.000 C 
ATOM      6  C   UNL     1      -1.572  11.158  23.209  0.00  0.00    +0.000 C 
ATOM      7  C   UNL     1      -2.173  12.485  23.670  0.00  0.00    +0.000 C 
ATOM      8  C   UNL     1      -3.138  13.082  22.667  0.00  0.00    +0.000 C 
ATOM      9  C   UNL     1      -4.341  13.519  23.075  0.00  0.00    +0.000 C 
ATOM     10  C   UNL     1      -5.268  14.225  22.157  0.00  0.00    +0.000 C 
ATOM     11  O   UNL     1      -6.379  14.556  22.555  0.00  0.00    +0.000 OA
ATOM     12  C   UNL     1      -4.752  14.599  20.792  0.00  0.00    +0.000 C 
ATOM     13  C   UNL     1      -3.841  13.502  20.260  0.00  0.00    +0.000 C 
ATOM     14  C   UNL     1      -2.656  13.163  21.212  0.00  0.00    +0.000 C 
ATOM     15  C   UNL     1      -1.606  14.297  21.107  0.00  0.00    +0.000 C 
ATOM     16  C   UNL     1      -2.064  11.761  20.806  0.00  0.00    +0.000 C 
ATOM     17  C   UNL     1      -1.630  11.680  19.320  0.00  0.00    +0.000 C 
ATOM     18  C   UNL     1      -0.880  10.394  18.951  0.00  0.00    +0.000 C 
ATOM     19  C   UNL     1       0.295  10.126  19.906  0.00  0.00    +0.000 C 
ATOM     20  C   UNL     1       1.338  11.271  19.822  0.00  0.00    +0.000 C 
ENDROOT
BRANCH   1  21
ATOM     21  C   UNL     1       2.108   8.621  18.675  0.00  0.00    +0.000 C 
ATOM     22  C   UNL     1       1.948   9.633  17.539  0.00  0.00    +0.000 C 
BRANCH  21  23
ATOM     23  O   UNL     1       2.072   7.293  18.100  0.00  0.00    +0.000 OA
BRANCH  23  24
ATOM     24  C   UNL     1       3.274   6.643  18.061  0.00  0.00    +0.000 C 
ATOM     25  O   UNL     1       4.274   7.043  17.472  0.00  0.00    +0.000 OA
BRANCH  24  26
ATOM     26  C   UNL     1       3.216   5.308  18.821  0.00  0.00    +0.000 C 
BRANCH  26  28
ATOM     27  C   UNL     1       1.455   4.626  20.533  0.00  0.00    +0.000 C 
ATOM     28  C   UNL     1       1.770   4.810  19.047  0.00  0.00    +0.000 C 
ATOM     29  C   UNL     1       1.429   3.518  18.295  0.00  0.00    +0.000 C 
ENDBRANCH  26  28
BRANCH  26  30
ATOM     30  N   UNL     1       3.921   5.450  20.125  0.00  0.00    +0.000 NA
ATOM     31  H   UNL     1       3.485   6.225  20.631  0.00  0.00    +0.000 HD
ATOM     32  H   UNL     1       4.868   5.785  19.943  0.00  0.00    +0.000 HD
ENDBRANCH  26  30
ENDBRANCH  24  26
ENDBRANCH  23  24
ENDBRANCH  21  23
ENDBRANCH   1  21
TORSDOF 6
ENDMDL
MODEL 9
REMARK VINA RESULT:      -6.4      3.822      9.511
REMARK  Name = 
REMARK  11 active torsions:
REMARK  status: ('A' for Active; 'I' for Inactive)
REMARK    1  A    between atoms: C_1  and  C_2
REMARK    2  A    between atoms: C_2  and  C_3
REMARK    3  A    between atoms: C_2  and  C_4
REMARK    4  A    between atoms: C_4  and  N_5
REMARK    5  A    between atoms: C_4  and  C_6
REMARK    6  A    between atoms: C_6  and  O_8
REMARK    7  A    between atoms: O_8  and  C_9
REMARK    8  A    between atoms: C_9  and  C_10
REMARK    9  A    between atoms: C_9  and  C_11
REMARK   10  A    between atoms: C_24  and  C_25
REMARK   11  A    between atoms: C_29  and  C_30
REMARK                            x       y       z     vdW  Elec       q    Type
REMARK                         _______ _______ _______ _____ _____    ______ ____
ROOT
ATOM      1  C   UNL     1       0.019  11.367  18.659  0.00  0.00    +0.000 C 
ATOM      2  C   UNL     1      -1.076  10.576  17.889  0.00  0.00    +0.000 C 
ATOM      3  C   UNL     1      -2.424  10.889  18.558  0.00  0.00    +0.000 C 
ATOM      4  C   UNL     1      -2.121  12.052  19.494  0.00  0.00    +0.000 C 
ATOM      5  C   UNL     1      -3.092  12.312  20.652  0.00  0.00    +0.000 C 
ATOM      6  C   UNL     1      -4.526  12.584  20.175  0.00  0.00    +0.000 C 
ATOM      7  C   UNL     1      -5.465  12.822  21.357  0.00  0.00    +0.000 C 
ATOM      8  C   UNL     1      -4.958  13.879  22.315  0.00  0.00    +0.000 C 
ATOM      9  C   UNL     1      -5.781  14.858  22.726  0.00  0.00    +0.000 C 
ATOM     10  C   UNL     1      -5.372  15.840  23.760  0.00  0.00    +0.000 C 
ATOM     11  O   UNL     1      -6.132  16.752  24.064  0.00  0.00    +0.000 OA
ATOM     12  C   UNL     1      -4.065  15.605  24.471  0.00  0.00    +0.000 C 
ATOM     13  C   UNL     1      -3.035  15.048  23.498  0.00  0.00    +0.000 C 
ATOM     14  C   UNL     1      -3.501  13.747  22.778  0.00  0.00    +0.000 C 
ATOM     15  C   UNL     1      -3.410  12.573  23.785  0.00  0.00    +0.000 C 
ATOM     16  C   UNL     1      -2.596  13.518  21.510  0.00  0.00    +0.000 C 
ATOM     17  C   UNL     1      -1.081  13.468  21.832  0.00  0.00    +0.000 C 
ATOM     18  C   UNL     1      -0.197  13.059  20.647  0.00  0.00    +0.000 C 
ATOM     19  C   UNL     1      -0.686  11.755  19.995  0.00  0.00    +0.000 C 
ATOM     20  C   UNL     1      -0.620  10.581  21.006  0.00  0.00    +0.000 C 
ENDROOT
BRANCH   1  21
ATOM     21  C   UNL     1       1.346  10.571  18.755  0.00  0.00    +0.000 C 
ATOM     22  C   UNL     1       2.472  11.202  17.936  0.00  0.00    +0.000 C 
BRANCH  21  23
ATOM     23  O   UNL     1       1.127   9.229  18.258  0.00  0.00    +0.000 OA
BRANCH  23  24
ATOM     24  C   UNL     1       1.746   8.238  18.968  0.00  0.00    +0.000 C 
ATOM     25  O   UNL     1       1.849   8.204  20.190  0.00  0.00    +0.000 OA
BRANCH  24  26
ATOM     26  C   UNL     1       2.345   7.170  18.038  0.00  0.00    +0.000 C 
BRANCH  26  28
ATOM     27  C   UNL     1       3.849   5.425  19.130  0.00  0.00    +0.000 C 
ATOM     28  C   UNL     1       2.423   5.775  18.699  0.00  0.00    +0.000 C 
ATOM     29  C   UNL     1       1.866   4.640  17.831  0.00  0.00    +0.000 C 
ENDBRANCH  26  28
BRANCH  26  30
ATOM     30  N   UNL     1       3.699   7.605  17.593  0.00  0.00    +0.000 NA
ATOM     31  H   UNL     1       4.077   8.228  18.311  0.00  0.00    +0.000 HD
ATOM     32  H   UNL     1       3.589   8.213  16.780  0.00  0.00    +0.000 HD
ENDBRANCH  26  30
ENDBRANCH  24  26
ENDBRANCH  23  24
ENDBRANCH  21  23
ENDBRANCH   1  21
TORSDOF 6
ENDMDL
