MODEL 1
REMARK VINA RESULT:      -7.8      0.000      0.000
REMARK  Name = 
REMARK  4 active torsions:
REMARK  status: ('A' for Active; 'I' for Inactive)
REMARK    1  A    between atoms: C_2  and  C_11
REMARK    2  A    between atoms: N_3  and  C_4
REMARK    3  A    between atoms: C_4  and  C_5
REMARK    4  A    between atoms: C_14  and  C_15
REMARK                            x       y       z     vdW  Elec       q    Type
REMARK                         _______ _______ _______ _____ _____    ______ ____
ROOT
ATOM      1  C   UNL     1       0.595   9.574  20.638  0.00  0.00    +0.000 A 
ATOM      2  C   UNL     1       0.476   9.329  22.003  0.00  0.00    +0.000 A 
ATOM      3  C   UNL     1      -0.306  10.178  22.783  0.00  0.00    +0.000 A 
ATOM      4  C   UNL     1      -0.961  11.253  22.179  0.00  0.00    +0.000 A 
ATOM      5  N   UNL     1      -0.904  11.460  20.837  0.00  0.00    +0.000 NA
ATOM      6  C   UNL     1      -0.130  10.623  20.100  0.00  0.00    +0.000 A 
ENDROOT
BRANCH   4   7
ATOM      7  C   UNL     1      -1.716  12.246  22.962  0.00  0.00    +0.000 A 
ATOM      8  C   UNL     1      -1.163  13.500  23.286  0.00  0.00    +0.000 A 
ATOM      9  C   UNL     1      -1.862  14.423  24.066  0.00  0.00    +0.000 A 
ATOM     10  C   UNL     1      -3.139  14.113  24.532  0.00  0.00    +0.000 A 
ATOM     11  C   UNL     1      -3.718  12.894  24.199  0.00  0.00    +0.000 A 
ATOM     12  C   UNL     1      -3.016  11.972  23.419  0.00  0.00    +0.000 A 
ENDBRANCH   4   7
BRANCH   1  14
ATOM     13  O   UNL     1       1.671   8.987  18.650  0.00  0.00    +0.000 OA
ATOM     14  C   UNL     1       1.461   8.698  19.818  0.00  0.00    +0.000 C 
ATOM     15  N   UNL     1       1.956   7.563  20.434  0.00  0.00    +0.000 N 
ATOM     16  H   UNL     1       1.524   7.225  21.283  0.00  0.00    +0.000 HD
BRANCH  15  17
ATOM     17  C   UNL     1       2.750   6.622  19.668  0.00  0.00    +0.000 C 
BRANCH  17  18
ATOM     18  C   UNL     1       2.090   5.269  19.561  0.00  0.00    +0.000 A 
ATOM     19  C   UNL     1       1.569   4.639  20.700  0.00  0.00    +0.000 A 
ATOM     20  C   UNL     1       0.972   3.379  20.608  0.00  0.00    +0.000 A 
ATOM     21  C   UNL     1       0.876   2.739  19.374  0.00  0.00    +0.000 A 
ATOM     22  C   UNL     1       1.353   3.372  18.228  0.00  0.00    +0.000 A 
ATOM     23  C   UNL     1       1.950   4.633  18.318  0.00  0.00    +0.000 A 
ENDBRANCH  17  18
ENDBRANCH  15  17
ENDBRANCH   1  14
TORSDOF 4
ENDMDL
MODEL 2
REMARK VINA RESULT:      -7.7      7.010      9.682
REMARK  Name = 
REMARK  4 active torsions:
REMARK  status: ('A' for Active; 'I' for Inactive)
REMARK    1  A    between atoms: C_2  and  C_11
REMARK    2  A    between atoms: N_3  and  C_4
REMARK    3  A    between atoms: C_4  and  C_5
REMARK    4  A    between atoms: C_14  and  C_15
REMARK                            x       y       z     vdW  Elec       q    Type
REMARK                         _______ _______ _______ _____ _____    ______ ____
ROOT
ATOM      1  C   UNL     1       6.016   6.602  17.781  0.00  0.00    +0.000 A 
ATOM      2  C   UNL     1       4.774   6.802  17.183  0.00  0.00    +0.000 A 
ATOM      3  C   UNL     1       3.674   6.080  17.637  0.00  0.00    +0.000 A 
ATOM      4  C   UNL     1       3.834   5.175  18.689  0.00  0.00    +0.000 A 
ATOM      5  N   UNL     1       5.028   5.022  19.322  0.00  0.00    +0.000 NA
ATOM      6  C   UNL     1       6.086   5.733  18.856  0.00  0.00    +0.000 A 
ENDROOT
BRANCH   4   7
ATOM      7  C   UNL     1       2.737   4.305  19.145  0.00  0.00    +0.000 A 
ATOM      8  C   UNL     1       1.990   3.528  18.239  0.00  0.00    +0.000 A 
ATOM      9  C   UNL     1       0.922   2.738  18.668  0.00  0.00    +0.000 A 
ATOM     10  C   UNL     1       0.582   2.702  20.020  0.00  0.00    +0.000 A 
ATOM     11  C   UNL     1       1.324   3.438  20.937  0.00  0.00    +0.000 A 
ATOM     12  C   UNL     1       2.393   4.227  20.505  0.00  0.00    +0.000 A 
ENDBRANCH   4   7
BRANCH   1  14
ATOM     13  O   UNL     1       7.874   6.838  16.387  0.00  0.00    +0.000 OA
ATOM     14  C   UNL     1       7.192   7.337  17.269  0.00  0.00    +0.000 C 
ATOM     15  N   UNL     1       7.472   8.554  17.864  0.00  0.00    +0.000 N 
ATOM     16  H   UNL     1       7.066   8.776  18.762  0.00  0.00    +0.000 HD
BRANCH  15  17
ATOM     17  C   UNL     1       8.653   9.293  17.462  0.00  0.00    +0.000 C 
BRANCH  17  18
ATOM     18  C   UNL     1       8.939  10.457  18.379  0.00  0.00    +0.000 A 
ATOM     19  C   UNL     1       9.361  10.237  19.698  0.00  0.00    +0.000 A 
ATOM     20  C   UNL     1       9.611  11.312  20.556  0.00  0.00    +0.000 A 
ATOM     21  C   UNL     1       9.455  12.620  20.101  0.00  0.00    +0.000 A 
ATOM     22  C   UNL     1       9.075  12.852  18.781  0.00  0.00    +0.000 A 
ATOM     23  C   UNL     1       8.826  11.779  17.921  0.00  0.00    +0.000 A 
ENDBRANCH  17  18
ENDBRANCH  15  17
ENDBRANCH   1  14
TORSDOF 4
ENDMDL
MODEL 3
REMARK VINA RESULT:      -7.7      6.867      9.702
REMARK  Name = 
REMARK  4 active torsions:
REMARK  status: ('A' for Active; 'I' for Inactive)
REMARK    1  A    between atoms: C_2  and  C_11
REMARK    2  A    between atoms: N_3  and  C_4
REMARK    3  A    between atoms: C_4  and  C_5
REMARK    4  A    between atoms: C_14  and  C_15
REMARK                            x       y       z     vdW  Elec       q    Type
REMARK                         _______ _______ _______ _____ _____    ______ ____
ROOT
ATOM      1  C   UNL     1       6.057   6.623  17.761  0.00  0.00    +0.000 A 
ATOM      2  C   UNL     1       4.817   6.893  17.189  0.00  0.00    +0.000 A 
ATOM      3  C   UNL     1       3.699   6.184  17.617  0.00  0.00    +0.000 A 
ATOM      4  C   UNL     1       3.840   5.221  18.619  0.00  0.00    +0.000 A 
ATOM      5  N   UNL     1       5.034   4.997  19.230  0.00  0.00    +0.000 NA
ATOM      6  C   UNL     1       6.110   5.697  18.789  0.00  0.00    +0.000 A 
ENDROOT
BRANCH   4   7
ATOM      7  C   UNL     1       2.720   4.364  19.042  0.00  0.00    +0.000 A 
ATOM      8  C   UNL     1       2.158   4.470  20.329  0.00  0.00    +0.000 A 
ATOM      9  C   UNL     1       1.126   3.627  20.743  0.00  0.00    +0.000 A 
ATOM     10  C   UNL     1       0.625   2.660  19.871  0.00  0.00    +0.000 A 
ATOM     11  C   UNL     1       1.143   2.557  18.585  0.00  0.00    +0.000 A 
ATOM     12  C   UNL     1       2.176   3.402  18.173  0.00  0.00    +0.000 A 
ENDBRANCH   4   7
BRANCH   1  14
ATOM     13  O   UNL     1       7.931   6.853  16.388  0.00  0.00    +0.000 OA
ATOM     14  C   UNL     1       7.252   7.346  17.275  0.00  0.00    +0.000 C 
ATOM     15  N   UNL     1       7.550   8.545  17.898  0.00  0.00    +0.000 N 
ATOM     16  H   UNL     1       7.141   8.755  18.798  0.00  0.00    +0.000 HD
BRANCH  15  17
ATOM     17  C   UNL     1       8.748   9.269  17.522  0.00  0.00    +0.000 C 
BRANCH  17  18
ATOM     18  C   UNL     1       8.988  10.474  18.399  0.00  0.00    +0.000 A 
ATOM     19  C   UNL     1       9.468  10.318  19.707  0.00  0.00    +0.000 A 
ATOM     20  C   UNL     1       9.676  11.429  20.528  0.00  0.00    +0.000 A 
ATOM     21  C   UNL     1       9.418  12.711  20.048  0.00  0.00    +0.000 A 
ATOM     22  C   UNL     1       8.979  12.883  18.737  0.00  0.00    +0.000 A 
ATOM     23  C   UNL     1       8.772  11.773  17.913  0.00  0.00    +0.000 A 
ENDBRANCH  17  18
ENDBRANCH  15  17
ENDBRANCH   1  14
TORSDOF 4
ENDMDL
MODEL 4
REMARK VINA RESULT:      -7.7      0.269      1.061
REMARK  Name = 
REMARK  4 active torsions:
REMARK  status: ('A' for Active; 'I' for Inactive)
REMARK    1  A    between atoms: C_2  and  C_11
REMARK    2  A    between atoms: N_3  and  C_4
REMARK    3  A    between atoms: C_4  and  C_5
REMARK    4  A    between atoms: C_14  and  C_15
REMARK                            x       y       z     vdW  Elec       q    Type
REMARK                         _______ _______ _______ _____ _____    ______ ____
ROOT
ATOM      1  C   UNL     1       0.718   9.433  20.585  0.00  0.00    +0.000 A 
ATOM      2  C   UNL     1       0.235   9.007  21.819  0.00  0.00    +0.000 A 
ATOM      3  C   UNL     1      -0.541   9.873  22.584  0.00  0.00    +0.000 A 
ATOM      4  C   UNL     1      -0.827  11.149  22.096  0.00  0.00    +0.000 A 
ATOM      5  N   UNL     1      -0.416  11.550  20.863  0.00  0.00    +0.000 NA
ATOM      6  C   UNL     1       0.345  10.689  20.140  0.00  0.00    +0.000 A 
ENDROOT
BRANCH   4   7
ATOM      7  C   UNL     1      -1.552  12.149  22.899  0.00  0.00    +0.000 A 
ATOM      8  C   UNL     1      -2.839  11.890  23.407  0.00  0.00    +0.000 A 
ATOM      9  C   UNL     1      -3.542  12.855  24.131  0.00  0.00    +0.000 A 
ATOM     10  C   UNL     1      -2.966  14.102  24.370  0.00  0.00    +0.000 A 
ATOM     11  C   UNL     1      -1.683  14.370  23.904  0.00  0.00    +0.000 A 
ATOM     12  C   UNL     1      -0.982  13.402  23.180  0.00  0.00    +0.000 A 
ENDBRANCH   4   7
BRANCH   1  14
ATOM     13  O   UNL     1       1.786   8.776  18.615  0.00  0.00    +0.000 OA
ATOM     14  C   UNL     1       1.578   8.528  19.793  0.00  0.00    +0.000 C 
ATOM     15  N   UNL     1       2.073   7.412  20.444  0.00  0.00    +0.000 N 
ATOM     16  H   UNL     1       1.642   7.104  21.305  0.00  0.00    +0.000 HD
BRANCH  15  17
ATOM     17  C   UNL     1       2.862   6.444  19.708  0.00  0.00    +0.000 C 
BRANCH  17  18
ATOM     18  C   UNL     1       2.144   5.127  19.542  0.00  0.00    +0.000 A 
ATOM     19  C   UNL     1       1.476   4.539  20.627  0.00  0.00    +0.000 A 
ATOM     20  C   UNL     1       0.825   3.312  20.482  0.00  0.00    +0.000 A 
ATOM     21  C   UNL     1       0.822   2.663  19.250  0.00  0.00    +0.000 A 
ATOM     22  C   UNL     1       1.447   3.255  18.155  0.00  0.00    +0.000 A 
ATOM     23  C   UNL     1       2.098   4.483  18.296  0.00  0.00    +0.000 A 
ENDBRANCH  17  18
ENDBRANCH  15  17
ENDBRANCH   1  14
TORSDOF 4
ENDMDL
MODEL 5
REMARK VINA RESULT:      -7.7      6.869      9.765
REMARK  Name = 
REMARK  4 active torsions:
REMARK  status: ('A' for Active; 'I' for Inactive)
REMARK    1  A    between atoms: C_2  and  C_11
REMARK    2  A    between atoms: N_3  and  C_4
REMARK    3  A    between atoms: C_4  and  C_5
REMARK    4  A    between atoms: C_14  and  C_15
REMARK                            x       y       z     vdW  Elec       q    Type
REMARK                         _______ _______ _______ _____ _____    ______ ____
ROOT
ATOM      1  C   UNL     1       6.059   6.599  17.753  0.00  0.00    +0.000 A 
ATOM      2  C   UNL     1       4.786   6.937  17.300  0.00  0.00    +0.000 A 
ATOM      3  C   UNL     1       3.688   6.205  17.741  0.00  0.00    +0.000 A 
ATOM      4  C   UNL     1       3.882   5.151  18.637  0.00  0.00    +0.000 A 
ATOM      5  N   UNL     1       5.112   4.856  19.136  0.00  0.00    +0.000 NA
ATOM      6  C   UNL     1       6.167   5.581  18.684  0.00  0.00    +0.000 A 
ENDROOT
BRANCH   4   7
ATOM      7  C   UNL     1       2.778   4.273  19.059  0.00  0.00    +0.000 A 
ATOM      8  C   UNL     1       2.349   3.196  18.260  0.00  0.00    +0.000 A 
ATOM      9  C   UNL     1       1.273   2.391  18.642  0.00  0.00    +0.000 A 
ATOM     10  C   UNL     1       0.607   2.643  19.841  0.00  0.00    +0.000 A 
ATOM     11  C   UNL     1       1.033   3.682  20.661  0.00  0.00    +0.000 A 
ATOM     12  C   UNL     1       2.109   4.485  20.277  0.00  0.00    +0.000 A 
ENDBRANCH   4   7
BRANCH   1  14
ATOM     13  O   UNL     1       7.934   6.851  16.384  0.00  0.00    +0.000 OA
ATOM     14  C   UNL     1       7.229   7.349  17.249  0.00  0.00    +0.000 C 
ATOM     15  N   UNL     1       7.477   8.579  17.832  0.00  0.00    +0.000 N 
ATOM     16  H   UNL     1       7.054   8.805  18.721  0.00  0.00    +0.000 HD
BRANCH  15  17
ATOM     17  C   UNL     1       8.650   9.335  17.438  0.00  0.00    +0.000 C 
BRANCH  17  18
ATOM     18  C   UNL     1       8.942  10.473  18.385  0.00  0.00    +0.000 A 
ATOM     19  C   UNL     1       8.816  11.804  17.958  0.00  0.00    +0.000 A 
ATOM     20  C   UNL     1       9.102  12.861  18.825  0.00  0.00    +0.000 A 
ATOM     21  C   UNL     1       9.504  12.602  20.134  0.00  0.00    +0.000 A 
ATOM     22  C   UNL     1       9.595  11.286  20.582  0.00  0.00    +0.000 A 
ATOM     23  C   UNL     1       9.308  10.227  19.717  0.00  0.00    +0.000 A 
ENDBRANCH  17  18
ENDBRANCH  15  17
ENDBRANCH   1  14
TORSDOF 4
ENDMDL
MODEL 6
REMARK VINA RESULT:      -7.7      7.625      8.946
REMARK  Name = 
REMARK  4 active torsions:
REMARK  status: ('A' for Active; 'I' for Inactive)
REMARK    1  A    between atoms: C_2  and  C_11
REMARK    2  A    between atoms: N_3  and  C_4
REMARK    3  A    between atoms: C_4  and  C_5
REMARK    4  A    between atoms: C_14  and  C_15
REMARK                            x       y       z     vdW  Elec       q    Type
REMARK                         _______ _______ _______ _____ _____    ______ ____
ROOT
ATOM      1  C   UNL     1       7.292   6.516  17.583  0.00  0.00    +0.000 A 
ATOM      2  C   UNL     1       8.040   6.493  18.758  0.00  0.00    +0.000 A 
ATOM      3  C   UNL     1       8.628   7.669  19.215  0.00  0.00    +0.000 A 
ATOM      4  C   UNL     1       8.450   8.851  18.492  0.00  0.00    +0.000 A 
ATOM      5  N   UNL     1       7.668   8.896  17.381  0.00  0.00    +0.000 NA
ATOM      6  C   UNL     1       7.111   7.735  16.953  0.00  0.00    +0.000 A 
ENDROOT
BRANCH   4   7
ATOM      7  C   UNL     1       9.131  10.103  18.863  0.00  0.00    +0.000 A 
ATOM      8  C   UNL     1       9.610  10.996  17.886  0.00  0.00    +0.000 A 
ATOM      9  C   UNL     1      10.294  12.161  18.239  0.00  0.00    +0.000 A 
ATOM     10  C   UNL     1      10.506  12.462  19.584  0.00  0.00    +0.000 A 
ATOM     11  C   UNL     1      10.015  11.611  20.567  0.00  0.00    +0.000 A 
ATOM     12  C   UNL     1       9.331  10.446  20.211  0.00  0.00    +0.000 A 
ENDBRANCH   4   7
BRANCH   1  14
ATOM     13  O   UNL     1       7.440   4.385  16.640  0.00  0.00    +0.000 OA
ATOM     14  C   UNL     1       6.705   5.258  17.075  0.00  0.00    +0.000 C 
ATOM     15  N   UNL     1       5.324   5.166  17.090  0.00  0.00    +0.000 N 
ATOM     16  H   UNL     1       4.769   6.005  17.179  0.00  0.00    +0.000 HD
BRANCH  15  17
ATOM     17  C   UNL     1       4.678   3.991  16.538  0.00  0.00    +0.000 C 
BRANCH  17  18
ATOM     18  C   UNL     1       3.525   3.519  17.388  0.00  0.00    +0.000 A 
ATOM     19  C   UNL     1       2.406   4.341  17.590  0.00  0.00    +0.000 A 
ATOM     20  C   UNL     1       1.343   3.915  18.390  0.00  0.00    +0.000 A 
ATOM     21  C   UNL     1       1.379   2.657  18.988  0.00  0.00    +0.000 A 
ATOM     22  C   UNL     1       2.465   1.814  18.763  0.00  0.00    +0.000 A 
ATOM     23  C   UNL     1       3.529   2.238  17.962  0.00  0.00    +0.000 A 
ENDBRANCH  17  18
ENDBRANCH  15  17
ENDBRANCH   1  14
TORSDOF 4
ENDMDL
MODEL 7
REMARK VINA RESULT:      -7.6      7.574      8.942
REMARK  Name = 
REMARK  4 active torsions:
REMARK  status: ('A' for Active; 'I' for Inactive)
REMARK    1  A    between atoms: C_2  and  C_11
REMARK    2  A    between atoms: N_3  and  C_4
REMARK    3  A    between atoms: C_4  and  C_5
REMARK    4  A    between atoms: C_14  and  C_15
REMARK                            x       y       z     vdW  Elec       q    Type
REMARK                         _______ _______ _______ _____ _____    ______ ____
ROOT
ATOM      1  C   UNL     1       7.275   6.555  17.594  0.00  0.00    +0.000 A 
ATOM      2  C   UNL     1       8.038   6.530  18.758  0.00  0.00    +0.000 A 
ATOM      3  C   UNL     1       8.636   7.704  19.208  0.00  0.00    +0.000 A 
ATOM      4  C   UNL     1       8.452   8.886  18.487  0.00  0.00    +0.000 A 
ATOM      5  N   UNL     1       7.655   8.934  17.387  0.00  0.00    +0.000 NA
ATOM      6  C   UNL     1       7.089   7.775  16.966  0.00  0.00    +0.000 A 
ENDROOT
BRANCH   4   7
ATOM      7  C   UNL     1       9.142  10.136  18.849  0.00  0.00    +0.000 A 
ATOM      8  C   UNL     1       9.606  11.030  17.865  0.00  0.00    +0.000 A 
ATOM      9  C   UNL     1      10.299  12.193  18.209  0.00  0.00    +0.000 A 
ATOM     10  C   UNL     1      10.535  12.491  19.551  0.00  0.00    +0.000 A 
ATOM     11  C   UNL     1      10.059  11.638  20.541  0.00  0.00    +0.000 A 
ATOM     12  C   UNL     1       9.366  10.476  20.194  0.00  0.00    +0.000 A 
ENDBRANCH   4   7
BRANCH   1  14
ATOM     13  O   UNL     1       7.406   4.394  16.721  0.00  0.00    +0.000 OA
ATOM     14  C   UNL     1       6.676   5.299  17.093  0.00  0.00    +0.000 C 
ATOM     15  N   UNL     1       5.294   5.246  17.043  0.00  0.00    +0.000 N 
ATOM     16  H   UNL     1       4.760   6.102  17.079  0.00  0.00    +0.000 HD
BRANCH  15  17
ATOM     17  C   UNL     1       4.643   4.073  16.493  0.00  0.00    +0.000 C 
BRANCH  17  18
ATOM     18  C   UNL     1       3.522   3.576  17.373  0.00  0.00    +0.000 A 
ATOM     19  C   UNL     1       3.551   2.275  17.896  0.00  0.00    +0.000 A 
ATOM     20  C   UNL     1       2.508   1.804  18.697  0.00  0.00    +0.000 A 
ATOM     21  C   UNL     1       1.428   2.633  18.996  0.00  0.00    +0.000 A 
ATOM     22  C   UNL     1       1.406   3.940  18.516  0.00  0.00    +0.000 A 
ATOM     23  C   UNL     1       2.449   4.414  17.716  0.00  0.00    +0.000 A 
ENDBRANCH  17  18
ENDBRANCH  15  17
ENDBRANCH   1  14
TORSDOF 4
ENDMDL
MODEL 8
REMARK VINA RESULT:      -7.6      7.294      8.929
REMARK  Name = 
REMARK  4 active torsions:
REMARK  status: ('A' for Active; 'I' for Inactive)
REMARK    1  A    between atoms: C_2  and  C_11
REMARK    2  A    between atoms: N_3  and  C_4
REMARK    3  A    between atoms: C_4  and  C_5
REMARK    4  A    between atoms: C_14  and  C_15
REMARK                            x       y       z     vdW  Elec       q    Type
REMARK                         _______ _______ _______ _____ _____    ______ ____
ROOT
ATOM      1  C   UNL     1       7.123   6.374  17.988  0.00  0.00    +0.000 A 
ATOM      2  C   UNL     1       6.835   7.470  17.178  0.00  0.00    +0.000 A 
ATOM      3  C   UNL     1       7.486   8.678  17.408  0.00  0.00    +0.000 A 
ATOM      4  C   UNL     1       8.422   8.767  18.441  0.00  0.00    +0.000 A 
ATOM      5  N   UNL     1       8.758   7.685  19.193  0.00  0.00    +0.000 NA
ATOM      6  C   UNL     1       8.104   6.521  18.953  0.00  0.00    +0.000 A 
ENDROOT
BRANCH   4   7
ATOM      7  C   UNL     1       9.067  10.040  18.803  0.00  0.00    +0.000 A 
ATOM      8  C   UNL     1       9.475  10.963  17.821  0.00  0.00    +0.000 A 
ATOM      9  C   UNL     1      10.126  12.150  18.165  0.00  0.00    +0.000 A 
ATOM     10  C   UNL     1      10.376  12.443  19.505  0.00  0.00    +0.000 A 
ATOM     11  C   UNL     1       9.955  11.561  20.494  0.00  0.00    +0.000 A 
ATOM     12  C   UNL     1       9.304  10.375  20.147  0.00  0.00    +0.000 A 
ENDBRANCH   4   7
BRANCH   1  14
ATOM     13  O   UNL     1       6.675   4.131  18.456  0.00  0.00    +0.000 OA
ATOM     14  C   UNL     1       6.399   5.103  17.771  0.00  0.00    +0.000 C 
ATOM     15  N   UNL     1       5.459   5.089  16.756  0.00  0.00    +0.000 N 
ATOM     16  H   UNL     1       5.479   5.808  16.046  0.00  0.00    +0.000 HD
BRANCH  15  17
ATOM     17  C   UNL     1       4.764   3.856  16.440  0.00  0.00    +0.000 C 
BRANCH  17  18
ATOM     18  C   UNL     1       3.541   3.652  17.299  0.00  0.00    +0.000 A 
ATOM     19  C   UNL     1       3.191   2.369  17.746  0.00  0.00    +0.000 A 
ATOM     20  C   UNL     1       2.049   2.173  18.527  0.00  0.00    +0.000 A 
ATOM     21  C   UNL     1       1.250   3.257  18.882  0.00  0.00    +0.000 A 
ATOM     22  C   UNL     1       1.608   4.542  18.478  0.00  0.00    +0.000 A 
ATOM     23  C   UNL     1       2.750   4.741  17.698  0.00  0.00    +0.000 A 
ENDBRANCH  17  18
ENDBRANCH  15  17
ENDBRANCH   1  14
TORSDOF 4
ENDMDL
MODEL 9
REMARK VINA RESULT:      -7.5      6.881      9.635
REMARK  Name = 
REMARK  4 active torsions:
REMARK  status: ('A' for Active; 'I' for Inactive)
REMARK    1  A    between atoms: C_2  and  C_11
REMARK    2  A    between atoms: N_3  and  C_4
REMARK    3  A    between atoms: C_4  and  C_5
REMARK    4  A    between atoms: C_14  and  C_15
REMARK                            x       y       z     vdW  Elec       q    Type
REMARK                         _______ _______ _______ _____ _____    ______ ____
ROOT
ATOM      1  C   UNL     1       6.212   6.496  17.646  0.00  0.00    +0.000 A 
ATOM      2  C   UNL     1       6.384   5.663  18.749  0.00  0.00    +0.000 A 
ATOM      3  C   UNL     1       5.303   4.924  19.221  0.00  0.00    +0.000 A 
ATOM      4  C   UNL     1       4.069   5.025  18.575  0.00  0.00    +0.000 A 
ATOM      5  N   UNL     1       3.909   5.784  17.459  0.00  0.00    +0.000 NA
ATOM      6  C   UNL     1       4.976   6.499  17.022  0.00  0.00    +0.000 A 
ENDROOT
BRANCH   4   7
ATOM      7  C   UNL     1       2.863   4.353  19.087  0.00  0.00    +0.000 A 
ATOM      8  C   UNL     1       2.468   4.477  20.433  0.00  0.00    +0.000 A 
ATOM      9  C   UNL     1       1.349   3.804  20.927  0.00  0.00    +0.000 A 
ATOM     10  C   UNL     1       0.593   2.996  20.079  0.00  0.00    +0.000 A 
ATOM     11  C   UNL     1       0.946   2.883  18.739  0.00  0.00    +0.000 A 
ATOM     12  C   UNL     1       2.066   3.557  18.247  0.00  0.00    +0.000 A 
ENDBRANCH   4   7
BRANCH   1  14
ATOM     13  O   UNL     1       8.059   6.889  16.273  0.00  0.00    +0.000 OA
ATOM     14  C   UNL     1       7.349   7.313  17.171  0.00  0.00    +0.000 C 
ATOM     15  N   UNL     1       7.561   8.518  17.819  0.00  0.00    +0.000 N 
ATOM     16  H   UNL     1       7.141   8.679  18.723  0.00  0.00    +0.000 HD
BRANCH  15  17
ATOM     17  C   UNL     1       8.701   9.335  17.455  0.00  0.00    +0.000 C 
BRANCH  17  18
ATOM     18  C   UNL     1       8.929  10.466  18.427  0.00  0.00    +0.000 A 
ATOM     19  C   UNL     1       9.273  10.200  19.761  0.00  0.00    +0.000 A 
ATOM     20  C   UNL     1       9.468  11.243  20.669  0.00  0.00    +0.000 A 
ATOM     21  C   UNL     1       9.334  12.566  20.253  0.00  0.00    +0.000 A 
ATOM     22  C   UNL     1       9.033  12.846  18.922  0.00  0.00    +0.000 A 
ATOM     23  C   UNL     1       8.839  11.804  18.011  0.00  0.00    +0.000 A 
ENDBRANCH  17  18
ENDBRANCH  15  17
ENDBRANCH   1  14
TORSDOF 4
ENDMDL
