MODEL 1
REMARK VINA RESULT:      -7.1      0.000      0.000
REMARK  Name = 
REMARK  1 active torsions:
REMARK  status: ('A' for Active; 'I' for Inactive)
REMARK    1  A    between atoms: C_13  and  C_14
REMARK                            x       y       z     vdW  Elec       q    Type
REMARK                         _______ _______ _______ _____ _____    ______ ____
ROOT
ATOM      1  O   UNL     1      -4.592  13.526  19.669  0.00  0.00    +0.000 OA
ATOM      2  C   UNL     1      -3.971  13.083  20.604  0.00  0.00    +0.000 C 
ATOM      3  C   UNL     1      -2.558  12.618  20.609  0.00  0.00    +0.000 C 
ATOM      4  C   UNL     1      -2.236  12.263  21.869  0.00  0.00    +0.000 C 
ATOM      5  N   UNL     1      -1.066  11.759  22.388  0.00  0.00    +0.000 N 
ATOM      6  C   UNL     1      -0.263  10.833  21.678  0.00  0.00    +0.000 A 
ATOM      7  C   UNL     1      -0.153   9.526  22.186  0.00  0.00    +0.000 A 
ATOM      8  C   UNL     1       0.531   8.533  21.485  0.00  0.00    +0.000 A 
ATOM      9  C   UNL     1       1.142   8.838  20.272  0.00  0.00    +0.000 A 
ATOM     10  C   UNL     1       1.038  10.127  19.747  0.00  0.00    +0.000 A 
ATOM     11  C   UNL     1       0.299  11.115  20.417  0.00  0.00    +0.000 A 
ATOM     12  S   UNL     1       0.056  12.687  19.597  0.00  0.00    +0.000 S 
ATOM     13  C   UNL     1      -1.783  12.653  19.338  0.00  0.00    +0.000 C 
ATOM     14  C   UNL     1      -3.408  12.452  22.730  0.00  0.00    +0.000 A 
ATOM     15  C   UNL     1      -3.607  12.206  24.081  0.00  0.00    +0.000 A 
ATOM     16  C   UNL     1      -4.876  12.443  24.628  0.00  0.00    +0.000 A 
ATOM     17  C   UNL     1      -5.930  12.919  23.828  0.00  0.00    +0.000 A 
ATOM     18  C   UNL     1      -5.728  13.172  22.472  0.00  0.00    +0.000 A 
ATOM     19  C   UNL     1      -4.464  12.927  21.966  0.00  0.00    +0.000 A 
ATOM     20  H   UNL     1      -1.095  11.562  23.381  0.00  0.00    +0.000 HD
ENDROOT
BRANCH  13  21
ATOM     21  C   UNL     1      -2.180  11.588  18.319  0.00  0.00    +0.000 A 
ATOM     22  C   UNL     1      -2.004  11.778  16.937  0.00  0.00    +0.000 A 
ATOM     23  C   UNL     1      -2.555  10.890  16.014  0.00  0.00    +0.000 A 
ATOM     24  C   UNL     1      -3.220   9.752  16.456  0.00  0.00    +0.000 A 
ATOM     25  C   UNL     1      -3.307   9.489  17.822  0.00  0.00    +0.000 A 
ATOM     26  C   UNL     1      -2.803  10.404  18.747  0.00  0.00    +0.000 A 
ENDBRANCH  13  21
TORSDOF 1
ENDMDL
MODEL 2
REMARK VINA RESULT:      -6.7     10.240     12.601
REMARK  Name = 
REMARK  1 active torsions:
REMARK  status: ('A' for Active; 'I' for Inactive)
REMARK    1  A    between atoms: C_13  and  C_14
REMARK                            x       y       z     vdW  Elec       q    Type
REMARK                         _______ _______ _______ _____ _____    ______ ____
ROOT
ATOM      1  O   UNL     1       7.300  13.229  17.111  0.00  0.00    +0.000 OA
ATOM      2  C   UNL     1       7.288  14.301  17.664  0.00  0.00    +0.000 C 
ATOM      3  C   UNL     1       8.454  15.173  17.969  0.00  0.00    +0.000 C 
ATOM      4  C   UNL     1       7.995  16.307  18.534  0.00  0.00    +0.000 C 
ATOM      5  N   UNL     1       8.667  17.410  19.006  0.00  0.00    +0.000 N 
ATOM      6  C   UNL     1       9.909  17.306  19.680  0.00  0.00    +0.000 A 
ATOM      7  C   UNL     1       9.953  17.649  21.043  0.00  0.00    +0.000 A 
ATOM      8  C   UNL     1      11.113  17.469  21.797  0.00  0.00    +0.000 A 
ATOM      9  C   UNL     1      12.261  16.966  21.192  0.00  0.00    +0.000 A 
ATOM     10  C   UNL     1      12.236  16.612  19.842  0.00  0.00    +0.000 A 
ATOM     11  C   UNL     1      11.055  16.733  19.092  0.00  0.00    +0.000 A 
ATOM     12  S   UNL     1      11.046  16.090  17.422  0.00  0.00    +0.000 S 
ATOM     13  C   UNL     1       9.819  14.708  17.597  0.00  0.00    +0.000 C 
ATOM     14  C   UNL     1       6.535  16.225  18.648  0.00  0.00    +0.000 A 
ATOM     15  C   UNL     1       5.602  17.103  19.179  0.00  0.00    +0.000 A 
ATOM     16  C   UNL     1       4.252  16.724  19.193  0.00  0.00    +0.000 A 
ATOM     17  C   UNL     1       3.847  15.479  18.680  0.00  0.00    +0.000 A 
ATOM     18  C   UNL     1       4.784  14.599  18.140  0.00  0.00    +0.000 A 
ATOM     19  C   UNL     1       6.106  15.006  18.142  0.00  0.00    +0.000 A 
ATOM     20  H   UNL     1       8.074  18.130  19.401  0.00  0.00    +0.000 HD
ENDROOT
BRANCH  13  21
ATOM     21  C   UNL     1      10.370  13.583  18.471  0.00  0.00    +0.000 A 
ATOM     22  C   UNL     1      10.062  13.484  19.839  0.00  0.00    +0.000 A 
ATOM     23  C   UNL     1      10.731  12.578  20.662  0.00  0.00    +0.000 A 
ATOM     24  C   UNL     1      11.660  11.699  20.117  0.00  0.00    +0.000 A 
ATOM     25  C   UNL     1      11.896  11.707  18.744  0.00  0.00    +0.000 A 
ATOM     26  C   UNL     1      11.266  12.648  17.927  0.00  0.00    +0.000 A 
ENDBRANCH  13  21
TORSDOF 1
ENDMDL
MODEL 3
REMARK VINA RESULT:      -6.5      2.414      6.674
REMARK  Name = 
REMARK  1 active torsions:
REMARK  status: ('A' for Active; 'I' for Inactive)
REMARK    1  A    between atoms: C_13  and  C_14
REMARK                            x       y       z     vdW  Elec       q    Type
REMARK                         _______ _______ _______ _____ _____    ______ ____
ROOT
ATOM      1  O   UNL     1      -0.455  13.270  21.009  0.00  0.00    +0.000 OA
ATOM      2  C   UNL     1      -1.328  12.786  20.331  0.00  0.00    +0.000 C 
ATOM      3  C   UNL     1      -2.762  13.178  20.292  0.00  0.00    +0.000 C 
ATOM      4  C   UNL     1      -3.378  12.433  19.354  0.00  0.00    +0.000 C 
ATOM      5  N   UNL     1      -4.692  12.404  18.950  0.00  0.00    +0.000 N 
ATOM      6  C   UNL     1      -5.766  12.552  19.863  0.00  0.00    +0.000 A 
ATOM      7  C   UNL     1      -6.607  11.446  20.080  0.00  0.00    +0.000 A 
ATOM      8  C   UNL     1      -7.617  11.483  21.043  0.00  0.00    +0.000 A 
ATOM      9  C   UNL     1      -7.819  12.641  21.788  0.00  0.00    +0.000 A 
ATOM     10  C   UNL     1      -6.989  13.746  21.594  0.00  0.00    +0.000 A 
ATOM     11  C   UNL     1      -5.933  13.694  20.671  0.00  0.00    +0.000 A 
ATOM     12  S   UNL     1      -4.800  15.079  20.607  0.00  0.00    +0.000 S 
ATOM     13  C   UNL     1      -3.237  14.265  21.193  0.00  0.00    +0.000 C 
ATOM     14  C   UNL     1      -2.400  11.515  18.759  0.00  0.00    +0.000 A 
ATOM     15  C   UNL     1      -2.531  10.533  17.788  0.00  0.00    +0.000 A 
ATOM     16  C   UNL     1      -1.407   9.766  17.452  0.00  0.00    +0.000 A 
ATOM     17  C   UNL     1      -0.169   9.982  18.082  0.00  0.00    +0.000 A 
ATOM     18  C   UNL     1      -0.037  10.974  19.054  0.00  0.00    +0.000 A 
ATOM     19  C   UNL     1      -1.165  11.711  19.361  0.00  0.00    +0.000 A 
ATOM     20  H   UNL     1      -4.896  11.730  18.222  0.00  0.00    +0.000 HD
ENDROOT
BRANCH  13  21
ATOM     21  C   UNL     1      -3.333  13.877  22.667  0.00  0.00    +0.000 A 
ATOM     22  C   UNL     1      -3.779  12.608  23.075  0.00  0.00    +0.000 A 
ATOM     23  C   UNL     1      -4.054  12.340  24.416  0.00  0.00    +0.000 A 
ATOM     24  C   UNL     1      -3.809  13.309  25.382  0.00  0.00    +0.000 A 
ATOM     25  C   UNL     1      -3.261  14.534  25.009  0.00  0.00    +0.000 A 
ATOM     26  C   UNL     1      -3.035  14.822  23.662  0.00  0.00    +0.000 A 
ENDBRANCH  13  21
TORSDOF 1
ENDMDL
MODEL 4
REMARK VINA RESULT:      -6.5      1.893      5.822
REMARK  Name = 
REMARK  1 active torsions:
REMARK  status: ('A' for Active; 'I' for Inactive)
REMARK    1  A    between atoms: C_13  and  C_14
REMARK                            x       y       z     vdW  Elec       q    Type
REMARK                         _______ _______ _______ _____ _____    ______ ____
ROOT
ATOM      1  O   UNL     1       0.177  10.064  18.073  0.00  0.00    +0.000 OA
ATOM      2  C   UNL     1      -0.852  10.683  18.188  0.00  0.00    +0.000 C 
ATOM      3  C   UNL     1      -1.183  11.700  19.222  0.00  0.00    +0.000 C 
ATOM      4  C   UNL     1      -2.407  12.195  18.951  0.00  0.00    +0.000 C 
ATOM      5  N   UNL     1      -3.161  13.137  19.610  0.00  0.00    +0.000 N 
ATOM      6  C   UNL     1      -3.187  13.228  21.024  0.00  0.00    +0.000 A 
ATOM      7  C   UNL     1      -4.389  12.918  21.685  0.00  0.00    +0.000 A 
ATOM      8  C   UNL     1      -4.459  12.880  23.078  0.00  0.00    +0.000 A 
ATOM      9  C   UNL     1      -3.331  13.179  23.836  0.00  0.00    +0.000 A 
ATOM     10  C   UNL     1      -2.126  13.481  23.200  0.00  0.00    +0.000 A 
ATOM     11  C   UNL     1      -2.033  13.460  21.799  0.00  0.00    +0.000 A 
ATOM     12  S   UNL     1      -0.418  13.676  21.058  0.00  0.00    +0.000 S 
ATOM     13  C   UNL     1      -0.178  12.009  20.277  0.00  0.00    +0.000 C 
ATOM     14  C   UNL     1      -2.939  11.521  17.761  0.00  0.00    +0.000 A 
ATOM     15  C   UNL     1      -4.153  11.641  17.100  0.00  0.00    +0.000 A 
ATOM     16  C   UNL     1      -4.403  10.812  15.998  0.00  0.00    +0.000 A 
ATOM     17  C   UNL     1      -3.447   9.876  15.566  0.00  0.00    +0.000 A 
ATOM     18  C   UNL     1      -2.225   9.759  16.227  0.00  0.00    +0.000 A 
ATOM     19  C   UNL     1      -2.011  10.593  17.310  0.00  0.00    +0.000 A 
ATOM     20  H   UNL     1      -4.067  13.319  19.196  0.00  0.00    +0.000 HD
ENDROOT
BRANCH  13  21
ATOM     21  C   UNL     1      -0.007  10.920  21.333  0.00  0.00    +0.000 A 
ATOM     22  C   UNL     1      -0.968  10.695  22.333  0.00  0.00    +0.000 A 
ATOM     23  C   UNL     1      -0.705   9.842  23.405  0.00  0.00    +0.000 A 
ATOM     24  C   UNL     1       0.491   9.135  23.452  0.00  0.00    +0.000 A 
ATOM     25  C   UNL     1       1.409   9.260  22.411  0.00  0.00    +0.000 A 
ATOM     26  C   UNL     1       1.170  10.153  21.365  0.00  0.00    +0.000 A 
ENDBRANCH  13  21
TORSDOF 1
ENDMDL
MODEL 5
REMARK VINA RESULT:      -6.5      2.366      4.998
REMARK  Name = 
REMARK  1 active torsions:
REMARK  status: ('A' for Active; 'I' for Inactive)
REMARK    1  A    between atoms: C_13  and  C_14
REMARK                            x       y       z     vdW  Elec       q    Type
REMARK                         _______ _______ _______ _____ _____    ______ ____
ROOT
ATOM      1  O   UNL     1      -2.413  10.790  18.499  0.00  0.00    +0.000 OA
ATOM      2  C   UNL     1      -3.113  11.603  19.052  0.00  0.00    +0.000 C 
ATOM      3  C   UNL     1      -2.680  12.700  19.957  0.00  0.00    +0.000 C 
ATOM      4  C   UNL     1      -3.768  13.416  20.304  0.00  0.00    +0.000 C 
ATOM      5  N   UNL     1      -3.899  14.509  21.127  0.00  0.00    +0.000 N 
ATOM      6  C   UNL     1      -3.144  14.652  22.318  0.00  0.00    +0.000 A 
ATOM      7  C   UNL     1      -3.829  14.608  23.545  0.00  0.00    +0.000 A 
ATOM      8  C   UNL     1      -3.141  14.633  24.759  0.00  0.00    +0.000 A 
ATOM      9  C   UNL     1      -1.753  14.731  24.765  0.00  0.00    +0.000 A 
ATOM     10  C   UNL     1      -1.053  14.768  23.558  0.00  0.00    +0.000 A 
ATOM     11  C   UNL     1      -1.735  14.681  22.333  0.00  0.00    +0.000 A 
ATOM     12  S   UNL     1      -0.764  14.550  20.835  0.00  0.00    +0.000 S 
ATOM     13  C   UNL     1      -1.232  12.842  20.277  0.00  0.00    +0.000 C 
ATOM     14  C   UNL     1      -4.950  12.818  19.673  0.00  0.00    +0.000 A 
ATOM     15  C   UNL     1      -6.295  13.151  19.737  0.00  0.00    +0.000 A 
ATOM     16  C   UNL     1      -7.220  12.349  19.053  0.00  0.00    +0.000 A 
ATOM     17  C   UNL     1      -6.798  11.229  18.315  0.00  0.00    +0.000 A 
ATOM     18  C   UNL     1      -5.445  10.898  18.246  0.00  0.00    +0.000 A 
ATOM     19  C   UNL     1      -4.561  11.711  18.933  0.00  0.00    +0.000 A 
ATOM     20  H   UNL     1      -4.847  14.851  21.229  0.00  0.00    +0.000 HD
ENDROOT
BRANCH  13  21
ATOM     21  C   UNL     1      -0.680  11.778  21.222  0.00  0.00    +0.000 A 
ATOM     22  C   UNL     1       0.491  11.058  20.930  0.00  0.00    +0.000 A 
ATOM     23  C   UNL     1       0.868   9.956  21.698  0.00  0.00    +0.000 A 
ATOM     24  C   UNL     1       0.126   9.606  22.821  0.00  0.00    +0.000 A 
ATOM     25  C   UNL     1      -0.974  10.377  23.190  0.00  0.00    +0.000 A 
ATOM     26  C   UNL     1      -1.382  11.448  22.393  0.00  0.00    +0.000 A 
ENDBRANCH  13  21
TORSDOF 1
ENDMDL
MODEL 6
REMARK VINA RESULT:      -6.4     10.106     11.355
REMARK  Name = 
REMARK  1 active torsions:
REMARK  status: ('A' for Active; 'I' for Inactive)
REMARK    1  A    between atoms: C_13  and  C_14
REMARK                            x       y       z     vdW  Elec       q    Type
REMARK                         _______ _______ _______ _____ _____    ______ ____
ROOT
ATOM      1  O   UNL     1       7.473  16.054  23.176  0.00  0.00    +0.000 OA
ATOM      2  C   UNL     1       7.807  14.895  23.138  0.00  0.00    +0.000 C 
ATOM      3  C   UNL     1       8.798  14.271  22.221  0.00  0.00    +0.000 C 
ATOM      4  C   UNL     1       8.923  12.971  22.557  0.00  0.00    +0.000 C 
ATOM      5  N   UNL     1       9.693  11.973  22.009  0.00  0.00    +0.000 N 
ATOM      6  C   UNL     1       9.913  11.869  20.613  0.00  0.00    +0.000 A 
ATOM      7  C   UNL     1       9.364  10.764  19.937  0.00  0.00    +0.000 A 
ATOM      8  C   UNL     1       9.447  10.652  18.549  0.00  0.00    +0.000 A 
ATOM      9  C   UNL     1      10.106  11.632  17.814  0.00  0.00    +0.000 A 
ATOM     10  C   UNL     1      10.650  12.741  18.464  0.00  0.00    +0.000 A 
ATOM     11  C   UNL     1      10.517  12.891  19.854  0.00  0.00    +0.000 A 
ATOM     12  S   UNL     1      11.077  14.422  20.595  0.00  0.00    +0.000 S 
ATOM     13  C   UNL     1       9.463  15.118  21.193  0.00  0.00    +0.000 C 
ATOM     14  C   UNL     1       8.018  12.681  23.675  0.00  0.00    +0.000 A 
ATOM     15  C   UNL     1       7.749  11.504  24.359  0.00  0.00    +0.000 A 
ATOM     16  C   UNL     1       6.779  11.521  25.371  0.00  0.00    +0.000 A 
ATOM     17  C   UNL     1       6.090  12.705  25.690  0.00  0.00    +0.000 A 
ATOM     18  C   UNL     1       6.365  13.888  25.007  0.00  0.00    +0.000 A 
ATOM     19  C   UNL     1       7.328  13.835  24.015  0.00  0.00    +0.000 A 
ATOM     20  H   UNL     1       9.589  11.068  22.451  0.00  0.00    +0.000 HD
ENDROOT
BRANCH  13  21
ATOM     21  C   UNL     1       8.567  15.526  20.026  0.00  0.00    +0.000 A 
ATOM     22  C   UNL     1       8.615  16.814  19.465  0.00  0.00    +0.000 A 
ATOM     23  C   UNL     1       7.656  17.233  18.543  0.00  0.00    +0.000 A 
ATOM     24  C   UNL     1       6.682  16.344  18.101  0.00  0.00    +0.000 A 
ATOM     25  C   UNL     1       6.688  15.029  18.561  0.00  0.00    +0.000 A 
ATOM     26  C   UNL     1       7.615  14.624  19.524  0.00  0.00    +0.000 A 
ENDBRANCH  13  21
TORSDOF 1
ENDMDL
MODEL 7
REMARK VINA RESULT:      -6.4     11.239     12.771
REMARK  Name = 
REMARK  1 active torsions:
REMARK  status: ('A' for Active; 'I' for Inactive)
REMARK    1  A    between atoms: C_13  and  C_14
REMARK                            x       y       z     vdW  Elec       q    Type
REMARK                         _______ _______ _______ _____ _____    ______ ____
ROOT
ATOM      1  O   UNL     1       7.839  11.623  22.312  0.00  0.00    +0.000 OA
ATOM      2  C   UNL     1       8.194  12.734  22.616  0.00  0.00    +0.000 C 
ATOM      3  C   UNL     1       8.544  13.853  21.700  0.00  0.00    +0.000 C 
ATOM      4  C   UNL     1       8.824  14.939  22.447  0.00  0.00    +0.000 C 
ATOM      5  N   UNL     1       9.213  16.206  22.080  0.00  0.00    +0.000 N 
ATOM      6  C   UNL     1      10.098  16.439  20.998  0.00  0.00    +0.000 A 
ATOM      7  C   UNL     1      11.371  16.962  21.287  0.00  0.00    +0.000 A 
ATOM      8  C   UNL     1      12.333  17.116  20.287  0.00  0.00    +0.000 A 
ATOM      9  C   UNL     1      12.026  16.775  18.973  0.00  0.00    +0.000 A 
ATOM     10  C   UNL     1      10.770  16.247  18.668  0.00  0.00    +0.000 A 
ATOM     11  C   UNL     1       9.820  16.031  19.679  0.00  0.00    +0.000 A 
ATOM     12  S   UNL     1       8.304  15.184  19.244  0.00  0.00    +0.000 S 
ATOM     13  C   UNL     1       8.496  13.622  20.230  0.00  0.00    +0.000 C 
ATOM     14  C   UNL     1       8.698  14.585  23.865  0.00  0.00    +0.000 A 
ATOM     15  C   UNL     1       8.907  15.323  25.021  0.00  0.00    +0.000 A 
ATOM     16  C   UNL     1       8.752  14.690  26.262  0.00  0.00    +0.000 A 
ATOM     17  C   UNL     1       8.392  13.333  26.340  0.00  0.00    +0.000 A 
ATOM     18  C   UNL     1       8.176  12.592  25.178  0.00  0.00    +0.000 A 
ATOM     19  C   UNL     1       8.337  13.249  23.972  0.00  0.00    +0.000 A 
ATOM     20  H   UNL     1       9.373  16.839  22.853  0.00  0.00    +0.000 HD
ENDROOT
BRANCH  13  21
ATOM     21  C   UNL     1       9.627  12.755  19.682  0.00  0.00    +0.000 A 
ATOM     22  C   UNL     1      10.833  12.575  20.380  0.00  0.00    +0.000 A 
ATOM     23  C   UNL     1      11.926  11.953  19.779  0.00  0.00    +0.000 A 
ATOM     24  C   UNL     1      11.807  11.425  18.498  0.00  0.00    +0.000 A 
ATOM     25  C   UNL     1      10.584  11.494  17.833  0.00  0.00    +0.000 A 
ATOM     26  C   UNL     1       9.505  12.163  18.413  0.00  0.00    +0.000 A 
ENDBRANCH  13  21
TORSDOF 1
ENDMDL
MODEL 8
REMARK VINA RESULT:      -6.4      2.433      6.612
REMARK  Name = 
REMARK  1 active torsions:
REMARK  status: ('A' for Active; 'I' for Inactive)
REMARK    1  A    between atoms: C_13  and  C_14
REMARK                            x       y       z     vdW  Elec       q    Type
REMARK                         _______ _______ _______ _____ _____    ______ ____
ROOT
ATOM      1  O   UNL     1      -0.556  13.474  21.321  0.00  0.00    +0.000 OA
ATOM      2  C   UNL     1      -1.335  12.924  20.583  0.00  0.00    +0.000 C 
ATOM      3  C   UNL     1      -2.779  13.232  20.403  0.00  0.00    +0.000 C 
ATOM      4  C   UNL     1      -3.265  12.427  19.437  0.00  0.00    +0.000 C 
ATOM      5  N   UNL     1      -4.533  12.312  18.918  0.00  0.00    +0.000 N 
ATOM      6  C   UNL     1      -5.692  12.424  19.726  0.00  0.00    +0.000 A 
ATOM      7  C   UNL     1      -6.489  11.279  19.902  0.00  0.00    +0.000 A 
ATOM      8  C   UNL     1      -7.583  11.285  20.769  0.00  0.00    +0.000 A 
ATOM      9  C   UNL     1      -7.915  12.449  21.455  0.00  0.00    +0.000 A 
ATOM     10  C   UNL     1      -7.132  13.595  21.300  0.00  0.00    +0.000 A 
ATOM     11  C   UNL     1      -5.994  13.577  20.478  0.00  0.00    +0.000 A 
ATOM     12  S   UNL     1      -4.937  15.022  20.470  0.00  0.00    +0.000 S 
ATOM     13  C   UNL     1      -3.393  14.315  21.221  0.00  0.00    +0.000 C 
ATOM     14  C   UNL     1      -2.189  11.550  18.963  0.00  0.00    +0.000 A 
ATOM     15  C   UNL     1      -2.176  10.536  18.017  0.00  0.00    +0.000 A 
ATOM     16  C   UNL     1      -0.987   9.825  17.808  0.00  0.00    +0.000 A 
ATOM     17  C   UNL     1       0.175  10.129  18.540  0.00  0.00    +0.000 A 
ATOM     18  C   UNL     1       0.164  11.153  19.487  0.00  0.00    +0.000 A 
ATOM     19  C   UNL     1      -1.027  11.833  19.667  0.00  0.00    +0.000 A 
ATOM     20  H   UNL     1      -4.633  11.608  18.197  0.00  0.00    +0.000 HD
ENDROOT
BRANCH  13  21
ATOM     21  C   UNL     1      -3.602  13.962  22.692  0.00  0.00    +0.000 A 
ATOM     22  C   UNL     1      -3.318  14.873  23.724  0.00  0.00    +0.000 A 
ATOM     23  C   UNL     1      -3.320  14.471  25.059  0.00  0.00    +0.000 A 
ATOM     24  C   UNL     1      -3.686  13.171  25.392  0.00  0.00    +0.000 A 
ATOM     25  C   UNL     1      -4.080  12.286  24.391  0.00  0.00    +0.000 A 
ATOM     26  C   UNL     1      -4.027  12.672  23.050  0.00  0.00    +0.000 A 
ENDBRANCH  13  21
TORSDOF 1
ENDMDL
MODEL 9
REMARK VINA RESULT:      -6.2      8.300     10.693
REMARK  Name = 
REMARK  1 active torsions:
REMARK  status: ('A' for Active; 'I' for Inactive)
REMARK    1  A    between atoms: C_13  and  C_14
REMARK                            x       y       z     vdW  Elec       q    Type
REMARK                         _______ _______ _______ _____ _____    ______ ____
ROOT
ATOM      1  O   UNL     1       7.641  15.606  18.197  0.00  0.00    +0.000 OA
ATOM      2  C   UNL     1       6.845  15.313  19.056  0.00  0.00    +0.000 C 
ATOM      3  C   UNL     1       7.120  15.077  20.498  0.00  0.00    +0.000 C 
ATOM      4  C   UNL     1       5.947  14.840  21.119  0.00  0.00    +0.000 C 
ATOM      5  N   UNL     1       5.669  14.553  22.434  0.00  0.00    +0.000 N 
ATOM      6  C   UNL     1       6.513  13.730  23.222  0.00  0.00    +0.000 A 
ATOM      7  C   UNL     1       6.016  12.484  23.643  0.00  0.00    +0.000 A 
ATOM      8  C   UNL     1       6.825  11.577  24.328  0.00  0.00    +0.000 A 
ATOM      9  C   UNL     1       8.142  11.914  24.628  0.00  0.00    +0.000 A 
ATOM     10  C   UNL     1       8.656  13.142  24.211  0.00  0.00    +0.000 A 
ATOM     11  C   UNL     1       7.866  14.034  23.468  0.00  0.00    +0.000 A 
ATOM     12  S   UNL     1       8.646  15.506  22.812  0.00  0.00    +0.000 S 
ATOM     13  C   UNL     1       8.523  15.170  20.989  0.00  0.00    +0.000 C 
ATOM     14  C   UNL     1       4.868  14.885  20.126  0.00  0.00    +0.000 A 
ATOM     15  C   UNL     1       3.501  14.679  20.242  0.00  0.00    +0.000 A 
ATOM     16  C   UNL     1       2.711  14.740  19.086  0.00  0.00    +0.000 A 
ATOM     17  C   UNL     1       3.287  15.004  17.830  0.00  0.00    +0.000 A 
ATOM     18  C   UNL     1       4.660  15.217  17.715  0.00  0.00    +0.000 A 
ATOM     19  C   UNL     1       5.409  15.150  18.876  0.00  0.00    +0.000 A 
ATOM     20  H   UNL     1       4.688  14.403  22.636  0.00  0.00    +0.000 HD
ENDROOT
BRANCH  13  21
ATOM     21  C   UNL     1       9.422  14.007  20.578  0.00  0.00    +0.000 A 
ATOM     22  C   UNL     1       8.986  12.672  20.633  0.00  0.00    +0.000 A 
ATOM     23  C   UNL     1       9.877  11.615  20.451  0.00  0.00    +0.000 A 
ATOM     24  C   UNL     1      11.205  11.875  20.128  0.00  0.00    +0.000 A 
ATOM     25  C   UNL     1      11.630  13.191  19.958  0.00  0.00    +0.000 A 
ATOM     26  C   UNL     1      10.751  14.250  20.192  0.00  0.00    +0.000 A 
ENDBRANCH  13  21
TORSDOF 1
ENDMDL
