MODEL 1
REMARK VINA RESULT:      -7.2      0.000      0.000
REMARK  Name = 
REMARK  5 active torsions:
REMARK  status: ('A' for Active; 'I' for Inactive)
REMARK    1  A    between atoms: C_1  and  N_2
REMARK    2  A    between atoms: C_6  and  C_7
REMARK    3  A    between atoms: N_9  and  C_10
REMARK    4  A    between atoms: C_10  and  C_11
REMARK    5  A    between atoms: C_10  and  C_19
REMARK                            x       y       z     vdW  Elec       q    Type
REMARK                         _______ _______ _______ _____ _____    ______ ____
ROOT
ATOM      1  C   UNL     1       4.588   5.251  17.053  0.00  0.00    +0.000 C 
ENDROOT
BRANCH   1   2
ATOM      2  C   UNL     1       3.615   4.646  18.036  0.00  0.00    +0.000 A 
ATOM      3  C   UNL     1       2.595   3.784  17.629  0.00  0.00    +0.000 A 
ATOM      4  F   UNL     1       2.490   3.453  16.337  0.00  0.00    +0.000 F 
ATOM      5  C   UNL     1       1.663   3.285  18.536  0.00  0.00    +0.000 A 
ATOM      6  C   UNL     1       1.737   3.646  19.881  0.00  0.00    +0.000 A 
ATOM      7  C   UNL     1       2.751   4.500  20.309  0.00  0.00    +0.000 A 
ATOM      8  C   UNL     1       3.675   4.988  19.390  0.00  0.00    +0.000 A 
ATOM      9  F   UNL     1       4.626   5.826  19.826  0.00  0.00    +0.000 F 
ENDBRANCH   1   2
BRANCH   1  12
ATOM     10  C   UNL     1       6.985   4.554  16.508  0.00  0.00    +0.000 C 
ATOM     11  O   UNL     1       8.076   4.211  16.960  0.00  0.00    +0.000 OA
ATOM     12  N   UNL     1       5.947   4.768  17.378  0.00  0.00    +0.000 N 
ATOM     13  H   UNL     1       6.215   4.730  18.357  0.00  0.00    +0.000 HD
BRANCH  10  19
ATOM     14  C   UNL     1       4.892   4.108  12.548  0.00  0.00    +0.000 C 
ATOM     15  N   UNL     1       6.136   3.425  12.898  0.00  0.00    +0.000 NA
ATOM     16  C   UNL     1       7.315   4.097  12.308  0.00  0.00    +0.000 C 
ATOM     17  C   UNL     1       7.667   5.433  12.981  0.00  0.00    +0.000 C 
ATOM     18  O   UNL     1       7.859   5.266  14.390  0.00  0.00    +0.000 OA
ATOM     19  C   UNL     1       6.693   4.692  15.010  0.00  0.00    +0.000 C 
ATOM     20  C   UNL     1       6.331   3.342  14.367  0.00  0.00    +0.000 C 
ENDBRANCH  10  19
ENDBRANCH   1  12
BRANCH   1  21
ATOM     21  C   UNL     1       4.478   6.789  16.851  0.00  0.00    +0.000 C 
ATOM     22  F   UNL     1       5.463   7.457  17.496  0.00  0.00    +0.000 F 
ATOM     23  F   UNL     1       4.572   7.109  15.536  0.00  0.00    +0.000 F 
ATOM     24  F   UNL     1       3.301   7.294  17.288  0.00  0.00    +0.000 F 
ENDBRANCH   1  21
TORSDOF 4
ENDMDL
MODEL 2
REMARK VINA RESULT:      -7.2      0.084      1.890
REMARK  Name = 
REMARK  5 active torsions:
REMARK  status: ('A' for Active; 'I' for Inactive)
REMARK    1  A    between atoms: C_1  and  N_2
REMARK    2  A    between atoms: C_6  and  C_7
REMARK    3  A    between atoms: N_9  and  C_10
REMARK    4  A    between atoms: C_10  and  C_11
REMARK    5  A    between atoms: C_10  and  C_19
REMARK                            x       y       z     vdW  Elec       q    Type
REMARK                         _______ _______ _______ _____ _____    ______ ____
ROOT
ATOM      1  C   UNL     1       4.579   5.259  17.021  0.00  0.00    +0.000 C 
ENDROOT
BRANCH   1   2
ATOM      2  C   UNL     1       3.600   4.664  18.004  0.00  0.00    +0.000 A 
ATOM      3  C   UNL     1       3.662   4.948  19.369  0.00  0.00    +0.000 A 
ATOM      4  F   UNL     1       4.591   5.797  19.824  0.00  0.00    +0.000 F 
ATOM      5  C   UNL     1       2.795   4.341  20.276  0.00  0.00    +0.000 A 
ATOM      6  C   UNL     1       1.843   3.428  19.825  0.00  0.00    +0.000 A 
ATOM      7  C   UNL     1       1.760   3.136  18.465  0.00  0.00    +0.000 A 
ATOM      8  C   UNL     1       2.632   3.753  17.572  0.00  0.00    +0.000 A 
ATOM      9  F   UNL     1       2.545   3.435  16.273  0.00  0.00    +0.000 F 
ENDBRANCH   1   2
BRANCH   1  12
ATOM     10  C   UNL     1       6.973   4.547  16.482  0.00  0.00    +0.000 C 
ATOM     11  O   UNL     1       8.061   4.196  16.937  0.00  0.00    +0.000 OA
ATOM     12  N   UNL     1       5.934   4.767  17.349  0.00  0.00    +0.000 N 
ATOM     13  H   UNL     1       6.199   4.726  18.329  0.00  0.00    +0.000 HD
BRANCH  10  19
ATOM     14  C   UNL     1       4.888   4.118  12.516  0.00  0.00    +0.000 C 
ATOM     15  N   UNL     1       6.128   3.427  12.868  0.00  0.00    +0.000 NA
ATOM     16  C   UNL     1       7.313   4.092  12.283  0.00  0.00    +0.000 C 
ATOM     17  C   UNL     1       7.670   5.426  12.958  0.00  0.00    +0.000 C 
ATOM     18  O   UNL     1       7.857   5.256  14.367  0.00  0.00    +0.000 OA
ATOM     19  C   UNL     1       6.686   4.689  14.983  0.00  0.00    +0.000 C 
ATOM     20  C   UNL     1       6.318   3.341  14.338  0.00  0.00    +0.000 C 
ENDBRANCH  10  19
ENDBRANCH   1  12
BRANCH   1  21
ATOM     21  C   UNL     1       4.481   6.798  16.816  0.00  0.00    +0.000 C 
ATOM     22  F   UNL     1       3.311   7.298  17.278  0.00  0.00    +0.000 F 
ATOM     23  F   UNL     1       5.479   7.436  17.477  0.00  0.00    +0.000 F 
ATOM     24  F   UNL     1       4.585   7.162  15.517  0.00  0.00    +0.000 F 
ENDBRANCH   1  21
TORSDOF 4
ENDMDL
MODEL 3
REMARK VINA RESULT:      -7.1      1.977      2.662
REMARK  Name = 
REMARK  5 active torsions:
REMARK  status: ('A' for Active; 'I' for Inactive)
REMARK    1  A    between atoms: C_1  and  N_2
REMARK    2  A    between atoms: C_6  and  C_7
REMARK    3  A    between atoms: N_9  and  C_10
REMARK    4  A    between atoms: C_10  and  C_11
REMARK    5  A    between atoms: C_10  and  C_19
REMARK                            x       y       z     vdW  Elec       q    Type
REMARK                         _______ _______ _______ _____ _____    ______ ____
ROOT
ATOM      1  C   UNL     1       3.484   5.555  18.525  0.00  0.00    +0.000 C 
ENDROOT
BRANCH   1   2
ATOM      2  C   UNL     1       2.523   4.491  18.998  0.00  0.00    +0.000 A 
ATOM      3  C   UNL     1       1.969   3.556  18.122  0.00  0.00    +0.000 A 
ATOM      4  F   UNL     1       2.320   3.575  16.830  0.00  0.00    +0.000 F 
ATOM      5  C   UNL     1       1.034   2.619  18.557  0.00  0.00    +0.000 A 
ATOM      6  C   UNL     1       0.631   2.606  19.892  0.00  0.00    +0.000 A 
ATOM      7  C   UNL     1       1.176   3.527  20.784  0.00  0.00    +0.000 A 
ATOM      8  C   UNL     1       2.112   4.454  20.334  0.00  0.00    +0.000 A 
ATOM      9  F   UNL     1       2.603   5.342  21.209  0.00  0.00    +0.000 F 
ENDBRANCH   1   2
BRANCH   1  12
ATOM     10  C   UNL     1       5.980   5.285  19.002  0.00  0.00    +0.000 C 
ATOM     11  O   UNL     1       6.872   5.359  19.845  0.00  0.00    +0.000 OA
ATOM     12  N   UNL     1       4.685   5.521  19.386  0.00  0.00    +0.000 N 
ATOM     13  H   UNL     1       4.594   5.856  20.341  0.00  0.00    +0.000 HD
BRANCH  10  19
ATOM     14  C   UNL     1       7.579   5.356  14.795  0.00  0.00    +0.000 C 
ATOM     15  N   UNL     1       6.197   5.673  15.151  0.00  0.00    +0.000 NA
ATOM     16  C   UNL     1       5.288   4.537  14.889  0.00  0.00    +0.000 C 
ATOM     17  C   UNL     1       5.449   3.374  15.880  0.00  0.00    +0.000 C 
ATOM     18  O   UNL     1       5.288   3.821  17.230  0.00  0.00    +0.000 OA
ATOM     19  C   UNL     1       6.221   4.872  17.545  0.00  0.00    +0.000 C 
ATOM     20  C   UNL     1       6.065   6.059  16.579  0.00  0.00    +0.000 C 
ENDBRANCH  10  19
ENDBRANCH   1  12
BRANCH   1  21
ATOM     21  C   UNL     1       2.876   6.971  18.317  0.00  0.00    +0.000 C 
ATOM     22  F   UNL     1       3.680   7.763  17.568  0.00  0.00    +0.000 F 
ATOM     23  F   UNL     1       1.682   6.894  17.678  0.00  0.00    +0.000 F 
ATOM     24  F   UNL     1       2.649   7.622  19.481  0.00  0.00    +0.000 F 
ENDBRANCH   1  21
TORSDOF 4
ENDMDL
MODEL 4
REMARK VINA RESULT:      -7.1      2.013      3.248
REMARK  Name = 
REMARK  5 active torsions:
REMARK  status: ('A' for Active; 'I' for Inactive)
REMARK    1  A    between atoms: C_1  and  N_2
REMARK    2  A    between atoms: C_6  and  C_7
REMARK    3  A    between atoms: N_9  and  C_10
REMARK    4  A    between atoms: C_10  and  C_11
REMARK    5  A    between atoms: C_10  and  C_19
REMARK                            x       y       z     vdW  Elec       q    Type
REMARK                         _______ _______ _______ _____ _____    ______ ____
ROOT
ATOM      1  C   UNL     1       3.431   5.605  18.575  0.00  0.00    +0.000 C 
ENDROOT
BRANCH   1   2
ATOM      2  C   UNL     1       2.443   4.564  19.044  0.00  0.00    +0.000 A 
ATOM      3  C   UNL     1       2.080   4.445  20.387  0.00  0.00    +0.000 A 
ATOM      4  F   UNL     1       2.591   5.295  21.285  0.00  0.00    +0.000 F 
ATOM      5  C   UNL     1       1.218   3.439  20.818  0.00  0.00    +0.000 A 
ATOM      6  C   UNL     1       0.702   2.524  19.902  0.00  0.00    +0.000 A 
ATOM      7  C   UNL     1       1.047   2.629  18.556  0.00  0.00    +0.000 A 
ATOM      8  C   UNL     1       1.907   3.641  18.141  0.00  0.00    +0.000 A 
ATOM      9  F   UNL     1       2.240   3.704  16.844  0.00  0.00    +0.000 F 
ENDBRANCH   1   2
BRANCH   1  12
ATOM     10  C   UNL     1       5.919   5.270  19.055  0.00  0.00    +0.000 C 
ATOM     11  O   UNL     1       6.811   5.320  19.900  0.00  0.00    +0.000 OA
ATOM     12  N   UNL     1       4.630   5.539  19.438  0.00  0.00    +0.000 N 
ATOM     13  H   UNL     1       4.545   5.874  20.393  0.00  0.00    +0.000 HD
BRANCH  10  19
ATOM     14  C   UNL     1       7.523   5.312  14.850  0.00  0.00    +0.000 C 
ATOM     15  N   UNL     1       6.148   5.660  15.205  0.00  0.00    +0.000 NA
ATOM     16  C   UNL     1       5.214   4.544  14.941  0.00  0.00    +0.000 C 
ATOM     17  C   UNL     1       5.348   3.376  15.930  0.00  0.00    +0.000 C 
ATOM     18  O   UNL     1       5.196   3.825  17.281  0.00  0.00    +0.000 OA
ATOM     19  C   UNL     1       6.152   4.855  17.598  0.00  0.00    +0.000 C 
ATOM     20  C   UNL     1       6.023   6.046  16.633  0.00  0.00    +0.000 C 
ENDBRANCH  10  19
ENDBRANCH   1  12
BRANCH   1  21
ATOM     21  C   UNL     1       2.860   7.036  18.368  0.00  0.00    +0.000 C 
ATOM     22  F   UNL     1       1.701   7.024  17.670  0.00  0.00    +0.000 F 
ATOM     23  F   UNL     1       2.604   7.629  19.561  0.00  0.00    +0.000 F 
ATOM     24  F   UNL     1       3.714   7.853  17.708  0.00  0.00    +0.000 F 
ENDBRANCH   1  21
TORSDOF 4
ENDMDL
MODEL 5
REMARK VINA RESULT:      -7.1      2.886      5.993
REMARK  Name = 
REMARK  5 active torsions:
REMARK  status: ('A' for Active; 'I' for Inactive)
REMARK    1  A    between atoms: C_1  and  N_2
REMARK    2  A    between atoms: C_6  and  C_7
REMARK    3  A    between atoms: N_9  and  C_10
REMARK    4  A    between atoms: C_10  and  C_11
REMARK    5  A    between atoms: C_10  and  C_19
REMARK                            x       y       z     vdW  Elec       q    Type
REMARK                         _______ _______ _______ _____ _____    ______ ____
ROOT
ATOM      1  C   UNL     1       5.847   5.320  17.904  0.00  0.00    +0.000 C 
ENDROOT
BRANCH   1   2
ATOM      2  C   UNL     1       6.099   4.853  16.491  0.00  0.00    +0.000 A 
ATOM      3  C   UNL     1       6.967   5.533  15.634  0.00  0.00    +0.000 A 
ATOM      4  F   UNL     1       7.623   6.611  16.080  0.00  0.00    +0.000 F 
ATOM      5  C   UNL     1       7.142   5.131  14.311  0.00  0.00    +0.000 A 
ATOM      6  C   UNL     1       6.441   4.031  13.819  0.00  0.00    +0.000 A 
ATOM      7  C   UNL     1       5.575   3.335  14.660  0.00  0.00    +0.000 A 
ATOM      8  C   UNL     1       5.414   3.748  15.979  0.00  0.00    +0.000 A 
ATOM      9  F   UNL     1       4.557   3.074  16.758  0.00  0.00    +0.000 F 
ENDBRANCH   1   2
BRANCH   1  12
ATOM     10  C   UNL     1       3.611   6.464  18.380  0.00  0.00    +0.000 C 
ATOM     11  O   UNL     1       2.964   7.508  18.316  0.00  0.00    +0.000 OA
ATOM     12  N   UNL     1       4.882   6.440  17.864  0.00  0.00    +0.000 N 
ATOM     13  H   UNL     1       5.222   7.349  17.567  0.00  0.00    +0.000 HD
BRANCH  10  19
ATOM     14  C   UNL     1       2.093   2.229  18.534  0.00  0.00    +0.000 C 
ATOM     15  N   UNL     1       1.245   3.409  18.695  0.00  0.00    +0.000 NA
ATOM     16  C   UNL     1       0.937   3.674  20.117  0.00  0.00    +0.000 C 
ATOM     17  C   UNL     1       2.130   4.219  20.918  0.00  0.00    +0.000 C 
ATOM     18  O   UNL     1       2.662   5.400  20.310  0.00  0.00    +0.000 OA
ATOM     19  C   UNL     1       3.053   5.153  18.947  0.00  0.00    +0.000 C 
ATOM     20  C   UNL     1       1.870   4.626  18.117  0.00  0.00    +0.000 C 
ENDBRANCH  10  19
ENDBRANCH   1  12
BRANCH   1  21
ATOM     21  C   UNL     1       7.113   5.588  18.765  0.00  0.00    +0.000 C 
ATOM     22  F   UNL     1       7.562   6.858  18.627  0.00  0.00    +0.000 F 
ATOM     23  F   UNL     1       6.849   5.397  20.082  0.00  0.00    +0.000 F 
ATOM     24  F   UNL     1       8.143   4.767  18.455  0.00  0.00    +0.000 F 
ENDBRANCH   1  21
TORSDOF 4
ENDMDL
MODEL 6
REMARK VINA RESULT:      -7.0      2.915      5.868
REMARK  Name = 
REMARK  5 active torsions:
REMARK  status: ('A' for Active; 'I' for Inactive)
REMARK    1  A    between atoms: C_1  and  N_2
REMARK    2  A    between atoms: C_6  and  C_7
REMARK    3  A    between atoms: N_9  and  C_10
REMARK    4  A    between atoms: C_10  and  C_11
REMARK    5  A    between atoms: C_10  and  C_19
REMARK                            x       y       z     vdW  Elec       q    Type
REMARK                         _______ _______ _______ _____ _____    ______ ____
ROOT
ATOM      1  C   UNL     1       5.784   5.333  17.914  0.00  0.00    +0.000 C 
ENDROOT
BRANCH   1   2
ATOM      2  C   UNL     1       5.993   4.894  16.484  0.00  0.00    +0.000 A 
ATOM      3  C   UNL     1       5.354   3.770  15.958  0.00  0.00    +0.000 A 
ATOM      4  F   UNL     1       4.506   3.075  16.724  0.00  0.00    +0.000 F 
ATOM      5  C   UNL     1       5.605   3.337  14.657  0.00  0.00    +0.000 A 
ATOM      6  C   UNL     1       6.512   4.029  13.855  0.00  0.00    +0.000 A 
ATOM      7  C   UNL     1       7.155   5.157  14.360  0.00  0.00    +0.000 A 
ATOM      8  C   UNL     1       6.890   5.578  15.660  0.00  0.00    +0.000 A 
ATOM      9  F   UNL     1       7.540   6.653  16.127  0.00  0.00    +0.000 F 
ENDBRANCH   1   2
BRANCH   1  12
ATOM     10  C   UNL     1       3.561   6.464  18.472  0.00  0.00    +0.000 C 
ATOM     11  O   UNL     1       2.914   7.509  18.451  0.00  0.00    +0.000 OA
ATOM     12  N   UNL     1       4.819   6.453  17.926  0.00  0.00    +0.000 N 
ATOM     13  H   UNL     1       5.153   7.370  17.645  0.00  0.00    +0.000 HD
BRANCH  10  19
ATOM     14  C   UNL     1       2.111   2.203  18.563  0.00  0.00    +0.000 C 
ATOM     15  N   UNL     1       1.241   3.368  18.721  0.00  0.00    +0.000 NA
ATOM     16  C   UNL     1       0.905   3.614  20.140  0.00  0.00    +0.000 C 
ATOM     17  C   UNL     1       2.075   4.171  20.965  0.00  0.00    +0.000 C 
ATOM     18  O   UNL     1       2.598   5.367  20.377  0.00  0.00    +0.000 OA
ATOM     19  C   UNL     1       3.016   5.139  19.018  0.00  0.00    +0.000 C 
ATOM     20  C   UNL     1       1.855   4.600  18.164  0.00  0.00    +0.000 C 
ENDBRANCH  10  19
ENDBRANCH   1  12
BRANCH   1  21
ATOM     21  C   UNL     1       7.076   5.582  18.742  0.00  0.00    +0.000 C 
ATOM     22  F   UNL     1       7.522   6.854  18.614  0.00  0.00    +0.000 F 
ATOM     23  F   UNL     1       6.852   5.366  20.062  0.00  0.00    +0.000 F 
ATOM     24  F   UNL     1       8.095   4.765  18.385  0.00  0.00    +0.000 F 
ENDBRANCH   1  21
TORSDOF 4
ENDMDL
MODEL 7
REMARK VINA RESULT:      -6.9      2.110      3.274
REMARK  Name = 
REMARK  5 active torsions:
REMARK  status: ('A' for Active; 'I' for Inactive)
REMARK    1  A    between atoms: C_1  and  N_2
REMARK    2  A    between atoms: C_6  and  C_7
REMARK    3  A    between atoms: N_9  and  C_10
REMARK    4  A    between atoms: C_10  and  C_11
REMARK    5  A    between atoms: C_10  and  C_19
REMARK                            x       y       z     vdW  Elec       q    Type
REMARK                         _______ _______ _______ _____ _____    ______ ____
ROOT
ATOM      1  C   UNL     1       3.126   5.718  18.854  0.00  0.00    +0.000 C 
ENDROOT
BRANCH   1   2
ATOM      2  C   UNL     1       2.225   4.581  19.273  0.00  0.00    +0.000 A 
ATOM      3  C   UNL     1       1.946   4.318  20.615  0.00  0.00    +0.000 A 
ATOM      4  F   UNL     1       2.459   5.112  21.563  0.00  0.00    +0.000 F 
ATOM      5  C   UNL     1       1.167   3.226  20.993  0.00  0.00    +0.000 A 
ATOM      6  C   UNL     1       0.651   2.369  20.022  0.00  0.00    +0.000 A 
ATOM      7  C   UNL     1       0.913   2.617  18.676  0.00  0.00    +0.000 A 
ATOM      8  C   UNL     1       1.691   3.714  18.316  0.00  0.00    +0.000 A 
ATOM      9  F   UNL     1       1.946   3.915  17.015  0.00  0.00    +0.000 F 
ENDBRANCH   1   2
BRANCH   1  12
ATOM     10  C   UNL     1       5.659   5.426  19.017  0.00  0.00    +0.000 C 
ATOM     11  O   UNL     1       6.638   5.398  19.761  0.00  0.00    +0.000 OA
ATOM     12  N   UNL     1       4.414   5.586  19.568  0.00  0.00    +0.000 N 
ATOM     13  H   UNL     1       4.427   5.784  20.564  0.00  0.00    +0.000 HD
BRANCH  10  19
ATOM     14  C   UNL     1       6.403   3.434  15.050  0.00  0.00    +0.000 C 
ATOM     15  N   UNL     1       7.238   4.501  15.599  0.00  0.00    +0.000 NA
ATOM     16  C   UNL     1       6.924   5.812  14.991  0.00  0.00    +0.000 C 
ATOM     17  C   UNL     1       5.582   6.402  15.451  0.00  0.00    +0.000 C 
ATOM     18  O   UNL     1       5.524   6.504  16.877  0.00  0.00    +0.000 OA
ATOM     19  C   UNL     1       5.741   5.223  17.500  0.00  0.00    +0.000 C 
ATOM     20  C   UNL     1       7.090   4.620  17.072  0.00  0.00    +0.000 C 
ENDBRANCH  10  19
ENDBRANCH   1  12
BRANCH   1  21
ATOM     21  C   UNL     1       2.496   7.138  18.914  0.00  0.00    +0.000 C 
ATOM     22  F   UNL     1       1.294   7.187  18.292  0.00  0.00    +0.000 F 
ATOM     23  F   UNL     1       2.297   7.523  20.200  0.00  0.00    +0.000 F 
ATOM     24  F   UNL     1       3.278   8.085  18.345  0.00  0.00    +0.000 F 
ENDBRANCH   1  21
TORSDOF 4
ENDMDL
MODEL 8
REMARK VINA RESULT:      -6.9      1.882      2.941
REMARK  Name = 
REMARK  5 active torsions:
REMARK  status: ('A' for Active; 'I' for Inactive)
REMARK    1  A    between atoms: C_1  and  N_2
REMARK    2  A    between atoms: C_6  and  C_7
REMARK    3  A    between atoms: N_9  and  C_10
REMARK    4  A    between atoms: C_10  and  C_11
REMARK    5  A    between atoms: C_10  and  C_19
REMARK                            x       y       z     vdW  Elec       q    Type
REMARK                         _______ _______ _______ _____ _____    ______ ____
ROOT
ATOM      1  C   UNL     1       3.229   5.666  18.673  0.00  0.00    +0.000 C 
ENDROOT
BRANCH   1   2
ATOM      2  C   UNL     1       2.274   4.569  19.079  0.00  0.00    +0.000 A 
ATOM      3  C   UNL     1       1.845   4.418  20.399  0.00  0.00    +0.000 A 
ATOM      4  F   UNL     1       2.261   5.284  21.331  0.00  0.00    +0.000 F 
ATOM      5  C   UNL     1       1.016   3.363  20.774  0.00  0.00    +0.000 A 
ATOM      6  C   UNL     1       0.600   2.431  19.824  0.00  0.00    +0.000 A 
ATOM      7  C   UNL     1       1.011   2.568  18.500  0.00  0.00    +0.000 A 
ATOM      8  C   UNL     1       1.838   3.630  18.141  0.00  0.00    +0.000 A 
ATOM      9  F   UNL     1       2.237   3.724  16.865  0.00  0.00    +0.000 F 
ENDBRANCH   1   2
BRANCH   1  12
ATOM     10  C   UNL     1       5.761   5.464  18.963  0.00  0.00    +0.000 C 
ATOM     11  O   UNL     1       6.695   5.399  19.760  0.00  0.00    +0.000 OA
ATOM     12  N   UNL     1       4.479   5.512  19.448  0.00  0.00    +0.000 N 
ATOM     13  H   UNL     1       4.425   5.604  20.458  0.00  0.00    +0.000 HD
BRANCH  10  19
ATOM     14  C   UNL     1       5.015   4.457  14.640  0.00  0.00    +0.000 C 
ATOM     15  N   UNL     1       6.121   3.915  15.427  0.00  0.00    +0.000 NA
ATOM     16  C   UNL     1       7.392   4.616  15.145  0.00  0.00    +0.000 C 
ATOM     17  C   UNL     1       7.458   6.036  15.727  0.00  0.00    +0.000 C 
ATOM     18  O   UNL     1       7.213   6.028  17.137  0.00  0.00    +0.000 OA
ATOM     19  C   UNL     1       5.939   5.428  17.440  0.00  0.00    +0.000 C 
ATOM     20  C   UNL     1       5.855   3.995  16.886  0.00  0.00    +0.000 C 
ENDBRANCH  10  19
ENDBRANCH   1  12
BRANCH   1  21
ATOM     21  C   UNL     1       2.644   7.106  18.667  0.00  0.00    +0.000 C 
ATOM     22  F   UNL     1       2.427   7.571  19.920  0.00  0.00    +0.000 F 
ATOM     23  F   UNL     1       3.497   7.970  18.062  0.00  0.00    +0.000 F 
ATOM     24  F   UNL     1       1.469   7.194  18.001  0.00  0.00    +0.000 F 
ENDBRANCH   1  21
TORSDOF 4
ENDMDL
MODEL 9
REMARK VINA RESULT:      -6.9      2.909      5.935
REMARK  Name = 
REMARK  5 active torsions:
REMARK  status: ('A' for Active; 'I' for Inactive)
REMARK    1  A    between atoms: C_1  and  N_2
REMARK    2  A    between atoms: C_6  and  C_7
REMARK    3  A    between atoms: N_9  and  C_10
REMARK    4  A    between atoms: C_10  and  C_11
REMARK    5  A    between atoms: C_10  and  C_19
REMARK                            x       y       z     vdW  Elec       q    Type
REMARK                         _______ _______ _______ _____ _____    ______ ____
ROOT
ATOM      1  C   UNL     1       5.588   4.595  17.273  0.00  0.00    +0.000 C 
ENDROOT
BRANCH   1   2
ATOM      2  C   UNL     1       6.349   5.863  17.572  0.00  0.00    +0.000 A 
ATOM      3  C   UNL     1       5.937   7.103  17.080  0.00  0.00    +0.000 A 
ATOM      4  F   UNL     1       4.818   7.183  16.350  0.00  0.00    +0.000 F 
ATOM      5  C   UNL     1       6.684   8.258  17.307  0.00  0.00    +0.000 A 
ATOM      6  C   UNL     1       7.869   8.188  18.037  0.00  0.00    +0.000 A 
ATOM      7  C   UNL     1       8.295   6.961  18.543  0.00  0.00    +0.000 A 
ATOM      8  C   UNL     1       7.536   5.818  18.309  0.00  0.00    +0.000 A 
ATOM      9  F   UNL     1       7.981   4.648  18.787  0.00  0.00    +0.000 F 
ENDBRANCH   1   2
BRANCH   1  12
ATOM     10  C   UNL     1       4.868   3.265  19.334  0.00  0.00    +0.000 C 
ATOM     11  O   UNL     1       5.186   2.414  20.163  0.00  0.00    +0.000 OA
ATOM     12  N   UNL     1       5.788   3.650  18.393  0.00  0.00    +0.000 N 
ATOM     13  H   UNL     1       6.640   3.097  18.401  0.00  0.00    +0.000 HD
BRANCH  10  19
ATOM     14  C   UNL     1       1.619   6.181  20.430  0.00  0.00    +0.000 C 
ATOM     15  N   UNL     1       1.594   4.761  20.774  0.00  0.00    +0.000 NA
ATOM     16  C   UNL     1       0.726   3.989  19.859  0.00  0.00    +0.000 C 
ATOM     17  C   UNL     1       1.317   3.806  18.452  0.00  0.00    +0.000 C 
ATOM     18  O   UNL     1       2.614   3.204  18.513  0.00  0.00    +0.000 OA
ATOM     19  C   UNL     1       3.511   3.979  19.329  0.00  0.00    +0.000 C 
ATOM     20  C   UNL     1       2.951   4.159  20.751  0.00  0.00    +0.000 C 
ENDBRANCH  10  19
ENDBRANCH   1  12
BRANCH   1  21
ATOM     21  C   UNL     1       5.818   3.983  15.862  0.00  0.00    +0.000 C 
ATOM     22  F   UNL     1       4.951   4.477  14.947  0.00  0.00    +0.000 F 
ATOM     23  F   UNL     1       7.070   4.257  15.418  0.00  0.00    +0.000 F 
ATOM     24  F   UNL     1       5.689   2.636  15.846  0.00  0.00    +0.000 F 
ENDBRANCH   1  21
TORSDOF 4
ENDMDL
