MODEL 1
REMARK VINA RESULT:      -8.2      0.000      0.000
REMARK  Name = 
REMARK  5 active torsions:
REMARK  status: ('A' for Active; 'I' for Inactive)
REMARK    1  A    between atoms: C_2  and  O_3
REMARK    2  A    between atoms: C_2  and  C_4
REMARK    3  A    between atoms: C_7  and  S_8
REMARK    4  A    between atoms: S_8  and  N_11
REMARK    5  A    between atoms: N_11  and  C_12
REMARK                            x       y       z     vdW  Elec       q    Type
REMARK                         _______ _______ _______ _____ _____    ______ ____
ROOT
ATOM      1  S   UNL     1       6.139   5.729  15.836  0.00  0.00    +0.000 S 
ATOM      2  O   UNL     1       7.511   5.974  16.225  0.00  0.00    +0.000 OA
ATOM      3  O   UNL     1       5.217   6.803  15.539  0.00  0.00    +0.000 OA
ENDROOT
BRANCH   1   7
ATOM      4  C   UNL     1       5.913   3.393  12.454  0.00  0.00    +0.000 A 
ATOM      5  C   UNL     1       7.141   3.964  12.173  0.00  0.00    +0.000 A 
ATOM      6  S   UNL     1       7.645   5.092  13.355  0.00  0.00    +0.000 S 
ATOM      7  C   UNL     1       6.246   4.822  14.298  0.00  0.00    +0.000 A 
ATOM      8  C   UNL     1       5.411   3.890  13.708  0.00  0.00    +0.000 A 
BRANCH   4  10
ATOM      9  O   UNL     1       4.220   2.571  11.018  0.00  0.00    +0.000 OA
ATOM     10  C   UNL     1       5.302   2.405  11.566  0.00  0.00    +0.000 C 
BRANCH  10  11
ATOM     11  O   UNL     1       6.016   1.263  11.413  0.00  0.00    +0.000 OA
ATOM     12  H   UNL     1       5.946   0.660  12.172  0.00  0.00    +0.000 HD
ENDBRANCH  10  11
ENDBRANCH   4  10
ENDBRANCH   1   7
BRANCH   1  13
ATOM     13  N   UNL     1       5.471   4.652  16.966  0.00  0.00    +0.000 N 
ATOM     14  H   UNL     1       6.213   4.403  17.622  0.00  0.00    +0.000 HD
BRANCH  13  15
ATOM     15  C   UNL     1       4.294   5.102  17.652  0.00  0.00    +0.000 A 
ATOM     16  C   UNL     1       4.122   6.470  17.878  0.00  0.00    +0.000 A 
ATOM     17  C   UNL     1       3.020   6.924  18.600  0.00  0.00    +0.000 A 
ATOM     18  C   UNL     1       2.077   6.014  19.074  0.00  0.00    +0.000 A 
ATOM     19  C   UNL     1       2.212   4.642  18.813  0.00  0.00    +0.000 A 
ATOM     20  C   UNL     1       3.338   4.172  18.104  0.00  0.00    +0.000 A 
ATOM     21  C   UNL     1       3.496   2.698  17.800  0.00  0.00    +0.000 C 
ATOM     22  C   UNL     1       2.608   1.791  18.648  0.00  0.00    +0.000 C 
ATOM     23  C   UNL     1       1.187   2.330  18.694  0.00  0.00    +0.000 C 
ATOM     24  C   UNL     1       1.173   3.697  19.369  0.00  0.00    +0.000 C 
ENDBRANCH  13  15
ENDBRANCH   1  13
TORSDOF 5
ENDMDL
MODEL 2
REMARK VINA RESULT:      -8.1      3.606      5.792
REMARK  Name = 
REMARK  5 active torsions:
REMARK  status: ('A' for Active; 'I' for Inactive)
REMARK    1  A    between atoms: C_2  and  O_3
REMARK    2  A    between atoms: C_2  and  C_4
REMARK    3  A    between atoms: C_7  and  S_8
REMARK    4  A    between atoms: S_8  and  N_11
REMARK    5  A    between atoms: N_11  and  C_12
REMARK                            x       y       z     vdW  Elec       q    Type
REMARK                         _______ _______ _______ _____ _____    ______ ____
ROOT
ATOM      1  S   UNL     1       2.515   4.560  19.833  0.00  0.00    +0.000 S 
ATOM      2  O   UNL     1       1.286   4.580  19.071  0.00  0.00    +0.000 OA
ATOM      3  O   UNL     1       2.801   3.535  20.814  0.00  0.00    +0.000 OA
ENDROOT
BRANCH   1   7
ATOM      4  C   UNL     1       5.829   4.366  17.398  0.00  0.00    +0.000 A 
ATOM      5  C   UNL     1       4.937   3.807  16.501  0.00  0.00    +0.000 A 
ATOM      6  S   UNL     1       3.357   3.648  17.133  0.00  0.00    +0.000 S 
ATOM      7  C   UNL     1       3.813   4.359  18.618  0.00  0.00    +0.000 A 
ATOM      8  C   UNL     1       5.154   4.702  18.624  0.00  0.00    +0.000 A 
BRANCH   4  10
ATOM      9  O   UNL     1       7.593   5.178  16.044  0.00  0.00    +0.000 OA
ATOM     10  C   UNL     1       7.233   4.585  17.053  0.00  0.00    +0.000 C 
BRANCH  10  11
ATOM     11  O   UNL     1       8.121   4.053  17.927  0.00  0.00    +0.000 OA
ATOM     12  H   UNL     1       8.222   4.576  18.740  0.00  0.00    +0.000 HD
ENDBRANCH  10  11
ENDBRANCH   4  10
ENDBRANCH   1   7
BRANCH   1  13
ATOM     13  N   UNL     1       2.734   6.109  20.495  0.00  0.00    +0.000 N 
ATOM     14  H   UNL     1       3.720   6.193  20.747  0.00  0.00    +0.000 HD
BRANCH  13  15
ATOM     15  C   UNL     1       2.306   7.212  19.682  0.00  0.00    +0.000 A 
ATOM     16  C   UNL     1       2.714   7.269  18.347  0.00  0.00    +0.000 A 
ATOM     17  C   UNL     1       2.365   8.364  17.559  0.00  0.00    +0.000 A 
ATOM     18  C   UNL     1       1.587   9.388  18.096  0.00  0.00    +0.000 A 
ATOM     19  C   UNL     1       1.130   9.320  19.421  0.00  0.00    +0.000 A 
ATOM     20  C   UNL     1       1.501   8.226  20.234  0.00  0.00    +0.000 A 
ATOM     21  C   UNL     1       1.007   8.126  21.661  0.00  0.00    +0.000 C 
ATOM     22  C   UNL     1       0.472   9.440  22.226  0.00  0.00    +0.000 C 
ATOM     23  C   UNL     1      -0.460  10.107  21.227  0.00  0.00    +0.000 C 
ATOM     24  C   UNL     1       0.309  10.467  19.961  0.00  0.00    +0.000 C 
ENDBRANCH  13  15
ENDBRANCH   1  13
TORSDOF 5
ENDMDL
MODEL 3
REMARK VINA RESULT:      -8.1      1.407      1.627
REMARK  Name = 
REMARK  5 active torsions:
REMARK  status: ('A' for Active; 'I' for Inactive)
REMARK    1  A    between atoms: C_2  and  O_3
REMARK    2  A    between atoms: C_2  and  C_4
REMARK    3  A    between atoms: C_7  and  S_8
REMARK    4  A    between atoms: S_8  and  N_11
REMARK    5  A    between atoms: N_11  and  C_12
REMARK                            x       y       z     vdW  Elec       q    Type
REMARK                         _______ _______ _______ _____ _____    ______ ____
ROOT
ATOM      1  S   UNL     1       5.328   5.809  17.230  0.00  0.00    +0.000 S 
ATOM      2  O   UNL     1       5.502   4.730  18.178  0.00  0.00    +0.000 OA
ATOM      3  O   UNL     1       6.081   7.041  17.314  0.00  0.00    +0.000 OA
ENDROOT
BRANCH   1   7
ATOM      4  C   UNL     1       5.919   4.021  13.569  0.00  0.00    +0.000 A 
ATOM      5  C   UNL     1       7.216   4.473  13.739  0.00  0.00    +0.000 A 
ATOM      6  S   UNL     1       7.437   5.352  15.188  0.00  0.00    +0.000 S 
ATOM      7  C   UNL     1       5.809   5.123  15.649  0.00  0.00    +0.000 A 
ATOM      8  C   UNL     1       5.113   4.393  14.702  0.00  0.00    +0.000 A 
BRANCH   4  10
ATOM      9  O   UNL     1       4.467   3.430  11.796  0.00  0.00    +0.000 OA
ATOM     10  C   UNL     1       5.521   3.251  12.392  0.00  0.00    +0.000 C 
BRANCH  10  11
ATOM     11  O   UNL     1       6.400   2.289  12.020  0.00  0.00    +0.000 OA
ATOM     12  H   UNL     1       6.364   2.080  11.071  0.00  0.00    +0.000 HD
ENDBRANCH  10  11
ENDBRANCH   4  10
ENDBRANCH   1   7
BRANCH   1  13
ATOM     13  N   UNL     1       3.663   6.125  17.113  0.00  0.00    +0.000 N 
ATOM     14  H   UNL     1       3.305   5.569  16.334  0.00  0.00    +0.000 HD
BRANCH  13  15
ATOM     15  C   UNL     1       2.892   5.914  18.304  0.00  0.00    +0.000 A 
ATOM     16  C   UNL     1       2.757   6.961  19.219  0.00  0.00    +0.000 A 
ATOM     17  C   UNL     1       2.068   6.758  20.413  0.00  0.00    +0.000 A 
ATOM     18  C   UNL     1       1.493   5.518  20.682  0.00  0.00    +0.000 A 
ATOM     19  C   UNL     1       1.580   4.471  19.751  0.00  0.00    +0.000 A 
ATOM     20  C   UNL     1       2.298   4.661  18.550  0.00  0.00    +0.000 A 
ATOM     21  C   UNL     1       2.392   3.551  17.527  0.00  0.00    +0.000 C 
ATOM     22  C   UNL     1       2.034   2.171  18.073  0.00  0.00    +0.000 C 
ATOM     23  C   UNL     1       0.753   2.239  18.890  0.00  0.00    +0.000 C 
ATOM     24  C   UNL     1       0.959   3.140  20.103  0.00  0.00    +0.000 C 
ENDBRANCH  13  15
ENDBRANCH   1  13
TORSDOF 5
ENDMDL
MODEL 4
REMARK VINA RESULT:      -8.1      3.325      5.175
REMARK  Name = 
REMARK  5 active torsions:
REMARK  status: ('A' for Active; 'I' for Inactive)
REMARK    1  A    between atoms: C_2  and  O_3
REMARK    2  A    between atoms: C_2  and  C_4
REMARK    3  A    between atoms: C_7  and  S_8
REMARK    4  A    between atoms: S_8  and  N_11
REMARK    5  A    between atoms: N_11  and  C_12
REMARK                            x       y       z     vdW  Elec       q    Type
REMARK                         _______ _______ _______ _____ _____    ______ ____
ROOT
ATOM      1  S   UNL     1       3.128   4.609  19.260  0.00  0.00    +0.000 S 
ATOM      2  O   UNL     1       2.020   4.609  18.329  0.00  0.00    +0.000 OA
ATOM      3  O   UNL     1       3.404   3.489  20.133  0.00  0.00    +0.000 OA
ENDROOT
BRANCH   1   7
ATOM      4  C   UNL     1       6.181   4.683  16.498  0.00  0.00    +0.000 A 
ATOM      5  C   UNL     1       6.946   5.040  17.594  0.00  0.00    +0.000 A 
ATOM      6  S   UNL     1       6.036   5.175  19.035  0.00  0.00    +0.000 S 
ATOM      7  C   UNL     1       4.594   4.723  18.239  0.00  0.00    +0.000 A 
ATOM      8  C   UNL     1       4.811   4.483  16.894  0.00  0.00    +0.000 A 
BRANCH   4  10
ATOM      9  O   UNL     1       7.550   5.320  14.675  0.00  0.00    +0.000 OA
ATOM     10  C   UNL     1       6.768   4.518  15.169  0.00  0.00    +0.000 C 
BRANCH  10  11
ATOM     11  O   UNL     1       6.357   3.412  14.502  0.00  0.00    +0.000 OA
ATOM     12  H   UNL     1       5.423   3.448  14.235  0.00  0.00    +0.000 HD
ENDBRANCH  10  11
ENDBRANCH   4  10
ENDBRANCH   1   7
BRANCH   1  13
ATOM     13  N   UNL     1       3.060   6.060  20.139  0.00  0.00    +0.000 N 
ATOM     14  H   UNL     1       4.000   6.242  20.494  0.00  0.00    +0.000 HD
BRANCH  13  15
ATOM     15  C   UNL     1       2.534   7.199  19.443  0.00  0.00    +0.000 A 
ATOM     16  C   UNL     1       2.892   7.403  18.107  0.00  0.00    +0.000 A 
ATOM     17  C   UNL     1       2.446   8.538  17.433  0.00  0.00    +0.000 A 
ATOM     18  C   UNL     1       1.622   9.454  18.082  0.00  0.00    +0.000 A 
ATOM     19  C   UNL     1       1.216   9.238  19.408  0.00  0.00    +0.000 A 
ATOM     20  C   UNL     1       1.684   8.104  20.107  0.00  0.00    +0.000 A 
ATOM     21  C   UNL     1       1.247   7.844  21.532  0.00  0.00    +0.000 C 
ATOM     22  C   UNL     1       0.647   9.063  22.229  0.00  0.00    +0.000 C 
ATOM     23  C   UNL     1      -0.360   9.752  21.321  0.00  0.00    +0.000 C 
ATOM     24  C   UNL     1       0.341  10.274  20.072  0.00  0.00    +0.000 C 
ENDBRANCH  13  15
ENDBRANCH   1  13
TORSDOF 5
ENDMDL
MODEL 5
REMARK VINA RESULT:      -8.0      3.650      6.818
REMARK  Name = 
REMARK  5 active torsions:
REMARK  status: ('A' for Active; 'I' for Inactive)
REMARK    1  A    between atoms: C_2  and  O_3
REMARK    2  A    between atoms: C_2  and  C_4
REMARK    3  A    between atoms: C_7  and  S_8
REMARK    4  A    between atoms: S_8  and  N_11
REMARK    5  A    between atoms: N_11  and  C_12
REMARK                            x       y       z     vdW  Elec       q    Type
REMARK                         _______ _______ _______ _____ _____    ______ ____
ROOT
ATOM      1  S   UNL     1       2.901   3.091  18.383  0.00  0.00    +0.000 S 
ATOM      2  O   UNL     1       2.577   2.341  19.577  0.00  0.00    +0.000 OA
ATOM      3  O   UNL     1       2.201   2.895  17.133  0.00  0.00    +0.000 OA
ENDROOT
BRANCH   1   7
ATOM      4  C   UNL     1       2.196   7.126  18.798  0.00  0.00    +0.000 A 
ATOM      5  C   UNL     1       2.136   6.813  20.144  0.00  0.00    +0.000 A 
ATOM      6  S   UNL     1       2.348   5.145  20.457  0.00  0.00    +0.000 S 
ATOM      7  C   UNL     1       2.563   4.798  18.799  0.00  0.00    +0.000 A 
ATOM      8  C   UNL     1       2.465   5.941  18.025  0.00  0.00    +0.000 A 
BRANCH   4  10
ATOM      9  O   UNL     1       2.459   8.886  17.238  0.00  0.00    +0.000 OA
ATOM     10  C   UNL     1       2.036   8.498  18.319  0.00  0.00    +0.000 C 
BRANCH  10  11
ATOM     11  O   UNL     1       1.403   9.329  19.182  0.00  0.00    +0.000 OA
ATOM     12  H   UNL     1       1.317  10.238  18.847  0.00  0.00    +0.000 HD
ENDBRANCH  10  11
ENDBRANCH   4  10
ENDBRANCH   1   7
BRANCH   1  13
ATOM     13  N   UNL     1       4.582   2.992  18.157  0.00  0.00    +0.000 N 
ATOM     14  H   UNL     1       4.801   2.018  17.945  0.00  0.00    +0.000 HD
BRANCH  13  15
ATOM     15  C   UNL     1       5.143   3.880  17.180  0.00  0.00    +0.000 A 
ATOM     16  C   UNL     1       4.762   3.745  15.842  0.00  0.00    +0.000 A 
ATOM     17  C   UNL     1       5.344   4.553  14.867  0.00  0.00    +0.000 A 
ATOM     18  C   UNL     1       6.286   5.512  15.231  0.00  0.00    +0.000 A 
ATOM     19  C   UNL     1       6.643   5.691  16.576  0.00  0.00    +0.000 A 
ATOM     20  C   UNL     1       6.077   4.860  17.567  0.00  0.00    +0.000 A 
ATOM     21  C   UNL     1       6.437   5.046  19.025  0.00  0.00    +0.000 C 
ATOM     22  C   UNL     1       7.704   5.866  19.251  0.00  0.00    +0.000 C 
ATOM     23  C   UNL     1       7.688   7.118  18.387  0.00  0.00    +0.000 C 
ATOM     24  C   UNL     1       7.687   6.730  16.913  0.00  0.00    +0.000 C 
ENDBRANCH  13  15
ENDBRANCH   1  13
TORSDOF 5
ENDMDL
MODEL 6
REMARK VINA RESULT:      -7.9      1.097      1.414
REMARK  Name = 
REMARK  5 active torsions:
REMARK  status: ('A' for Active; 'I' for Inactive)
REMARK    1  A    between atoms: C_2  and  O_3
REMARK    2  A    between atoms: C_2  and  C_4
REMARK    3  A    between atoms: C_7  and  S_8
REMARK    4  A    between atoms: S_8  and  N_11
REMARK    5  A    between atoms: N_11  and  C_12
REMARK                            x       y       z     vdW  Elec       q    Type
REMARK                         _______ _______ _______ _____ _____    ______ ____
ROOT
ATOM      1  S   UNL     1       6.811   4.965  16.514  0.00  0.00    +0.000 S 
ATOM      2  O   UNL     1       8.035   4.324  16.943  0.00  0.00    +0.000 OA
ATOM      3  O   UNL     1       6.653   6.403  16.504  0.00  0.00    +0.000 OA
ENDROOT
BRANCH   1   7
ATOM      4  C   UNL     1       5.980   3.558  12.735  0.00  0.00    +0.000 A 
ATOM      5  C   UNL     1       7.052   4.356  12.377  0.00  0.00    +0.000 A 
ATOM      6  S   UNL     1       7.726   5.208  13.698  0.00  0.00    +0.000 S 
ATOM      7  C   UNL     1       6.623   4.504  14.795  0.00  0.00    +0.000 A 
ATOM      8  C   UNL     1       5.753   3.640  14.154  0.00  0.00    +0.000 A 
BRANCH   4  10
ATOM      9  O   UNL     1       5.664   1.667  11.347  0.00  0.00    +0.000 OA
ATOM     10  C   UNL     1       5.261   2.750  11.752  0.00  0.00    +0.000 C 
BRANCH  10  11
ATOM     11  O   UNL     1       4.114   3.305  11.292  0.00  0.00    +0.000 OA
ATOM     12  H   UNL     1       4.152   3.545  10.350  0.00  0.00    +0.000 HD
ENDBRANCH  10  11
ENDBRANCH   4  10
ENDBRANCH   1   7
BRANCH   1  13
ATOM     13  N   UNL     1       5.526   4.220  17.338  0.00  0.00    +0.000 N 
ATOM     14  H   UNL     1       5.932   3.676  18.101  0.00  0.00    +0.000 HD
BRANCH  13  15
ATOM     15  C   UNL     1       4.487   5.090  17.809  0.00  0.00    +0.000 A 
ATOM     16  C   UNL     1       4.360   6.363  17.247  0.00  0.00    +0.000 A 
ATOM     17  C   UNL     1       3.400   7.247  17.735  0.00  0.00    +0.000 A 
ATOM     18  C   UNL     1       2.551   6.852  18.766  0.00  0.00    +0.000 A 
ATOM     19  C   UNL     1       2.636   5.560  19.308  0.00  0.00    +0.000 A 
ATOM     20  C   UNL     1       3.622   4.667  18.836  0.00  0.00    +0.000 A 
ATOM     21  C   UNL     1       3.721   3.264  19.397  0.00  0.00    +0.000 C 
ATOM     22  C   UNL     1       2.991   3.074  20.724  0.00  0.00    +0.000 C 
ATOM     23  C   UNL     1       1.600   3.685  20.658  0.00  0.00    +0.000 C 
ATOM     24  C   UNL     1       1.706   5.190  20.440  0.00  0.00    +0.000 C 
ENDBRANCH  13  15
ENDBRANCH   1  13
TORSDOF 5
ENDMDL
MODEL 7
REMARK VINA RESULT:      -7.8      0.953      2.366
REMARK  Name = 
REMARK  5 active torsions:
REMARK  status: ('A' for Active; 'I' for Inactive)
REMARK    1  A    between atoms: C_2  and  O_3
REMARK    2  A    between atoms: C_2  and  C_4
REMARK    3  A    between atoms: C_7  and  S_8
REMARK    4  A    between atoms: S_8  and  N_11
REMARK    5  A    between atoms: N_11  and  C_12
REMARK                            x       y       z     vdW  Elec       q    Type
REMARK                         _______ _______ _______ _____ _____    ______ ____
ROOT
ATOM      1  S   UNL     1       6.471   5.283  16.182  0.00  0.00    +0.000 S 
ATOM      2  O   UNL     1       6.741   4.150  17.040  0.00  0.00    +0.000 OA
ATOM      3  O   UNL     1       7.372   6.410  16.081  0.00  0.00    +0.000 OA
ENDROOT
BRANCH   1   7
ATOM      4  C   UNL     1       5.971   3.435  12.536  0.00  0.00    +0.000 A 
ATOM      5  C   UNL     1       7.116   4.138  12.205  0.00  0.00    +0.000 A 
ATOM      6  S   UNL     1       7.690   5.126  13.477  0.00  0.00    +0.000 S 
ATOM      7  C   UNL     1       6.441   4.613  14.522  0.00  0.00    +0.000 A 
ATOM      8  C   UNL     1       5.600   3.708  13.900  0.00  0.00    +0.000 A 
BRANCH   4  10
ATOM      9  O   UNL     1       4.234   2.773  11.071  0.00  0.00    +0.000 OA
ATOM     10  C   UNL     1       5.319   2.536  11.587  0.00  0.00    +0.000 C 
BRANCH  10  11
ATOM     11  O   UNL     1       5.996   1.389  11.335  0.00  0.00    +0.000 OA
ATOM     12  H   UNL     1       6.664   1.180  12.011  0.00  0.00    +0.000 HD
ENDBRANCH  10  11
ENDBRANCH   4  10
ENDBRANCH   1   7
BRANCH   1  13
ATOM     13  N   UNL     1       4.886   5.802  16.501  0.00  0.00    +0.000 N 
ATOM     14  H   UNL     1       4.458   6.036  15.604  0.00  0.00    +0.000 HD
BRANCH  13  15
ATOM     15  C   UNL     1       4.062   4.898  17.253  0.00  0.00    +0.000 A 
ATOM     16  C   UNL     1       4.061   3.542  16.916  0.00  0.00    +0.000 A 
ATOM     17  C   UNL     1       3.219   2.659  17.590  0.00  0.00    +0.000 A 
ATOM     18  C   UNL     1       2.399   3.125  18.615  0.00  0.00    +0.000 A 
ATOM     19  C   UNL     1       2.425   4.475  18.995  0.00  0.00    +0.000 A 
ATOM     20  C   UNL     1       3.256   5.381  18.301  0.00  0.00    +0.000 A 
ATOM     21  C   UNL     1       3.310   6.839  18.704  0.00  0.00    +0.000 C 
ATOM     22  C   UNL     1       2.142   7.284  19.580  0.00  0.00    +0.000 C 
ATOM     23  C   UNL     1       1.899   6.277  20.694  0.00  0.00    +0.000 C 
ATOM     24  C   UNL     1       1.499   4.932  20.097  0.00  0.00    +0.000 C 
ENDBRANCH  13  15
ENDBRANCH   1  13
TORSDOF 5
ENDMDL
MODEL 8
REMARK VINA RESULT:      -7.8      2.100      2.587
REMARK  Name = 
REMARK  5 active torsions:
REMARK  status: ('A' for Active; 'I' for Inactive)
REMARK    1  A    between atoms: C_2  and  O_3
REMARK    2  A    between atoms: C_2  and  C_4
REMARK    3  A    between atoms: C_7  and  S_8
REMARK    4  A    between atoms: S_8  and  N_11
REMARK    5  A    between atoms: N_11  and  C_12
REMARK                            x       y       z     vdW  Elec       q    Type
REMARK                         _______ _______ _______ _____ _____    ______ ____
ROOT
ATOM      1  S   UNL     1       7.018   4.948  18.022  0.00  0.00    +0.000 S 
ATOM      2  O   UNL     1       8.253   4.297  18.401  0.00  0.00    +0.000 OA
ATOM      3  O   UNL     1       6.817   6.373  18.175  0.00  0.00    +0.000 OA
ENDROOT
BRANCH   1   7
ATOM      4  C   UNL     1       7.098   4.718  13.912  0.00  0.00    +0.000 A 
ATOM      5  C   UNL     1       6.011   3.884  14.099  0.00  0.00    +0.000 A 
ATOM      6  S   UNL     1       5.620   3.647  15.746  0.00  0.00    +0.000 S 
ATOM      7  C   UNL     1       6.875   4.686  16.257  0.00  0.00    +0.000 A 
ATOM      8  C   UNL     1       7.581   5.195  15.182  0.00  0.00    +0.000 A 
BRANCH   4  10
ATOM      9  O   UNL     1       7.358   4.371  11.585  0.00  0.00    +0.000 OA
ATOM     10  C   UNL     1       7.595   5.047  12.577  0.00  0.00    +0.000 C 
BRANCH  10  11
ATOM     11  O   UNL     1       8.374   6.155  12.520  0.00  0.00    +0.000 OA
ATOM     12  H   UNL     1       9.262   6.022  12.893  0.00  0.00    +0.000 HD
ENDBRANCH  10  11
ENDBRANCH   4  10
ENDBRANCH   1   7
BRANCH   1  13
ATOM     13  N   UNL     1       5.742   4.078  18.726  0.00  0.00    +0.000 N 
ATOM     14  H   UNL     1       6.069   3.742  19.634  0.00  0.00    +0.000 HD
BRANCH  13  15
ATOM     15  C   UNL     1       4.491   4.771  18.845  0.00  0.00    +0.000 A 
ATOM     16  C   UNL     1       4.327   5.992  18.184  0.00  0.00    +0.000 A 
ATOM     17  C   UNL     1       3.144   6.713  18.339  0.00  0.00    +0.000 A 
ATOM     18  C   UNL     1       2.118   6.204  19.132  0.00  0.00    +0.000 A 
ATOM     19  C   UNL     1       2.251   4.957  19.762  0.00  0.00    +0.000 A 
ATOM     20  C   UNL     1       3.455   4.232  19.631  0.00  0.00    +0.000 A 
ATOM     21  C   UNL     1       3.613   2.879  20.290  0.00  0.00    +0.000 C 
ATOM     22  C   UNL     1       2.588   2.599  21.385  0.00  0.00    +0.000 C 
ATOM     23  C   UNL     1       1.190   2.967  20.912  0.00  0.00    +0.000 C 
ATOM     24  C   UNL     1       1.116   4.463  20.628  0.00  0.00    +0.000 C 
ENDBRANCH  13  15
ENDBRANCH   1  13
TORSDOF 5
ENDMDL
MODEL 9
REMARK VINA RESULT:      -7.7      2.026      2.555
REMARK  Name = 
REMARK  5 active torsions:
REMARK  status: ('A' for Active; 'I' for Inactive)
REMARK    1  A    between atoms: C_2  and  O_3
REMARK    2  A    between atoms: C_2  and  C_4
REMARK    3  A    between atoms: C_7  and  S_8
REMARK    4  A    between atoms: S_8  and  N_11
REMARK    5  A    between atoms: N_11  and  C_12
REMARK                            x       y       z     vdW  Elec       q    Type
REMARK                         _______ _______ _______ _____ _____    ______ ____
ROOT
ATOM      1  S   UNL     1       5.314   6.130  17.590  0.00  0.00    +0.000 S 
ATOM      2  O   UNL     1       5.521   5.147  18.631  0.00  0.00    +0.000 OA
ATOM      3  O   UNL     1       5.976   7.416  17.598  0.00  0.00    +0.000 OA
ENDROOT
BRANCH   1   7
ATOM      4  C   UNL     1       6.877   4.848  14.003  0.00  0.00    +0.000 A 
ATOM      5  C   UNL     1       6.283   3.650  14.357  0.00  0.00    +0.000 A 
ATOM      6  S   UNL     1       5.505   3.709  15.879  0.00  0.00    +0.000 S 
ATOM      7  C   UNL     1       5.911   5.354  16.092  0.00  0.00    +0.000 A 
ATOM      8  C   UNL     1       6.634   5.841  15.018  0.00  0.00    +0.000 A 
BRANCH   4  10
ATOM      9  O   UNL     1       7.391   4.309  11.756  0.00  0.00    +0.000 OA
ATOM     10  C   UNL     1       7.596   5.007  12.740  0.00  0.00    +0.000 C 
BRANCH  10  11
ATOM     11  O   UNL     1       8.541   5.979  12.745  0.00  0.00    +0.000 OA
ATOM     12  H   UNL     1       8.694   6.363  13.625  0.00  0.00    +0.000 HD
ENDBRANCH  10  11
ENDBRANCH   4  10
ENDBRANCH   1   7
BRANCH   1  13
ATOM     13  N   UNL     1       3.639   6.313  17.383  0.00  0.00    +0.000 N 
ATOM     14  H   UNL     1       3.371   5.751  16.573  0.00  0.00    +0.000 HD
BRANCH  13  15
ATOM     15  C   UNL     1       2.822   6.010  18.523  0.00  0.00    +0.000 A 
ATOM     16  C   UNL     1       2.617   6.995  19.492  0.00  0.00    +0.000 A 
ATOM     17  C   UNL     1       1.882   6.701  20.639  0.00  0.00    +0.000 A 
ATOM     18  C   UNL     1       1.331   5.432  20.806  0.00  0.00    +0.000 A 
ATOM     19  C   UNL     1       1.489   4.448  19.818  0.00  0.00    +0.000 A 
ATOM     20  C   UNL     1       2.253   4.730  18.665  0.00  0.00    +0.000 A 
ATOM     21  C   UNL     1       2.423   3.687  17.582  0.00  0.00    +0.000 C 
ATOM     22  C   UNL     1       2.081   2.268  18.027  0.00  0.00    +0.000 C 
ATOM     23  C   UNL     1       0.764   2.252  18.787  0.00  0.00    +0.000 C 
ATOM     24  C   UNL     1       0.890   3.082  20.060  0.00  0.00    +0.000 C 
ENDBRANCH  13  15
ENDBRANCH   1  13
TORSDOF 5
ENDMDL
