MODEL 1
REMARK VINA RESULT:      -7.6      0.000      0.000
REMARK  Name = 
REMARK  4 active torsions:
REMARK  status: ('A' for Active; 'I' for Inactive)
REMARK    1  A    between atoms: C_1  and  C_2
REMARK    2  A    between atoms: C_2  and  N_3
REMARK    3  A    between atoms: C_10  and  C_12
REMARK    4  A    between atoms: C_12  and  C_13
REMARK                            x       y       z     vdW  Elec       q    Type
REMARK                         _______ _______ _______ _____ _____    ______ ____
ROOT
ATOM      1  N   UNL     1      -0.166  11.398  20.064  0.00  0.00    +0.000 NA
ATOM      2  C   UNL     1       0.389  11.078  21.407  0.00  0.00    +0.000 C 
ATOM      3  C   UNL     1       0.468   9.569  21.668  0.00  0.00    +0.000 C 
ATOM      4  C   UNL     1       1.106   8.903  20.509  0.00  0.00    +0.000 A 
ATOM      5  N   UNL     1       1.625   7.646  20.612  0.00  0.00    +0.000 NA
ATOM      6  C   UNL     1       2.100   7.280  19.450  0.00  0.00    +0.000 A 
ATOM      7  N   UNL     1       2.655   6.070  19.143  0.00  0.00    +0.000 N 
ATOM      8  C   UNL     1       2.574   5.032  20.053  0.00  0.00    +0.000 C 
ATOM      9  O   UNL     1       2.008   5.023  21.138  0.00  0.00    +0.000 OA
ATOM     10  S   UNL     1       2.022   8.450  18.197  0.00  0.00    +0.000 S 
ATOM     11  C   UNL     1       1.202   9.499  19.274  0.00  0.00    +0.000 A 
ATOM     12  C   UNL     1       0.698  10.877  18.965  0.00  0.00    +0.000 C 
ATOM     13  H   UNL     1       3.065   5.941  18.233  0.00  0.00    +0.000 HD
ENDROOT
BRANCH   8  14
ATOM     14  C   UNL     1       3.264   3.771  19.615  0.00  0.00    +0.000 C 
ATOM     15  C   UNL     1       3.474   2.653  20.630  0.00  0.00    +0.000 C 
ATOM     16  C   UNL     1       2.395   2.505  19.609  0.00  0.00    +0.000 C 
BRANCH  14  17
ATOM     17  C   UNL     1       4.260   3.899  18.466  0.00  0.00    +0.000 A 
ATOM     18  C   UNL     1       3.866   3.685  17.135  0.00  0.00    +0.000 A 
ATOM     19  C   UNL     1       4.732   3.957  16.074  0.00  0.00    +0.000 A 
ATOM     20  C   UNL     1       6.014   4.436  16.333  0.00  0.00    +0.000 A 
ATOM     21 BR   UNL     1       7.136   4.932  14.896  0.00  0.00    +0.000 Br
ATOM     22  C   UNL     1       6.458   4.582  17.642  0.00  0.00    +0.000 A 
ATOM     23  C   UNL     1       5.589   4.300  18.699  0.00  0.00    +0.000 A 
ENDBRANCH  14  17
ENDBRANCH   8  14
BRANCH   1  25
ATOM     24  C   UNL     1      -0.328  13.407  18.560  0.00  0.00    +0.000 C 
ATOM     25  C   UNL     1      -0.390  12.849  19.975  0.00  0.00    +0.000 C 
ENDBRANCH   1  25
TORSDOF 3
ENDMDL
MODEL 2
REMARK VINA RESULT:      -7.5      3.580      8.483
REMARK  Name = 
REMARK  4 active torsions:
REMARK  status: ('A' for Active; 'I' for Inactive)
REMARK    1  A    between atoms: C_1  and  C_2
REMARK    2  A    between atoms: C_2  and  N_3
REMARK    3  A    between atoms: C_10  and  C_12
REMARK    4  A    between atoms: C_12  and  C_13
REMARK                            x       y       z     vdW  Elec       q    Type
REMARK                         _______ _______ _______ _____ _____    ______ ____
ROOT
ATOM      1  N   UNL     1       3.979   3.359  19.931  0.00  0.00    +0.000 NA
ATOM      2  C   UNL     1       2.634   3.280  20.561  0.00  0.00    +0.000 C 
ATOM      3  C   UNL     1       2.167   4.628  21.126  0.00  0.00    +0.000 C 
ATOM      4  C   UNL     1       2.362   5.682  20.105  0.00  0.00    +0.000 A 
ATOM      5  N   UNL     1       1.718   6.881  20.193  0.00  0.00    +0.000 NA
ATOM      6  C   UNL     1       2.081   7.640  19.192  0.00  0.00    +0.000 A 
ATOM      7  N   UNL     1       1.689   8.928  18.964  0.00  0.00    +0.000 N 
ATOM      8  C   UNL     1       0.984   9.609  19.940  0.00  0.00    +0.000 C 
ATOM      9  O   UNL     1       0.680   9.221  21.060  0.00  0.00    +0.000 OA
ATOM     10  S   UNL     1       3.150   6.930  18.053  0.00  0.00    +0.000 S 
ATOM     11  C   UNL     1       3.202   5.524  19.028  0.00  0.00    +0.000 A 
ATOM     12  C   UNL     1       3.992   4.279  18.755  0.00  0.00    +0.000 C 
ATOM     13  H   UNL     1       1.970   9.377  18.109  0.00  0.00    +0.000 HD
ENDROOT
BRANCH   8  14
ATOM     14  C   UNL     1       0.571  10.999  19.546  0.00  0.00    +0.000 C 
ATOM     15  C   UNL     1       1.221  12.189  20.246  0.00  0.00    +0.000 C 
ATOM     16  C   UNL     1       1.654  11.845  18.859  0.00  0.00    +0.000 C 
BRANCH  14  17
ATOM     17  C   UNL     1      -0.845  11.166  19.005  0.00  0.00    +0.000 A 
ATOM     18  C   UNL     1      -1.323  10.365  17.955  0.00  0.00    +0.000 A 
ATOM     19  C   UNL     1      -2.663  10.405  17.568  0.00  0.00    +0.000 A 
ATOM     20  C   UNL     1      -3.546  11.262  18.221  0.00  0.00    +0.000 A 
ATOM     21 BR   UNL     1      -5.385  11.219  17.790  0.00  0.00    +0.000 Br
ATOM     22  C   UNL     1      -3.086  12.124  19.211  0.00  0.00    +0.000 A 
ATOM     23  C   UNL     1      -1.741  12.084  19.587  0.00  0.00    +0.000 A 
ENDBRANCH  14  17
ENDBRANCH   8  14
BRANCH   1  25
ATOM     24  C   UNL     1       3.655   1.346  18.458  0.00  0.00    +0.000 C 
ATOM     25  C   UNL     1       4.428   1.999  19.596  0.00  0.00    +0.000 C 
ENDBRANCH   1  25
TORSDOF 3
ENDMDL
MODEL 3
REMARK VINA RESULT:      -7.5      1.976      2.672
REMARK  Name = 
REMARK  4 active torsions:
REMARK  status: ('A' for Active; 'I' for Inactive)
REMARK    1  A    between atoms: C_1  and  C_2
REMARK    2  A    between atoms: C_2  and  N_3
REMARK    3  A    between atoms: C_10  and  C_12
REMARK    4  A    between atoms: C_12  and  C_13
REMARK                            x       y       z     vdW  Elec       q    Type
REMARK                         _______ _______ _______ _____ _____    ______ ____
ROOT
ATOM      1  N   UNL     1      -0.607  13.053  21.885  0.00  0.00    +0.000 NA
ATOM      2  C   UNL     1      -0.857  12.829  20.435  0.00  0.00    +0.000 C 
ATOM      3  C   UNL     1       0.148  11.854  19.808  0.00  0.00    +0.000 C 
ATOM      4  C   UNL     1       0.257  10.647  20.658  0.00  0.00    +0.000 A 
ATOM      5  N   UNL     1       0.786   9.486  20.175  0.00  0.00    +0.000 NA
ATOM      6  C   UNL     1       0.794   8.588  21.126  0.00  0.00    +0.000 A 
ATOM      7  N   UNL     1       1.293   7.319  21.042  0.00  0.00    +0.000 N 
ATOM      8  C   UNL     1       2.028   6.948  19.931  0.00  0.00    +0.000 C 
ATOM      9  O   UNL     1       2.356   7.641  18.978  0.00  0.00    +0.000 OA
ATOM     10  S   UNL     1       0.099   9.062  22.621  0.00  0.00    +0.000 S 
ATOM     11  C   UNL     1      -0.152  10.626  21.970  0.00  0.00    +0.000 A 
ATOM     12  C   UNL     1      -0.763  11.798  22.678  0.00  0.00    +0.000 C 
ATOM     13  H   UNL     1       1.161   6.693  21.818  0.00  0.00    +0.000 HD
ENDROOT
BRANCH   8  14
ATOM     14  C   UNL     1       2.477   5.514  19.939  0.00  0.00    +0.000 C 
ATOM     15  C   UNL     1       2.331   4.702  21.221  0.00  0.00    +0.000 C 
ATOM     16  C   UNL     1       1.362   4.471  20.109  0.00  0.00    +0.000 C 
BRANCH  14  17
ATOM     17  C   UNL     1       3.594   5.139  18.971  0.00  0.00    +0.000 A 
ATOM     18  C   UNL     1       3.311   4.650  17.685  0.00  0.00    +0.000 A 
ATOM     19  C   UNL     1       4.325   4.461  16.745  0.00  0.00    +0.000 A 
ATOM     20  C   UNL     1       5.645   4.746  17.085  0.00  0.00    +0.000 A 
ATOM     21 BR   UNL     1       6.999   4.618  15.774  0.00  0.00    +0.000 Br
ATOM     22  C   UNL     1       5.966   5.156  18.375  0.00  0.00    +0.000 A 
ATOM     23  C   UNL     1       4.946   5.335  19.313  0.00  0.00    +0.000 A 
ENDBRANCH  14  17
ENDBRANCH   8  14
BRANCH   1  25
ATOM     24  C   UNL     1      -1.560  14.267  23.871  0.00  0.00    +0.000 C 
ATOM     25  C   UNL     1      -1.481  14.138  22.356  0.00  0.00    +0.000 C 
ENDBRANCH   1  25
TORSDOF 3
ENDMDL
MODEL 4
REMARK VINA RESULT:      -7.2      0.699      1.221
REMARK  Name = 
REMARK  4 active torsions:
REMARK  status: ('A' for Active; 'I' for Inactive)
REMARK    1  A    between atoms: C_1  and  C_2
REMARK    2  A    between atoms: C_2  and  N_3
REMARK    3  A    between atoms: C_10  and  C_12
REMARK    4  A    between atoms: C_12  and  C_13
REMARK                            x       y       z     vdW  Elec       q    Type
REMARK                         _______ _______ _______ _____ _____    ______ ____
ROOT
ATOM      1  N   UNL     1      -0.686  10.898  20.901  0.00  0.00    +0.000 NA
ATOM      2  C   UNL     1      -0.124  10.451  22.204  0.00  0.00    +0.000 C 
ATOM      3  C   UNL     1       0.131   8.938  22.247  0.00  0.00    +0.000 C 
ATOM      4  C   UNL     1       0.868   8.530  21.029  0.00  0.00    +0.000 A 
ATOM      5  N   UNL     1       1.531   7.339  20.968  0.00  0.00    +0.000 NA
ATOM      6  C   UNL     1       2.070   7.207  19.785  0.00  0.00    +0.000 A 
ATOM      7  N   UNL     1       2.772   6.128  19.327  0.00  0.00    +0.000 N 
ATOM      8  C   UNL     1       2.797   4.965  20.075  0.00  0.00    +0.000 C 
ATOM      9  O   UNL     1       2.215   4.730  21.125  0.00  0.00    +0.000 OA
ATOM     10  S   UNL     1       1.877   8.531  18.711  0.00  0.00    +0.000 S 
ATOM     11  C   UNL     1       0.916   9.308  19.897  0.00  0.00    +0.000 A 
ATOM     12  C   UNL     1       0.256  10.649  19.771  0.00  0.00    +0.000 C 
ATOM     13  H   UNL     1       3.212   6.182  18.424  0.00  0.00    +0.000 HD
ENDROOT
BRANCH   8  14
ATOM     14  C   UNL     1       3.643   3.871  19.485  0.00  0.00    +0.000 C 
ATOM     15  C   UNL     1       4.132   2.746  20.392  0.00  0.00    +0.000 C 
ATOM     16  C   UNL     1       3.000   2.476  19.457  0.00  0.00    +0.000 C 
BRANCH  14  17
ATOM     17  C   UNL     1       4.489   4.237  18.270  0.00  0.00    +0.000 A 
ATOM     18  C   UNL     1       5.850   4.559  18.400  0.00  0.00    +0.000 A 
ATOM     19  C   UNL     1       6.661   4.736  17.278  0.00  0.00    +0.000 A 
ATOM     20  C   UNL     1       6.114   4.607  16.003  0.00  0.00    +0.000 A 
ATOM     21 BR   UNL     1       7.237   4.713  14.488  0.00  0.00    +0.000 Br
ATOM     22  C   UNL     1       4.754   4.368  15.843  0.00  0.00    +0.000 A 
ATOM     23  C   UNL     1       3.947   4.200  16.971  0.00  0.00    +0.000 A 
ENDBRANCH  14  17
ENDBRANCH   8  14
BRANCH   1  25
ATOM     24  C   UNL     1      -1.234  13.028  19.679  0.00  0.00    +0.000 C 
ATOM     25  C   UNL     1      -1.080  12.311  21.014  0.00  0.00    +0.000 C 
ENDBRANCH   1  25
TORSDOF 3
ENDMDL
MODEL 5
REMARK VINA RESULT:      -7.2      3.713      8.690
REMARK  Name = 
REMARK  4 active torsions:
REMARK  status: ('A' for Active; 'I' for Inactive)
REMARK    1  A    between atoms: C_1  and  C_2
REMARK    2  A    between atoms: C_2  and  N_3
REMARK    3  A    between atoms: C_10  and  C_12
REMARK    4  A    between atoms: C_12  and  C_13
REMARK                            x       y       z     vdW  Elec       q    Type
REMARK                         _______ _______ _______ _____ _____    ______ ____
ROOT
ATOM      1  N   UNL     1       3.586   3.074  18.802  0.00  0.00    +0.000 NA
ATOM      2  C   UNL     1       4.609   3.917  18.126  0.00  0.00    +0.000 C 
ATOM      3  C   UNL     1       4.012   5.189  17.512  0.00  0.00    +0.000 C 
ATOM      4  C   UNL     1       3.152   5.861  18.513  0.00  0.00    +0.000 A 
ATOM      5  N   UNL     1       2.790   7.169  18.373  0.00  0.00    +0.000 NA
ATOM      6  C   UNL     1       2.013   7.510  19.367  0.00  0.00    +0.000 A 
ATOM      7  N   UNL     1       1.409   8.722  19.549  0.00  0.00    +0.000 N 
ATOM      8  C   UNL     1       1.441   9.658  18.532  0.00  0.00    +0.000 C 
ATOM      9  O   UNL     1       1.919   9.539  17.412  0.00  0.00    +0.000 OA
ATOM     10  S   UNL     1       1.739   6.309  20.561  0.00  0.00    +0.000 S 
ATOM     11  C   UNL     1       2.663   5.213  19.623  0.00  0.00    +0.000 A 
ATOM     12  C   UNL     1       2.953   3.780  19.955  0.00  0.00    +0.000 C 
ATOM     13  H   UNL     1       0.904   8.889  20.403  0.00  0.00    +0.000 HD
ENDROOT
BRANCH   8  14
ATOM     14  C   UNL     1       0.784  10.965  18.876  0.00  0.00    +0.000 C 
ATOM     15  C   UNL     1       1.412  11.847  19.951  0.00  0.00    +0.000 C 
ATOM     16  C   UNL     1       1.585  12.226  18.517  0.00  0.00    +0.000 C 
BRANCH  14  17
ATOM     17  C   UNL     1      -0.724  11.053  18.662  0.00  0.00    +0.000 A 
ATOM     18  C   UNL     1      -1.519  11.920  19.429  0.00  0.00    +0.000 A 
ATOM     19  C   UNL     1      -2.867  12.119  19.128  0.00  0.00    +0.000 A 
ATOM     20  C   UNL     1      -3.444  11.440  18.058  0.00  0.00    +0.000 A 
ATOM     21 BR   UNL     1      -5.230  11.811  17.567  0.00  0.00    +0.000 Br
ATOM     22  C   UNL     1      -2.703  10.516  17.330  0.00  0.00    +0.000 A 
ATOM     23  C   UNL     1      -1.356  10.315  17.643  0.00  0.00    +0.000 A 
ENDBRANCH  14  17
ENDBRANCH   8  14
BRANCH   1  25
ATOM     24  C   UNL     1       4.825   1.791  20.576  0.00  0.00    +0.000 C 
ATOM     25  C   UNL     1       4.203   1.795  19.186  0.00  0.00    +0.000 C 
ENDBRANCH   1  25
TORSDOF 3
ENDMDL
MODEL 6
REMARK VINA RESULT:      -7.1      3.549      8.490
REMARK  Name = 
REMARK  4 active torsions:
REMARK  status: ('A' for Active; 'I' for Inactive)
REMARK    1  A    between atoms: C_1  and  C_2
REMARK    2  A    between atoms: C_2  and  N_3
REMARK    3  A    between atoms: C_10  and  C_12
REMARK    4  A    between atoms: C_12  and  C_13
REMARK                            x       y       z     vdW  Elec       q    Type
REMARK                         _______ _______ _______ _____ _____    ______ ____
ROOT
ATOM      1  N   UNL     1       3.828   3.145  19.988  0.00  0.00    +0.000 NA
ATOM      2  C   UNL     1       2.606   3.143  20.837  0.00  0.00    +0.000 C 
ATOM      3  C   UNL     1       2.266   4.536  21.383  0.00  0.00    +0.000 C 
ATOM      4  C   UNL     1       2.307   5.520  20.276  0.00  0.00    +0.000 A 
ATOM      5  N   UNL     1       1.708   6.740  20.392  0.00  0.00    +0.000 NA
ATOM      6  C   UNL     1       1.912   7.425  19.298  0.00  0.00    +0.000 A 
ATOM      7  N   UNL     1       1.512   8.709  19.055  0.00  0.00    +0.000 N 
ATOM      8  C   UNL     1       0.993   9.468  20.088  0.00  0.00    +0.000 C 
ATOM      9  O   UNL     1       0.874   9.157  21.265  0.00  0.00    +0.000 OA
ATOM     10  S   UNL     1       2.762   6.617  18.045  0.00  0.00    +0.000 S 
ATOM     11  C   UNL     1       2.951   5.271  19.088  0.00  0.00    +0.000 A 
ATOM     12  C   UNL     1       3.661   3.990  18.769  0.00  0.00    +0.000 C 
ATOM     13  H   UNL     1       1.654   9.096  18.137  0.00  0.00    +0.000 HD
ENDROOT
BRANCH   8  14
ATOM     14  C   UNL     1       0.546  10.843  19.678  0.00  0.00    +0.000 C 
ATOM     15  C   UNL     1       1.188  12.056  20.342  0.00  0.00    +0.000 C 
ATOM     16  C   UNL     1       1.597  11.695  18.953  0.00  0.00    +0.000 C 
BRANCH  14  17
ATOM     17  C   UNL     1      -0.885  10.974  19.166  0.00  0.00    +0.000 A 
ATOM     18  C   UNL     1      -1.770  11.918  19.712  0.00  0.00    +0.000 A 
ATOM     19  C   UNL     1      -3.022  12.149  19.139  0.00  0.00    +0.000 A 
ATOM     20  C   UNL     1      -3.412  11.426  18.015  0.00  0.00    +0.000 A 
ATOM     21 BR   UNL     1      -5.047  11.833  17.160  0.00  0.00    +0.000 Br
ATOM     22  C   UNL     1      -2.590  10.430  17.499  0.00  0.00    +0.000 A 
ATOM     23  C   UNL     1      -1.342  10.198  18.083  0.00  0.00    +0.000 A 
ENDBRANCH  14  17
ENDBRANCH   8  14
BRANCH   1  25
ATOM     24  C   UNL     1       3.812   1.312  18.265  0.00  0.00    +0.000 C 
ATOM     25  C   UNL     1       4.190   1.754  19.673  0.00  0.00    +0.000 C 
ENDBRANCH   1  25
TORSDOF 3
ENDMDL
MODEL 7
REMARK VINA RESULT:      -7.0      3.801      8.730
REMARK  Name = 
REMARK  4 active torsions:
REMARK  status: ('A' for Active; 'I' for Inactive)
REMARK    1  A    between atoms: C_1  and  C_2
REMARK    2  A    between atoms: C_2  and  N_3
REMARK    3  A    between atoms: C_10  and  C_12
REMARK    4  A    between atoms: C_12  and  C_13
REMARK                            x       y       z     vdW  Elec       q    Type
REMARK                         _______ _______ _______ _____ _____    ______ ____
ROOT
ATOM      1  N   UNL     1       3.658   3.667  18.960  0.00  0.00    +0.000 NA
ATOM      2  C   UNL     1       4.681   4.543  18.329  0.00  0.00    +0.000 C 
ATOM      3  C   UNL     1       4.070   5.793  17.684  0.00  0.00    +0.000 C 
ATOM      4  C   UNL     1       3.142   6.437  18.642  0.00  0.00    +0.000 A 
ATOM      5  N   UNL     1       2.743   7.732  18.481  0.00  0.00    +0.000 NA
ATOM      6  C   UNL     1       1.910   8.047  19.437  0.00  0.00    +0.000 A 
ATOM      7  N   UNL     1       1.257   9.238  19.587  0.00  0.00    +0.000 N 
ATOM      8  C   UNL     1       1.304  10.173  18.569  0.00  0.00    +0.000 C 
ATOM      9  O   UNL     1       1.837  10.069  17.473  0.00  0.00    +0.000 OA
ATOM     10  S   UNL     1       1.622   6.839  20.621  0.00  0.00    +0.000 S 
ATOM     11  C   UNL     1       2.625   5.775  19.730  0.00  0.00    +0.000 A 
ATOM     12  C   UNL     1       2.948   4.353  20.079  0.00  0.00    +0.000 C 
ATOM     13  H   UNL     1       0.707   9.390  20.416  0.00  0.00    +0.000 HD
ENDROOT
BRANCH   8  14
ATOM     14  C   UNL     1       0.588  11.458  18.879  0.00  0.00    +0.000 C 
ATOM     15  C   UNL     1       1.138  12.365  19.975  0.00  0.00    +0.000 C 
ATOM     16  C   UNL     1       1.359  12.745  18.548  0.00  0.00    +0.000 C 
BRANCH  14  17
ATOM     17  C   UNL     1      -0.911  11.492  18.600  0.00  0.00    +0.000 A 
ATOM     18  C   UNL     1      -1.477  10.728  17.566  0.00  0.00    +0.000 A 
ATOM     19  C   UNL     1      -2.861  10.633  17.412  0.00  0.00    +0.000 A 
ATOM     20  C   UNL     1      -3.702  11.315  18.288  0.00  0.00    +0.000 A 
ATOM     21 BR   UNL     1      -5.572  11.079  18.165  0.00  0.00    +0.000 Br
ATOM     22  C   UNL     1      -3.171  12.141  19.272  0.00  0.00    +0.000 A 
ATOM     23  C   UNL     1      -1.784  12.239  19.414  0.00  0.00    +0.000 A 
ENDBRANCH  14  17
ENDBRANCH   8  14
BRANCH   1  25
ATOM     24  C   UNL     1       3.785   1.173  18.652  0.00  0.00    +0.000 C 
ATOM     25  C   UNL     1       4.299   2.410  19.376  0.00  0.00    +0.000 C 
ENDBRANCH   1  25
TORSDOF 3
ENDMDL
MODEL 8
REMARK VINA RESULT:      -7.0      2.204      3.117
REMARK  Name = 
REMARK  4 active torsions:
REMARK  status: ('A' for Active; 'I' for Inactive)
REMARK    1  A    between atoms: C_1  and  C_2
REMARK    2  A    between atoms: C_2  and  N_3
REMARK    3  A    between atoms: C_10  and  C_12
REMARK    4  A    between atoms: C_12  and  C_13
REMARK                            x       y       z     vdW  Elec       q    Type
REMARK                         _______ _______ _______ _____ _____    ______ ____
ROOT
ATOM      1  N   UNL     1      -1.205  13.142  22.035  0.00  0.00    +0.000 NA
ATOM      2  C   UNL     1      -1.688  12.782  20.674  0.00  0.00    +0.000 C 
ATOM      3  C   UNL     1      -0.689  11.905  19.907  0.00  0.00    +0.000 C 
ATOM      4  C   UNL     1      -0.249  10.788  20.775  0.00  0.00    +0.000 A 
ATOM      5  N   UNL     1       0.341   9.676  20.252  0.00  0.00    +0.000 NA
ATOM      6  C   UNL     1       0.658   8.859  21.223  0.00  0.00    +0.000 A 
ATOM      7  N   UNL     1       1.310   7.665  21.101  0.00  0.00    +0.000 N 
ATOM      8  C   UNL     1       1.869   7.314  19.886  0.00  0.00    +0.000 C 
ATOM      9  O   UNL     1       1.907   7.973  18.856  0.00  0.00    +0.000 OA
ATOM     10  S   UNL     1       0.196   9.345  22.802  0.00  0.00    +0.000 S 
ATOM     11  C   UNL     1      -0.396  10.811  22.141  0.00  0.00    +0.000 A 
ATOM     12  C   UNL     1      -1.026  11.940  22.901  0.00  0.00    +0.000 C 
ATOM     13  H   UNL     1       1.418   7.086  21.917  0.00  0.00    +0.000 HD
ENDROOT
BRANCH   8  14
ATOM     14  C   UNL     1       2.513   5.957  19.872  0.00  0.00    +0.000 C 
ATOM     15  C   UNL     1       2.420   5.082  21.118  0.00  0.00    +0.000 C 
ATOM     16  C   UNL     1       1.549   4.763  19.949  0.00  0.00    +0.000 C 
BRANCH  14  17
ATOM     17  C   UNL     1       3.718   5.779  18.954  0.00  0.00    +0.000 A 
ATOM     18  C   UNL     1       4.911   5.206  19.423  0.00  0.00    +0.000 A 
ATOM     19  C   UNL     1       5.955   4.895  18.549  0.00  0.00    +0.000 A 
ATOM     20  C   UNL     1       5.823   5.168  17.190  0.00  0.00    +0.000 A 
ATOM     21 BR   UNL     1       7.178   4.626  15.990  0.00  0.00    +0.000 Br
ATOM     22  C   UNL     1       4.686   5.807  16.709  0.00  0.00    +0.000 A 
ATOM     23  C   UNL     1       3.649   6.122  17.590  0.00  0.00    +0.000 A 
ENDBRANCH  14  17
ENDBRANCH   8  14
BRANCH   1  25
ATOM     24  C   UNL     1      -2.486  13.871  24.073  0.00  0.00    +0.000 C 
ATOM     25  C   UNL     1      -2.122  14.133  22.618  0.00  0.00    +0.000 C 
ENDBRANCH   1  25
TORSDOF 3
ENDMDL
MODEL 9
REMARK VINA RESULT:      -6.9      1.759      2.422
REMARK  Name = 
REMARK  4 active torsions:
REMARK  status: ('A' for Active; 'I' for Inactive)
REMARK    1  A    between atoms: C_1  and  C_2
REMARK    2  A    between atoms: C_2  and  N_3
REMARK    3  A    between atoms: C_10  and  C_12
REMARK    4  A    between atoms: C_12  and  C_13
REMARK                            x       y       z     vdW  Elec       q    Type
REMARK                         _______ _______ _______ _____ _____    ______ ____
ROOT
ATOM      1  N   UNL     1      -0.032  11.476  20.867  0.00  0.00    +0.000 NA
ATOM      2  C   UNL     1      -0.285  11.375  19.404  0.00  0.00    +0.000 C 
ATOM      3  C   UNL     1       0.864  10.689  18.654  0.00  0.00    +0.000 C 
ATOM      4  C   UNL     1       1.227   9.435  19.354  0.00  0.00    +0.000 A 
ATOM      5  N   UNL     1       1.949   8.460  18.730  0.00  0.00    +0.000 NA
ATOM      6  C   UNL     1       2.160   7.478  19.568  0.00  0.00    +0.000 A 
ATOM      7  N   UNL     1       2.885   6.346  19.328  0.00  0.00    +0.000 N 
ATOM      8  C   UNL     1       3.639   6.252  18.173  0.00  0.00    +0.000 C 
ATOM      9  O   UNL     1       3.797   7.099  17.304  0.00  0.00    +0.000 OA
ATOM     10  S   UNL     1       1.439   7.636  21.117  0.00  0.00    +0.000 S 
ATOM     11  C   UNL     1       0.875   9.188  20.659  0.00  0.00    +0.000 A 
ATOM     12  C   UNL     1       0.079  10.132  21.508  0.00  0.00    +0.000 C 
ATOM     13  H   UNL     1       2.901   5.622  20.027  0.00  0.00    +0.000 HD
ENDROOT
BRANCH   8  14
ATOM     14  C   UNL     1       4.350   4.939  18.005  0.00  0.00    +0.000 C 
ATOM     15  C   UNL     1       4.680   4.114  19.245  0.00  0.00    +0.000 C 
ATOM     16  C   UNL     1       3.538   3.691  18.382  0.00  0.00    +0.000 C 
BRANCH  14  17
ATOM     17  C   UNL     1       5.254   4.799  16.785  0.00  0.00    +0.000 A 
ATOM     18  C   UNL     1       4.750   4.351  15.553  0.00  0.00    +0.000 A 
ATOM     19  C   UNL     1       5.536   4.376  14.399  0.00  0.00    +0.000 A 
ATOM     20  C   UNL     1       6.848   4.839  14.466  0.00  0.00    +0.000 A 
ATOM     21 BR   UNL     1       7.866   5.000  12.883  0.00  0.00    +0.000 Br
ATOM     22  C   UNL     1       7.399   5.214  15.686  0.00  0.00    +0.000 A 
ATOM     23  C   UNL     1       6.609   5.178  16.838  0.00  0.00    +0.000 A 
ENDBRANCH  14  17
ENDBRANCH   8  14
BRANCH   1  25
ATOM     24  C   UNL     1      -1.599  11.796  22.809  0.00  0.00    +0.000 C 
ATOM     25  C   UNL     1      -1.079  12.312  21.474  0.00  0.00    +0.000 C 
ENDBRANCH   1  25
TORSDOF 3
ENDMDL
