MODEL 1
REMARK VINA RESULT:      -8.8      0.000      0.000
REMARK  Name = 
REMARK  10 active torsions:
REMARK  status: ('A' for Active; 'I' for Inactive)
REMARK    1  A    between atoms: C_1  and  C_2
REMARK    2  A    between atoms: C_2  and  O_3
REMARK    3  A    between atoms: O_3  and  C_4
REMARK    4  A    between atoms: C_4  and  C_6
REMARK    5  A    between atoms: C_9  and  C_10
REMARK    6  A    between atoms: C_13  and  O_14
REMARK    7  A    between atoms: O_14  and  C_15
REMARK    8  A    between atoms: C_19  and  N_20
REMARK    9  A    between atoms: N_20  and  N_21
REMARK   10  A    between atoms: C_25  and  C_26
REMARK                            x       y       z     vdW  Elec       q    Type
REMARK                         _______ _______ _______ _____ _____    ______ ____
ROOT
ATOM      1  C   UNL     1       5.483   5.090  16.777  0.00  0.00    +0.000 A 
ATOM      2  C   UNL     1       5.726   6.445  16.879  0.00  0.00    +0.000 A 
ATOM      3  N   UNL     1       4.867   7.329  17.413  0.00  0.00    +0.000 NA
ATOM      4  C   UNL     1       3.690   6.831  17.823  0.00  0.00    +0.000 A 
ATOM      5  N   UNL     1       3.354   5.530  17.769  0.00  0.00    +0.000 NA
ATOM      6  C   UNL     1       4.284   4.643  17.317  0.00  0.00    +0.000 A 
ENDROOT
BRANCH   4   7
ATOM      7  C   UNL     1       2.710   7.801  18.336  0.00  0.00    +0.000 A 
ATOM      8  C   UNL     1       2.305   8.920  17.593  0.00  0.00    +0.000 A 
ATOM      9  C   UNL     1       1.417   9.859  18.133  0.00  0.00    +0.000 A 
ATOM     10  C   UNL     1       0.891   9.687  19.414  0.00  0.00    +0.000 A 
ATOM     11  C   UNL     1       1.275   8.581  20.166  0.00  0.00    +0.000 A 
ATOM     12  C   UNL     1       2.173   7.654  19.629  0.00  0.00    +0.000 A 
BRANCH  10  13
ATOM     13  O   UNL     1       0.052  10.678  19.844  0.00  0.00    +0.000 OA
ATOM     14  C   UNL     1       0.276  11.962  19.269  0.00  0.00    +0.000 C 
ENDBRANCH  10  13
ENDBRANCH   4   7
BRANCH   1  15
ATOM     15  C   UNL     1       6.494   4.313  16.042  0.00  0.00    +0.000 C 
ATOM     16  O   UNL     1       7.683   4.402  16.309  0.00  0.00    +0.000 OA
BRANCH  15  17
ATOM     17  O   UNL     1       5.977   3.615  15.004  0.00  0.00    +0.000 OA
BRANCH  17  19
ATOM     18  C   UNL     1       5.745   3.378  12.554  0.00  0.00    +0.000 C 
ATOM     19  C   UNL     1       6.434   4.063  13.715  0.00  0.00    +0.000 C 
ENDBRANCH  17  19
ENDBRANCH  15  17
ENDBRANCH   1  15
BRANCH   6  20
ATOM     20  N   UNL     1       3.960   3.260  17.361  0.00  0.00    +0.000 N 
ATOM     21  H   UNL     1       4.790   2.673  17.455  0.00  0.00    +0.000 HD
BRANCH  20  22
ATOM     22  N   UNL     1       2.982   2.931  18.328  0.00  0.00    +0.000 N 
ATOM     23  C   UNL     1       1.653   3.230  18.196  0.00  0.00    +0.000 C 
ATOM     24  O   UNL     1       1.043   3.796  17.303  0.00  0.00    +0.000 OA
ATOM     25  C   UNL     1       1.029   2.855  19.471  0.00  0.00    +0.000 C 
ATOM     26  C   UNL     1       2.010   2.622  20.350  0.00  0.00    +0.000 C 
ATOM     27  C   UNL     1       1.909   2.249  21.777  0.00  0.00    +0.000 C 
ATOM     28  C   UNL     1       3.296   2.835  19.652  0.00  0.00    +0.000 C 
ATOM     29  O   UNL     1       4.364   3.000  20.217  0.00  0.00    +0.000 OA
ENDBRANCH  20  22
ENDBRANCH   6  20
TORSDOF 7
ENDMDL
MODEL 2
REMARK VINA RESULT:      -8.7      0.856      1.690
REMARK  Name = 
REMARK  10 active torsions:
REMARK  status: ('A' for Active; 'I' for Inactive)
REMARK    1  A    between atoms: C_1  and  C_2
REMARK    2  A    between atoms: C_2  and  O_3
REMARK    3  A    between atoms: O_3  and  C_4
REMARK    4  A    between atoms: C_4  and  C_6
REMARK    5  A    between atoms: C_9  and  C_10
REMARK    6  A    between atoms: C_13  and  O_14
REMARK    7  A    between atoms: O_14  and  C_15
REMARK    8  A    between atoms: C_19  and  N_20
REMARK    9  A    between atoms: N_20  and  N_21
REMARK   10  A    between atoms: C_25  and  C_26
REMARK                            x       y       z     vdW  Elec       q    Type
REMARK                         _______ _______ _______ _____ _____    ______ ____
ROOT
ATOM      1  C   UNL     1       5.950   5.429  16.787  0.00  0.00    +0.000 A 
ATOM      2  C   UNL     1       5.873   6.795  16.610  0.00  0.00    +0.000 A 
ATOM      3  N   UNL     1       4.908   7.572  17.131  0.00  0.00    +0.000 NA
ATOM      4  C   UNL     1       3.953   6.935  17.827  0.00  0.00    +0.000 A 
ATOM      5  N   UNL     1       3.936   5.610  18.059  0.00  0.00    +0.000 NA
ATOM      6  C   UNL     1       4.980   4.863  17.604  0.00  0.00    +0.000 A 
ENDROOT
BRANCH   4   7
ATOM      7  C   UNL     1       2.849   7.764  18.335  0.00  0.00    +0.000 A 
ATOM      8  C   UNL     1       2.297   8.815  17.588  0.00  0.00    +0.000 A 
ATOM      9  C   UNL     1       1.287   9.625  18.124  0.00  0.00    +0.000 A 
ATOM     10  C   UNL     1       0.787   9.387  19.405  0.00  0.00    +0.000 A 
ATOM     11  C   UNL     1       1.316   8.345  20.160  0.00  0.00    +0.000 A 
ATOM     12  C   UNL     1       2.333   7.547  19.627  0.00  0.00    +0.000 A 
BRANCH  10  13
ATOM     13  O   UNL     1      -0.181  10.254  19.830  0.00  0.00    +0.000 OA
ATOM     14  C   UNL     1      -0.225  11.504  19.147  0.00  0.00    +0.000 C 
ENDBRANCH  10  13
ENDBRANCH   4   7
BRANCH   1  15
ATOM     15  C   UNL     1       7.008   4.745  16.025  0.00  0.00    +0.000 C 
ATOM     16  O   UNL     1       7.937   4.185  16.588  0.00  0.00    +0.000 OA
BRANCH  15  17
ATOM     17  O   UNL     1       6.892   4.912  14.686  0.00  0.00    +0.000 OA
BRANCH  17  19
ATOM     18  C   UNL     1       6.331   3.620  12.654  0.00  0.00    +0.000 C 
ATOM     19  C   UNL     1       5.953   4.014  14.067  0.00  0.00    +0.000 C 
ENDBRANCH  17  19
ENDBRANCH  15  17
ENDBRANCH   1  15
BRANCH   6  20
ATOM     20  N   UNL     1       5.008   3.484  17.943  0.00  0.00    +0.000 N 
ATOM     21  H   UNL     1       5.889   3.212  18.379  0.00  0.00    +0.000 HD
BRANCH  20  22
ATOM     22  N   UNL     1       3.897   3.059  18.709  0.00  0.00    +0.000 N 
ATOM     23  C   UNL     1       4.005   2.357  19.879  0.00  0.00    +0.000 C 
ATOM     24  O   UNL     1       4.985   1.962  20.489  0.00  0.00    +0.000 OA
ATOM     25  C   UNL     1       2.633   1.994  20.255  0.00  0.00    +0.000 C 
ATOM     26  C   UNL     1       1.843   2.246  19.206  0.00  0.00    +0.000 C 
ATOM     27  C   UNL     1       0.389   2.022  19.064  0.00  0.00    +0.000 C 
ATOM     28  C   UNL     1       2.694   2.788  18.126  0.00  0.00    +0.000 C 
ATOM     29  O   UNL     1       2.363   2.842  16.954  0.00  0.00    +0.000 OA
ENDBRANCH  20  22
ENDBRANCH   6  20
TORSDOF 7
ENDMDL
MODEL 3
REMARK VINA RESULT:      -8.6      0.679      1.133
REMARK  Name = 
REMARK  10 active torsions:
REMARK  status: ('A' for Active; 'I' for Inactive)
REMARK    1  A    between atoms: C_1  and  C_2
REMARK    2  A    between atoms: C_2  and  O_3
REMARK    3  A    between atoms: O_3  and  C_4
REMARK    4  A    between atoms: C_4  and  C_6
REMARK    5  A    between atoms: C_9  and  C_10
REMARK    6  A    between atoms: C_13  and  O_14
REMARK    7  A    between atoms: O_14  and  C_15
REMARK    8  A    between atoms: C_19  and  N_20
REMARK    9  A    between atoms: N_20  and  N_21
REMARK   10  A    between atoms: C_25  and  C_26
REMARK                            x       y       z     vdW  Elec       q    Type
REMARK                         _______ _______ _______ _____ _____    ______ ____
ROOT
ATOM      1  C   UNL     1       5.650   5.093  16.678  0.00  0.00    +0.000 A 
ATOM      2  C   UNL     1       5.649   6.461  16.497  0.00  0.00    +0.000 A 
ATOM      3  N   UNL     1       4.774   7.300  17.077  0.00  0.00    +0.000 NA
ATOM      4  C   UNL     1       3.829   6.728  17.839  0.00  0.00    +0.000 A 
ATOM      5  N   UNL     1       3.742   5.408  18.081  0.00  0.00    +0.000 NA
ATOM      6  C   UNL     1       4.703   4.593  17.563  0.00  0.00    +0.000 A 
ENDROOT
BRANCH   4   7
ATOM      7  C   UNL     1       2.817   7.628  18.414  0.00  0.00    +0.000 A 
ATOM      8  C   UNL     1       2.310   7.455  19.710  0.00  0.00    +0.000 A 
ATOM      9  C   UNL     1       1.303   8.292  20.207  0.00  0.00    +0.000 A 
ATOM     10  C   UNL     1       0.799   9.338  19.432  0.00  0.00    +0.000 A 
ATOM     11  C   UNL     1       1.292   9.531  18.146  0.00  0.00    +0.000 A 
ATOM     12  C   UNL     1       2.287   8.685  17.648  0.00  0.00    +0.000 A 
BRANCH  10  13
ATOM     13  O   UNL     1      -0.196  10.074  20.012  0.00  0.00    +0.000 OA
ATOM     14  C   UNL     1       0.069  10.524  21.338  0.00  0.00    +0.000 C 
ENDBRANCH  10  13
ENDBRANCH   4   7
BRANCH   1  15
ATOM     15  C   UNL     1       6.608   4.340  15.853  0.00  0.00    +0.000 C 
ATOM     16  O   UNL     1       7.814   4.487  15.983  0.00  0.00    +0.000 OA
BRANCH  15  17
ATOM     17  O   UNL     1       6.011   3.593  14.894  0.00  0.00    +0.000 OA
BRANCH  17  19
ATOM     18  C   UNL     1       5.467   3.428  12.488  0.00  0.00    +0.000 C 
ATOM     19  C   UNL     1       6.417   3.930  13.555  0.00  0.00    +0.000 C 
ENDBRANCH  17  19
ENDBRANCH  15  17
ENDBRANCH   1  15
BRANCH   6  20
ATOM     20  N   UNL     1       4.664   3.216  17.909  0.00  0.00    +0.000 N 
ATOM     21  H   UNL     1       5.499   2.923  18.416  0.00  0.00    +0.000 HD
BRANCH  20  22
ATOM     22  N   UNL     1       3.484   2.828  18.584  0.00  0.00    +0.000 N 
ATOM     23  C   UNL     1       2.246   2.808  18.001  0.00  0.00    +0.000 C 
ATOM     24  O   UNL     1       1.889   3.093  16.869  0.00  0.00    +0.000 OA
ATOM     25  C   UNL     1       1.300   2.497  19.080  0.00  0.00    +0.000 C 
ATOM     26  C   UNL     1       1.954   2.613  20.241  0.00  0.00    +0.000 C 
ATOM     27  C   UNL     1       1.443   2.439  21.616  0.00  0.00    +0.000 C 
ATOM     28  C   UNL     1       3.348   2.996  19.931  0.00  0.00    +0.000 C 
ATOM     29  O   UNL     1       4.126   3.469  20.742  0.00  0.00    +0.000 OA
ENDBRANCH  20  22
ENDBRANCH   6  20
TORSDOF 7
ENDMDL
MODEL 4
REMARK VINA RESULT:      -8.6      0.997      1.998
REMARK  Name = 
REMARK  10 active torsions:
REMARK  status: ('A' for Active; 'I' for Inactive)
REMARK    1  A    between atoms: C_1  and  C_2
REMARK    2  A    between atoms: C_2  and  O_3
REMARK    3  A    between atoms: O_3  and  C_4
REMARK    4  A    between atoms: C_4  and  C_6
REMARK    5  A    between atoms: C_9  and  C_10
REMARK    6  A    between atoms: C_13  and  O_14
REMARK    7  A    between atoms: O_14  and  C_15
REMARK    8  A    between atoms: C_19  and  N_20
REMARK    9  A    between atoms: N_20  and  N_21
REMARK   10  A    between atoms: C_25  and  C_26
REMARK                            x       y       z     vdW  Elec       q    Type
REMARK                         _______ _______ _______ _____ _____    ______ ____
ROOT
ATOM      1  C   UNL     1       5.800   5.549  16.615  0.00  0.00    +0.000 A 
ATOM      2  C   UNL     1       5.681   6.911  16.430  0.00  0.00    +0.000 A 
ATOM      3  N   UNL     1       4.748   7.676  17.022  0.00  0.00    +0.000 NA
ATOM      4  C   UNL     1       3.867   7.031  17.802  0.00  0.00    +0.000 A 
ATOM      5  N   UNL     1       3.895   5.709  18.049  0.00  0.00    +0.000 NA
ATOM      6  C   UNL     1       4.912   4.976  17.517  0.00  0.00    +0.000 A 
ENDROOT
BRANCH   4   7
ATOM      7  C   UNL     1       2.793   7.846  18.391  0.00  0.00    +0.000 A 
ATOM      8  C   UNL     1       2.299   7.612  19.683  0.00  0.00    +0.000 A 
ATOM      9  C   UNL     1       1.234   8.367  20.193  0.00  0.00    +0.000 A 
ATOM     10  C   UNL     1       0.659   9.389  19.437  0.00  0.00    +0.000 A 
ATOM     11  C   UNL     1       1.138   9.641  18.156  0.00  0.00    +0.000 A 
ATOM     12  C   UNL     1       2.192   8.877  17.644  0.00  0.00    +0.000 A 
BRANCH  10  13
ATOM     13  O   UNL     1      -0.386  10.042  20.029  0.00  0.00    +0.000 OA
ATOM     14  C   UNL     1      -0.300  10.179  21.444  0.00  0.00    +0.000 C 
ENDBRANCH  10  13
ENDBRANCH   4   7
BRANCH   1  15
ATOM     15  C   UNL     1       6.803   4.875  15.776  0.00  0.00    +0.000 C 
ATOM     16  O   UNL     1       7.759   4.295  16.268  0.00  0.00    +0.000 OA
BRANCH  15  17
ATOM     17  O   UNL     1       6.608   5.075  14.450  0.00  0.00    +0.000 OA
BRANCH  17  19
ATOM     18  C   UNL     1       6.527   3.681  12.411  0.00  0.00    +0.000 C 
ATOM     19  C   UNL     1       5.962   3.974  13.784  0.00  0.00    +0.000 C 
ENDBRANCH  17  19
ENDBRANCH  15  17
ENDBRANCH   1  15
BRANCH   6  20
ATOM     20  N   UNL     1       4.994   3.601  17.867  0.00  0.00    +0.000 N 
ATOM     21  H   UNL     1       5.887   3.369  18.304  0.00  0.00    +0.000 HD
BRANCH  20  22
ATOM     22  N   UNL     1       3.903   3.141  18.640  0.00  0.00    +0.000 N 
ATOM     23  C   UNL     1       4.041   2.428  19.800  0.00  0.00    +0.000 C 
ATOM     24  O   UNL     1       5.037   2.051  20.396  0.00  0.00    +0.000 OA
ATOM     25  C   UNL     1       2.682   2.027  20.187  0.00  0.00    +0.000 C 
ATOM     26  C   UNL     1       1.875   2.271  19.149  0.00  0.00    +0.000 C 
ATOM     27  C   UNL     1       0.426   2.011  19.018  0.00  0.00    +0.000 C 
ATOM     28  C   UNL     1       2.701   2.846  18.066  0.00  0.00    +0.000 C 
ATOM     29  O   UNL     1       2.356   2.905  16.898  0.00  0.00    +0.000 OA
ENDBRANCH  20  22
ENDBRANCH   6  20
TORSDOF 7
ENDMDL
MODEL 5
REMARK VINA RESULT:      -8.3      0.987      1.916
REMARK  Name = 
REMARK  10 active torsions:
REMARK  status: ('A' for Active; 'I' for Inactive)
REMARK    1  A    between atoms: C_1  and  C_2
REMARK    2  A    between atoms: C_2  and  O_3
REMARK    3  A    between atoms: O_3  and  C_4
REMARK    4  A    between atoms: C_4  and  C_6
REMARK    5  A    between atoms: C_9  and  C_10
REMARK    6  A    between atoms: C_13  and  O_14
REMARK    7  A    between atoms: O_14  and  C_15
REMARK    8  A    between atoms: C_19  and  N_20
REMARK    9  A    between atoms: N_20  and  N_21
REMARK   10  A    between atoms: C_25  and  C_26
REMARK                            x       y       z     vdW  Elec       q    Type
REMARK                         _______ _______ _______ _____ _____    ______ ____
ROOT
ATOM      1  C   UNL     1       5.034   5.459  16.648  0.00  0.00    +0.000 A 
ATOM      2  C   UNL     1       5.204   6.827  16.715  0.00  0.00    +0.000 A 
ATOM      3  N   UNL     1       4.365   7.663  17.351  0.00  0.00    +0.000 NA
ATOM      4  C   UNL     1       3.284   7.097  17.909  0.00  0.00    +0.000 A 
ATOM      5  N   UNL     1       3.026   5.777  17.903  0.00  0.00    +0.000 NA
ATOM      6  C   UNL     1       3.944   4.944  17.339  0.00  0.00    +0.000 A 
ENDROOT
BRANCH   4   7
ATOM      7  C   UNL     1       2.318   8.011  18.540  0.00  0.00    +0.000 A 
ATOM      8  C   UNL     1       1.936   7.885  19.883  0.00  0.00    +0.000 A 
ATOM      9  C   UNL     1       0.968   8.734  20.438  0.00  0.00    +0.000 A 
ATOM     10  C   UNL     1       0.383   9.743  19.673  0.00  0.00    +0.000 A 
ATOM     11  C   UNL     1       0.753   9.889  18.340  0.00  0.00    +0.000 A 
ATOM     12  C   UNL     1       1.708   9.032  17.786  0.00  0.00    +0.000 A 
BRANCH  10  13
ATOM     13  O   UNL     1      -0.563  10.494  20.314  0.00  0.00    +0.000 OA
ATOM     14  C   UNL     1      -1.393  11.285  19.469  0.00  0.00    +0.000 C 
ENDBRANCH  10  13
ENDBRANCH   4   7
BRANCH   1  15
ATOM     15  C   UNL     1       5.991   4.738  15.793  0.00  0.00    +0.000 C 
ATOM     16  O   UNL     1       5.612   3.970  14.921  0.00  0.00    +0.000 OA
BRANCH  15  17
ATOM     17  O   UNL     1       7.280   4.928  16.160  0.00  0.00    +0.000 OA
BRANCH  17  19
ATOM     18  C   UNL     1       7.870   5.456  18.502  0.00  0.00    +0.000 C 
ATOM     19  C   UNL     1       7.603   4.394  17.457  0.00  0.00    +0.000 C 
ENDBRANCH  17  19
ENDBRANCH  15  17
ENDBRANCH   1  15
BRANCH   6  20
ATOM     20  N   UNL     1       3.716   3.545  17.429  0.00  0.00    +0.000 N 
ATOM     21  H   UNL     1       4.582   3.022  17.563  0.00  0.00    +0.000 HD
BRANCH  20  22
ATOM     22  N   UNL     1       2.739   3.184  18.385  0.00  0.00    +0.000 N 
ATOM     23  C   UNL     1       1.401   3.433  18.236  0.00  0.00    +0.000 C 
ATOM     24  O   UNL     1       0.783   3.974  17.333  0.00  0.00    +0.000 OA
ATOM     25  C   UNL     1       0.777   3.040  19.505  0.00  0.00    +0.000 C 
ATOM     26  C   UNL     1       1.755   2.846  20.397  0.00  0.00    +0.000 C 
ATOM     27  C   UNL     1       1.650   2.474  21.823  0.00  0.00    +0.000 C 
ATOM     28  C   UNL     1       3.040   3.103  19.713  0.00  0.00    +0.000 C 
ATOM     29  O   UNL     1       4.094   3.309  20.290  0.00  0.00    +0.000 OA
ENDBRANCH  20  22
ENDBRANCH   6  20
TORSDOF 7
ENDMDL
MODEL 6
REMARK VINA RESULT:      -8.3      2.246      5.126
REMARK  Name = 
REMARK  10 active torsions:
REMARK  status: ('A' for Active; 'I' for Inactive)
REMARK    1  A    between atoms: C_1  and  C_2
REMARK    2  A    between atoms: C_2  and  O_3
REMARK    3  A    between atoms: O_3  and  C_4
REMARK    4  A    between atoms: C_4  and  C_6
REMARK    5  A    between atoms: C_9  and  C_10
REMARK    6  A    between atoms: C_13  and  O_14
REMARK    7  A    between atoms: O_14  and  C_15
REMARK    8  A    between atoms: C_19  and  N_20
REMARK    9  A    between atoms: N_20  and  N_21
REMARK   10  A    between atoms: C_25  and  C_26
REMARK                            x       y       z     vdW  Elec       q    Type
REMARK                         _______ _______ _______ _____ _____    ______ ____
ROOT
ATOM      1  C   UNL     1       3.933   3.083  19.591  0.00  0.00    +0.000 A 
ATOM      2  C   UNL     1       2.653   3.311  20.053  0.00  0.00    +0.000 A 
ATOM      3  N   UNL     1       2.064   4.519  20.082  0.00  0.00    +0.000 NA
ATOM      4  C   UNL     1       2.816   5.550  19.667  0.00  0.00    +0.000 A 
ATOM      5  N   UNL     1       4.071   5.436  19.198  0.00  0.00    +0.000 NA
ATOM      6  C   UNL     1       4.606   4.188  19.084  0.00  0.00    +0.000 A 
ENDROOT
BRANCH   4   7
ATOM      7  C   UNL     1       2.210   6.886  19.770  0.00  0.00    +0.000 A 
ATOM      8  C   UNL     1       1.546   7.320  20.927  0.00  0.00    +0.000 A 
ATOM      9  C   UNL     1       0.926   8.576  20.972  0.00  0.00    +0.000 A 
ATOM     10  C   UNL     1       0.979   9.437  19.875  0.00  0.00    +0.000 A 
ATOM     11  C   UNL     1       1.637   9.028  18.720  0.00  0.00    +0.000 A 
ATOM     12  C   UNL     1       2.243   7.769  18.673  0.00  0.00    +0.000 A 
BRANCH  10  13
ATOM     13  O   UNL     1       0.320  10.625  20.027  0.00  0.00    +0.000 OA
ATOM     14  C   UNL     1       1.136  11.735  20.389  0.00  0.00    +0.000 C 
ENDBRANCH  10  13
ENDBRANCH   4   7
BRANCH   1  15
ATOM     15  C   UNL     1       4.440   1.712  19.764  0.00  0.00    +0.000 C 
ATOM     16  O   UNL     1       4.138   0.818  18.988  0.00  0.00    +0.000 OA
BRANCH  15  17
ATOM     17  O   UNL     1       5.149   1.549  20.906  0.00  0.00    +0.000 OA
BRANCH  17  19
ATOM     18  C   UNL     1       6.451   0.038  22.367  0.00  0.00    +0.000 C 
ATOM     19  C   UNL     1       5.632   0.208  21.105  0.00  0.00    +0.000 C 
ENDBRANCH  17  19
ENDBRANCH  15  17
ENDBRANCH   1  15
BRANCH   6  20
ATOM     20  N   UNL     1       5.890   4.067  18.490  0.00  0.00    +0.000 N 
ATOM     21  H   UNL     1       5.896   3.400  17.718  0.00  0.00    +0.000 HD
BRANCH  20  22
ATOM     22  N   UNL     1       6.466   5.302  18.113  0.00  0.00    +0.000 N 
ATOM     23  C   UNL     1       6.699   5.668  16.815  0.00  0.00    +0.000 C 
ATOM     24  O   UNL     1       6.489   5.079  15.767  0.00  0.00    +0.000 OA
ATOM     25  C   UNL     1       7.435   6.936  16.882  0.00  0.00    +0.000 C 
ATOM     26  C   UNL     1       7.825   7.114  18.149  0.00  0.00    +0.000 C 
ATOM     27  C   UNL     1       8.623   8.215  18.729  0.00  0.00    +0.000 C 
ATOM     28  C   UNL     1       7.337   5.960  18.932  0.00  0.00    +0.000 C 
ATOM     29  O   UNL     1       7.759   5.651  20.034  0.00  0.00    +0.000 OA
ENDBRANCH  20  22
ENDBRANCH   6  20
TORSDOF 7
ENDMDL
MODEL 7
REMARK VINA RESULT:      -8.2      1.045      1.934
REMARK  Name = 
REMARK  10 active torsions:
REMARK  status: ('A' for Active; 'I' for Inactive)
REMARK    1  A    between atoms: C_1  and  C_2
REMARK    2  A    between atoms: C_2  and  O_3
REMARK    3  A    between atoms: O_3  and  C_4
REMARK    4  A    between atoms: C_4  and  C_6
REMARK    5  A    between atoms: C_9  and  C_10
REMARK    6  A    between atoms: C_13  and  O_14
REMARK    7  A    between atoms: O_14  and  C_15
REMARK    8  A    between atoms: C_19  and  N_20
REMARK    9  A    between atoms: N_20  and  N_21
REMARK   10  A    between atoms: C_25  and  C_26
REMARK                            x       y       z     vdW  Elec       q    Type
REMARK                         _______ _______ _______ _____ _____    ______ ____
ROOT
ATOM      1  C   UNL     1       4.574   5.358  16.942  0.00  0.00    +0.000 A 
ATOM      2  C   UNL     1       4.804   6.716  16.872  0.00  0.00    +0.000 A 
ATOM      3  N   UNL     1       4.011   7.647  17.428  0.00  0.00    +0.000 NA
ATOM      4  C   UNL     1       2.912   7.189  18.046  0.00  0.00    +0.000 A 
ATOM      5  N   UNL     1       2.596   5.888  18.173  0.00  0.00    +0.000 NA
ATOM      6  C   UNL     1       3.470   4.963  17.688  0.00  0.00    +0.000 A 
ENDROOT
BRANCH   4   7
ATOM      7  C   UNL     1       1.995   8.204  18.590  0.00  0.00    +0.000 A 
ATOM      8  C   UNL     1       1.708   8.296  19.959  0.00  0.00    +0.000 A 
ATOM      9  C   UNL     1       0.783   9.234  20.438  0.00  0.00    +0.000 A 
ATOM     10  C   UNL     1       0.147  10.117  19.566  0.00  0.00    +0.000 A 
ATOM     11  C   UNL     1       0.422  10.046  18.204  0.00  0.00    +0.000 A 
ATOM     12  C   UNL     1       1.334   9.100  17.727  0.00  0.00    +0.000 A 
BRANCH  10  13
ATOM     13  O   UNL     1      -0.750  10.972  20.144  0.00  0.00    +0.000 OA
ATOM     14  C   UNL     1      -1.599  11.672  19.239  0.00  0.00    +0.000 C 
ENDBRANCH  10  13
ENDBRANCH   4   7
BRANCH   1  15
ATOM     15  C   UNL     1       5.488   4.513  16.157  0.00  0.00    +0.000 C 
ATOM     16  O   UNL     1       6.483   4.011  16.660  0.00  0.00    +0.000 OA
BRANCH  15  17
ATOM     17  O   UNL     1       5.170   4.465  14.842  0.00  0.00    +0.000 OA
BRANCH  17  19
ATOM     18  C   UNL     1       5.892   3.495  12.686  0.00  0.00    +0.000 C 
ATOM     19  C   UNL     1       6.286   4.169  13.982  0.00  0.00    +0.000 C 
ENDBRANCH  17  19
ENDBRANCH  15  17
ENDBRANCH   1  15
BRANCH   6  20
ATOM     20  N   UNL     1       3.181   3.591  17.917  0.00  0.00    +0.000 N 
ATOM     21  H   UNL     1       3.844   2.974  17.446  0.00  0.00    +0.000 HD
BRANCH  20  22
ATOM     22  N   UNL     1       3.042   3.256  19.284  0.00  0.00    +0.000 N 
ATOM     23  C   UNL     1       4.014   2.629  20.016  0.00  0.00    +0.000 C 
ATOM     24  O   UNL     1       5.128   2.243  19.704  0.00  0.00    +0.000 OA
ATOM     25  C   UNL     1       3.407   2.339  21.321  0.00  0.00    +0.000 C 
ATOM     26  C   UNL     1       2.090   2.547  21.213  0.00  0.00    +0.000 C 
ATOM     27  C   UNL     1       1.034   2.362  22.231  0.00  0.00    +0.000 C 
ATOM     28  C   UNL     1       1.820   2.987  19.828  0.00  0.00    +0.000 C 
ATOM     29  O   UNL     1       0.717   2.974  19.307  0.00  0.00    +0.000 OA
ENDBRANCH  20  22
ENDBRANCH   6  20
TORSDOF 7
ENDMDL
MODEL 8
REMARK VINA RESULT:      -8.2      1.437      2.307
REMARK  Name = 
REMARK  10 active torsions:
REMARK  status: ('A' for Active; 'I' for Inactive)
REMARK    1  A    between atoms: C_1  and  C_2
REMARK    2  A    between atoms: C_2  and  O_3
REMARK    3  A    between atoms: O_3  and  C_4
REMARK    4  A    between atoms: C_4  and  C_6
REMARK    5  A    between atoms: C_9  and  C_10
REMARK    6  A    between atoms: C_13  and  O_14
REMARK    7  A    between atoms: O_14  and  C_15
REMARK    8  A    between atoms: C_19  and  N_20
REMARK    9  A    between atoms: N_20  and  N_21
REMARK   10  A    between atoms: C_25  and  C_26
REMARK                            x       y       z     vdW  Elec       q    Type
REMARK                         _______ _______ _______ _____ _____    ______ ____
ROOT
ATOM      1  C   UNL     1       4.476   5.746  16.878  0.00  0.00    +0.000 A 
ATOM      2  C   UNL     1       4.648   7.115  16.858  0.00  0.00    +0.000 A 
ATOM      3  N   UNL     1       3.830   7.988  17.469  0.00  0.00    +0.000 NA
ATOM      4  C   UNL     1       2.765   7.460  18.091  0.00  0.00    +0.000 A 
ATOM      5  N   UNL     1       2.506   6.142  18.170  0.00  0.00    +0.000 NA
ATOM      6  C   UNL     1       3.406   5.275  17.629  0.00  0.00    +0.000 A 
ENDROOT
BRANCH   4   7
ATOM      7  C   UNL     1       1.819   8.412  18.695  0.00  0.00    +0.000 A 
ATOM      8  C   UNL     1       1.211   9.434  17.953  0.00  0.00    +0.000 A 
ATOM      9  C   UNL     1       0.362  10.363  18.570  0.00  0.00    +0.000 A 
ATOM     10  C   UNL     1       0.079  10.274  19.934  0.00  0.00    +0.000 A 
ATOM     11  C   UNL     1       0.668   9.263  20.687  0.00  0.00    +0.000 A 
ATOM     12  C   UNL     1       1.526   8.347  20.071  0.00  0.00    +0.000 A 
BRANCH  10  13
ATOM     13  O   UNL     1      -0.744  11.246  20.429  0.00  0.00    +0.000 OA
ATOM     14  C   UNL     1      -1.764  11.695  19.542  0.00  0.00    +0.000 C 
ENDBRANCH  10  13
ENDBRANCH   4   7
BRANCH   1  15
ATOM     15  C   UNL     1       5.406   4.973  16.039  0.00  0.00    +0.000 C 
ATOM     16  O   UNL     1       5.416   5.092  14.823  0.00  0.00    +0.000 OA
BRANCH  15  17
ATOM     17  O   UNL     1       6.128   4.067  16.741  0.00  0.00    +0.000 OA
BRANCH  17  19
ATOM     18  C   UNL     1       7.596   5.222  18.361  0.00  0.00    +0.000 C 
ATOM     19  C   UNL     1       7.469   4.496  17.038  0.00  0.00    +0.000 C 
ENDBRANCH  17  19
ENDBRANCH  15  17
ENDBRANCH   1  15
BRANCH   6  20
ATOM     20  N   UNL     1       3.180   3.884  17.808  0.00  0.00    +0.000 N 
ATOM     21  H   UNL     1       3.872   3.316  17.319  0.00  0.00    +0.000 HD
BRANCH  20  22
ATOM     22  N   UNL     1       3.052   3.494  19.162  0.00  0.00    +0.000 N 
ATOM     23  C   UNL     1       4.074   2.958  19.898  0.00  0.00    +0.000 C 
ATOM     24  O   UNL     1       5.231   2.710  19.601  0.00  0.00    +0.000 OA
ATOM     25  C   UNL     1       3.478   2.562  21.180  0.00  0.00    +0.000 C 
ATOM     26  C   UNL     1       2.148   2.624  21.047  0.00  0.00    +0.000 C 
ATOM     27  C   UNL     1       1.100   2.291  22.035  0.00  0.00    +0.000 C 
ATOM     28  C   UNL     1       1.857   3.073  19.669  0.00  0.00    +0.000 C 
ATOM     29  O   UNL     1       0.774   2.953  19.123  0.00  0.00    +0.000 OA
ENDBRANCH  20  22
ENDBRANCH   6  20
TORSDOF 7
ENDMDL
MODEL 9
REMARK VINA RESULT:      -8.2      1.004      1.679
REMARK  Name = 
REMARK  10 active torsions:
REMARK  status: ('A' for Active; 'I' for Inactive)
REMARK    1  A    between atoms: C_1  and  C_2
REMARK    2  A    between atoms: C_2  and  O_3
REMARK    3  A    between atoms: O_3  and  C_4
REMARK    4  A    between atoms: C_4  and  C_6
REMARK    5  A    between atoms: C_9  and  C_10
REMARK    6  A    between atoms: C_13  and  O_14
REMARK    7  A    between atoms: O_14  and  C_15
REMARK    8  A    between atoms: C_19  and  N_20
REMARK    9  A    between atoms: N_20  and  N_21
REMARK   10  A    between atoms: C_25  and  C_26
REMARK                            x       y       z     vdW  Elec       q    Type
REMARK                         _______ _______ _______ _____ _____    ______ ____
ROOT
ATOM      1  C   UNL     1       4.663   5.245  16.539  0.00  0.00    +0.000 A 
ATOM      2  C   UNL     1       4.930   6.593  16.424  0.00  0.00    +0.000 A 
ATOM      3  N   UNL     1       4.229   7.558  17.043  0.00  0.00    +0.000 NA
ATOM      4  C   UNL     1       3.183   7.146  17.776  0.00  0.00    +0.000 A 
ATOM      5  N   UNL     1       2.838   5.859  17.953  0.00  0.00    +0.000 NA
ATOM      6  C   UNL     1       3.627   4.898  17.397  0.00  0.00    +0.000 A 
ENDROOT
BRANCH   4   7
ATOM      7  C   UNL     1       2.359   8.198  18.392  0.00  0.00    +0.000 A 
ATOM      8  C   UNL     1       2.083   9.410  17.742  0.00  0.00    +0.000 A 
ATOM      9  C   UNL     1       1.347  10.417  18.381  0.00  0.00    +0.000 A 
ATOM     10  C   UNL     1       0.847  10.226  19.669  0.00  0.00    +0.000 A 
ATOM     11  C   UNL     1       1.104   9.029  20.329  0.00  0.00    +0.000 A 
ATOM     12  C   UNL     1       1.851   8.032  19.695  0.00  0.00    +0.000 A 
BRANCH  10  13
ATOM     13  O   UNL     1       0.163  11.285  20.198  0.00  0.00    +0.000 OA
ATOM     14  C   UNL     1      -1.245  11.273  19.984  0.00  0.00    +0.000 C 
ENDBRANCH  10  13
ENDBRANCH   4   7
BRANCH   1  15
ATOM     15  C   UNL     1       5.465   4.359  15.679  0.00  0.00    +0.000 C 
ATOM     16  O   UNL     1       5.792   3.240  16.046  0.00  0.00    +0.000 OA
BRANCH  15  17
ATOM     17  O   UNL     1       5.876   4.958  14.536  0.00  0.00    +0.000 OA
BRANCH  17  19
ATOM     18  C   UNL     1       5.543   3.477  12.585  0.00  0.00    +0.000 C 
ATOM     19  C   UNL     1       6.502   4.060  13.601  0.00  0.00    +0.000 C 
ENDBRANCH  17  19
ENDBRANCH  15  17
ENDBRANCH   1  15
BRANCH   6  20
ATOM     20  N   UNL     1       3.318   3.540  17.676  0.00  0.00    +0.000 N 
ATOM     21  H   UNL     1       3.979   2.897  17.240  0.00  0.00    +0.000 HD
BRANCH  20  22
ATOM     22  N   UNL     1       3.154   3.260  19.053  0.00  0.00    +0.000 N 
ATOM     23  C   UNL     1       4.151   2.773  19.854  0.00  0.00    +0.000 C 
ATOM     24  O   UNL     1       5.311   2.488  19.605  0.00  0.00    +0.000 OA
ATOM     25  C   UNL     1       3.521   2.487  21.149  0.00  0.00    +0.000 C 
ATOM     26  C   UNL     1       2.195   2.554  20.980  0.00  0.00    +0.000 C 
ATOM     27  C   UNL     1       1.121   2.314  21.966  0.00  0.00    +0.000 C 
ATOM     28  C   UNL     1       1.942   2.895  19.564  0.00  0.00    +0.000 C 
ATOM     29  O   UNL     1       0.870   2.744  19.003  0.00  0.00    +0.000 OA
ENDBRANCH  20  22
ENDBRANCH   6  20
TORSDOF 7
ENDMDL
