MODEL 1
REMARK VINA RESULT:      -6.5      0.000      0.000
REMARK  Name = 
REMARK  15 active torsions:
REMARK  status: ('A' for Active; 'I' for Inactive)
REMARK    1  A    between atoms: C_1  and  C_2
REMARK    2  A    between atoms: C_2  and  C_3
REMARK    3  A    between atoms: C_3  and  C_4
REMARK    4  A    between atoms: C_4  and  C_5
REMARK    5  A    between atoms: C_5  and  C_6
REMARK    6  A    between atoms: C_6  and  C_7
REMARK    7  A    between atoms: C_7  and  C_8
REMARK    8  A    between atoms: C_8  and  C_9
REMARK    9  A    between atoms: C_9  and  C_10
REMARK   10  A    between atoms: C_10  and  C_11
REMARK   11  A    between atoms: C_11  and  C_12
REMARK   12  A    between atoms: C_12  and  N_13
REMARK   13  A    between atoms: C_14  and  C_16
REMARK   14  A    between atoms: C_19  and  C_20
REMARK   15  A    between atoms: C_23  and  N_24
REMARK                            x       y       z     vdW  Elec       q    Type
REMARK                         _______ _______ _______ _____ _____    ______ ____
ROOT
ATOM      1  N   UNL     1       1.307   8.883  20.996  0.00  0.00    +0.000 N 
ATOM      2  C   UNL     1       0.132   9.078  21.720  0.00  0.00    +0.000 C 
ATOM      3  O   UNL     1      -0.658   8.175  21.896  0.00  0.00    +0.000 OA
ATOM      4  H   UNL     1       1.893   9.682  20.799  0.00  0.00    +0.000 HD
ENDROOT
BRANCH   2   5
ATOM      5  C   UNL     1      -0.019  10.457  22.442  0.00  0.00    +0.000 C 
ATOM      6  C   UNL     1      -1.351  10.722  23.165  0.00  0.00    +0.000 C 
ATOM      7  S   UNL     1      -1.773  12.431  22.746  0.00  0.00    +0.000 S 
ATOM      8  C   UNL     1      -0.793  12.402  21.219  0.00  0.00    +0.000 C 
ATOM      9  N   UNL     1       0.378  11.567  21.528  0.00  0.00    +0.000 NA
ATOM     10  H   UNL     1       1.006  12.153  22.076  0.00  0.00    +0.000 HD
BRANCH   8  11
ATOM     11  C   UNL     1      -1.555  11.922  19.989  0.00  0.00    +0.000 A 
ATOM     12  C   UNL     1      -0.936  11.142  18.999  0.00  0.00    +0.000 A 
ATOM     13  C   UNL     1      -1.582  10.841  17.799  0.00  0.00    +0.000 A 
ATOM     14  C   UNL     1      -2.879  11.275  17.560  0.00  0.00    +0.000 A 
ATOM     15  C   UNL     1      -3.579  11.856  18.615  0.00  0.00    +0.000 A 
ATOM     16  C   UNL     1      -2.922  12.194  19.810  0.00  0.00    +0.000 A 
BRANCH  14  17
ATOM     17  N   UNL     1      -3.511  10.926  16.360  0.00  0.00    +0.000 N 
ATOM     18  H   UNL     1      -4.313  11.522  16.169  0.00  0.00    +0.000 HD
ATOM     19  H   UNL     1      -3.760   9.944  16.312  0.00  0.00    +0.000 HD
ENDBRANCH  14  17
ENDBRANCH   8  11
ENDBRANCH   2   5
BRANCH   1  20
ATOM     20  C   UNL     1       1.607   7.612  20.354  0.00  0.00    +0.000 C 
BRANCH  20  21
ATOM     21  C   UNL     1       2.210   7.843  18.970  0.00  0.00    +0.000 C 
BRANCH  21  22
ATOM     22  C   UNL     1       2.397   6.566  18.160  0.00  0.00    +0.000 C 
BRANCH  22  23
ATOM     23  C   UNL     1       3.888   6.312  17.908  0.00  0.00    +0.000 C 
BRANCH  23  24
ATOM     24  C   UNL     1       4.321   5.011  18.568  0.00  0.00    +0.000 C 
BRANCH  24  25
ATOM     25  C   UNL     1       4.497   3.887  17.554  0.00  0.00    +0.000 C 
BRANCH  25  26
ATOM     26  C   UNL     1       3.157   3.194  17.330  0.00  0.00    +0.000 C 
BRANCH  26  27
ATOM     27  C   UNL     1       3.076   1.879  18.092  0.00  0.00    +0.000 C 
BRANCH  27  28
ATOM     28  C   UNL     1       1.899   1.904  19.061  0.00  0.00    +0.000 C 
BRANCH  28  29
ATOM     29  C   UNL     1       1.109   3.196  18.912  0.00  0.00    +0.000 C 
BRANCH  29  31
ATOM     30  C   UNL     1       1.681   3.148  21.350  0.00  0.00    +0.000 C 
ATOM     31  C   UNL     1       0.939   3.894  20.257  0.00  0.00    +0.000 C 
ENDBRANCH  29  31
ENDBRANCH  28  29
ENDBRANCH  27  28
ENDBRANCH  26  27
ENDBRANCH  25  26
ENDBRANCH  24  25
ENDBRANCH  23  24
ENDBRANCH  22  23
ENDBRANCH  21  22
ENDBRANCH  20  21
ENDBRANCH   1  20
TORSDOF 14
ENDMDL
MODEL 2
REMARK VINA RESULT:      -6.5      4.773      7.600
REMARK  Name = 
REMARK  15 active torsions:
REMARK  status: ('A' for Active; 'I' for Inactive)
REMARK    1  A    between atoms: C_1  and  C_2
REMARK    2  A    between atoms: C_2  and  C_3
REMARK    3  A    between atoms: C_3  and  C_4
REMARK    4  A    between atoms: C_4  and  C_5
REMARK    5  A    between atoms: C_5  and  C_6
REMARK    6  A    between atoms: C_6  and  C_7
REMARK    7  A    between atoms: C_7  and  C_8
REMARK    8  A    between atoms: C_8  and  C_9
REMARK    9  A    between atoms: C_9  and  C_10
REMARK   10  A    between atoms: C_10  and  C_11
REMARK   11  A    between atoms: C_11  and  C_12
REMARK   12  A    between atoms: C_12  and  N_13
REMARK   13  A    between atoms: C_14  and  C_16
REMARK   14  A    between atoms: C_19  and  C_20
REMARK   15  A    between atoms: C_23  and  N_24
REMARK                            x       y       z     vdW  Elec       q    Type
REMARK                         _______ _______ _______ _____ _____    ______ ____
ROOT
ATOM      1  N   UNL     1       4.616   3.721  19.127  0.00  0.00    +0.000 N 
ATOM      2  C   UNL     1       4.374   2.570  19.875  0.00  0.00    +0.000 C 
ATOM      3  O   UNL     1       5.246   2.053  20.539  0.00  0.00    +0.000 OA
ATOM      4  H   UNL     1       3.887   4.068  18.520  0.00  0.00    +0.000 HD
ENDROOT
BRANCH   2   5
ATOM      5  C   UNL     1       2.885   2.097  19.959  0.00  0.00    +0.000 C 
ATOM      6  C   UNL     1       2.157   1.852  18.626  0.00  0.00    +0.000 C 
ATOM      7  S   UNL     1       0.516   2.581  18.853  0.00  0.00    +0.000 S 
ATOM      8  C   UNL     1       1.093   3.721  20.142  0.00  0.00    +0.000 C 
ATOM      9  N   UNL     1       2.115   2.972  20.890  0.00  0.00    +0.000 NA
ATOM     10  H   UNL     1       1.607   2.333  21.500  0.00  0.00    +0.000 HD
BRANCH   8  11
ATOM     11  C   UNL     1       1.605   5.059  19.618  0.00  0.00    +0.000 A 
ATOM     12  C   UNL     1       1.880   6.130  20.482  0.00  0.00    +0.000 A 
ATOM     13  C   UNL     1       2.189   7.400  19.994  0.00  0.00    +0.000 A 
ATOM     14  C   UNL     1       2.271   7.637  18.628  0.00  0.00    +0.000 A 
ATOM     15  C   UNL     1       2.217   6.540  17.770  0.00  0.00    +0.000 A 
ATOM     16  C   UNL     1       1.869   5.269  18.254  0.00  0.00    +0.000 A 
BRANCH  14  17
ATOM     17  N   UNL     1       2.617   8.914  18.171  0.00  0.00    +0.000 N 
ATOM     18  H   UNL     1       3.443   8.891  17.578  0.00  0.00    +0.000 HD
ATOM     19  H   UNL     1       2.718   9.592  18.920  0.00  0.00    +0.000 HD
ENDBRANCH  14  17
ENDBRANCH   8  11
ENDBRANCH   2   5
BRANCH   1  20
ATOM     20  C   UNL     1       5.943   4.314  19.046  0.00  0.00    +0.000 C 
BRANCH  20  21
ATOM     21  C   UNL     1       5.841   5.834  18.941  0.00  0.00    +0.000 C 
BRANCH  21  22
ATOM     22  C   UNL     1       6.319   6.391  17.605  0.00  0.00    +0.000 C 
BRANCH  22  23
ATOM     23  C   UNL     1       5.150   6.474  16.617  0.00  0.00    +0.000 C 
BRANCH  23  24
ATOM     24  C   UNL     1       5.513   5.789  15.308  0.00  0.00    +0.000 C 
BRANCH  24  25
ATOM     25  C   UNL     1       5.959   4.347  15.523  0.00  0.00    +0.000 C 
BRANCH  25  26
ATOM     26  C   UNL     1       6.111   3.658  14.171  0.00  0.00    +0.000 C 
BRANCH  26  27
ATOM     27  C   UNL     1       6.965   4.483  13.219  0.00  0.00    +0.000 C 
BRANCH  27  28
ATOM     28  C   UNL     1       6.900   3.898  11.812  0.00  0.00    +0.000 C 
BRANCH  28  29
ATOM     29  C   UNL     1       6.103   2.601  11.807  0.00  0.00    +0.000 C 
BRANCH  29  31
ATOM     30  C   UNL     1       6.112   0.174  11.189  0.00  0.00    +0.000 C 
ATOM     31  C   UNL     1       6.887   1.477  11.138  0.00  0.00    +0.000 C 
ENDBRANCH  29  31
ENDBRANCH  28  29
ENDBRANCH  27  28
ENDBRANCH  26  27
ENDBRANCH  25  26
ENDBRANCH  24  25
ENDBRANCH  23  24
ENDBRANCH  22  23
ENDBRANCH  21  22
ENDBRANCH  20  21
ENDBRANCH   1  20
TORSDOF 14
ENDMDL
MODEL 3
REMARK VINA RESULT:      -6.5      4.651      7.458
REMARK  Name = 
REMARK  15 active torsions:
REMARK  status: ('A' for Active; 'I' for Inactive)
REMARK    1  A    between atoms: C_1  and  C_2
REMARK    2  A    between atoms: C_2  and  C_3
REMARK    3  A    between atoms: C_3  and  C_4
REMARK    4  A    between atoms: C_4  and  C_5
REMARK    5  A    between atoms: C_5  and  C_6
REMARK    6  A    between atoms: C_6  and  C_7
REMARK    7  A    between atoms: C_7  and  C_8
REMARK    8  A    between atoms: C_8  and  C_9
REMARK    9  A    between atoms: C_9  and  C_10
REMARK   10  A    between atoms: C_10  and  C_11
REMARK   11  A    between atoms: C_11  and  C_12
REMARK   12  A    between atoms: C_12  and  N_13
REMARK   13  A    between atoms: C_14  and  C_16
REMARK   14  A    between atoms: C_19  and  C_20
REMARK   15  A    between atoms: C_23  and  N_24
REMARK                            x       y       z     vdW  Elec       q    Type
REMARK                         _______ _______ _______ _____ _____    ______ ____
ROOT
ATOM      1  N   UNL     1       5.620   3.943  19.175  0.00  0.00    +0.000 N 
ATOM      2  C   UNL     1       4.558   3.362  18.485  0.00  0.00    +0.000 C 
ATOM      3  O   UNL     1       4.616   3.158  17.291  0.00  0.00    +0.000 OA
ATOM      4  H   UNL     1       5.496   4.174  20.151  0.00  0.00    +0.000 HD
ENDROOT
BRANCH   2   5
ATOM      5  C   UNL     1       3.376   2.822  19.356  0.00  0.00    +0.000 C 
ATOM      6  C   UNL     1       2.030   2.603  18.643  0.00  0.00    +0.000 C 
ATOM      7  S   UNL     1       0.788   3.250  19.788  0.00  0.00    +0.000 S 
ATOM      8  C   UNL     1       1.972   4.358  20.601  0.00  0.00    +0.000 C 
ATOM      9  N   UNL     1       3.246   3.624  20.607  0.00  0.00    +0.000 NA
ATOM     10  H   UNL     1       3.173   2.938  21.358  0.00  0.00    +0.000 HD
BRANCH   8  11
ATOM     11  C   UNL     1       2.087   5.738  19.961  0.00  0.00    +0.000 A 
ATOM     12  C   UNL     1       1.763   6.906  20.669  0.00  0.00    +0.000 A 
ATOM     13  C   UNL     1       1.710   8.149  20.038  0.00  0.00    +0.000 A 
ATOM     14  C   UNL     1       2.015   8.278  18.689  0.00  0.00    +0.000 A 
ATOM     15  C   UNL     1       2.548   7.171  18.032  0.00  0.00    +0.000 A 
ATOM     16  C   UNL     1       2.567   5.911  18.652  0.00  0.00    +0.000 A 
BRANCH  14  17
ATOM     17  N   UNL     1       1.987   9.545  18.095  0.00  0.00    +0.000 N 
ATOM     18  H   UNL     1       2.799   9.702  17.503  0.00  0.00    +0.000 HD
ATOM     19  H   UNL     1       1.865  10.297  18.765  0.00  0.00    +0.000 HD
ENDBRANCH  14  17
ENDBRANCH   8  11
ENDBRANCH   2   5
BRANCH   1  20
ATOM     20  C   UNL     1       6.819   4.400  18.489  0.00  0.00    +0.000 C 
BRANCH  20  21
ATOM     21  C   UNL     1       6.956   5.916  18.608  0.00  0.00    +0.000 C 
BRANCH  21  22
ATOM     22  C   UNL     1       6.673   6.663  17.310  0.00  0.00    +0.000 C 
BRANCH  22  23
ATOM     23  C   UNL     1       6.968   5.761  16.105  0.00  0.00    +0.000 C 
BRANCH  23  24
ATOM     24  C   UNL     1       5.701   5.534  15.292  0.00  0.00    +0.000 C 
BRANCH  24  25
ATOM     25  C   UNL     1       6.009   5.208  13.835  0.00  0.00    +0.000 C 
BRANCH  25  26
ATOM     26  C   UNL     1       5.334   3.894  13.458  0.00  0.00    +0.000 C 
BRANCH  26  27
ATOM     27  C   UNL     1       6.008   3.246  12.257  0.00  0.00    +0.000 C 
BRANCH  27  28
ATOM     28  C   UNL     1       4.971   2.550  11.382  0.00  0.00    +0.000 C 
BRANCH  28  29
ATOM     29  C   UNL     1       3.756   3.445  11.177  0.00  0.00    +0.000 C 
BRANCH  29  31
ATOM     30  C   UNL     1       2.565   4.724   9.384  0.00  0.00    +0.000 C 
ATOM     31  C   UNL     1       3.318   3.450   9.716  0.00  0.00    +0.000 C 
ENDBRANCH  29  31
ENDBRANCH  28  29
ENDBRANCH  27  28
ENDBRANCH  26  27
ENDBRANCH  25  26
ENDBRANCH  24  25
ENDBRANCH  23  24
ENDBRANCH  22  23
ENDBRANCH  21  22
ENDBRANCH  20  21
ENDBRANCH   1  20
TORSDOF 14
ENDMDL
MODEL 4
REMARK VINA RESULT:      -6.5      6.677      9.775
REMARK  Name = 
REMARK  15 active torsions:
REMARK  status: ('A' for Active; 'I' for Inactive)
REMARK    1  A    between atoms: C_1  and  C_2
REMARK    2  A    between atoms: C_2  and  C_3
REMARK    3  A    between atoms: C_3  and  C_4
REMARK    4  A    between atoms: C_4  and  C_5
REMARK    5  A    between atoms: C_5  and  C_6
REMARK    6  A    between atoms: C_6  and  C_7
REMARK    7  A    between atoms: C_7  and  C_8
REMARK    8  A    between atoms: C_8  and  C_9
REMARK    9  A    between atoms: C_9  and  C_10
REMARK   10  A    between atoms: C_10  and  C_11
REMARK   11  A    between atoms: C_11  and  C_12
REMARK   12  A    between atoms: C_12  and  N_13
REMARK   13  A    between atoms: C_14  and  C_16
REMARK   14  A    between atoms: C_19  and  C_20
REMARK   15  A    between atoms: C_23  and  N_24
REMARK                            x       y       z     vdW  Elec       q    Type
REMARK                         _______ _______ _______ _____ _____    ______ ____
ROOT
ATOM      1  N   UNL     1       7.975   6.900  18.082  0.00  0.00    +0.000 N 
ATOM      2  C   UNL     1       7.634   5.728  18.755  0.00  0.00    +0.000 C 
ATOM      3  O   UNL     1       7.633   5.673  19.966  0.00  0.00    +0.000 OA
ATOM      4  H   UNL     1       8.047   6.877  17.074  0.00  0.00    +0.000 HD
ENDROOT
BRANCH   2   5
ATOM      5  C   UNL     1       7.077   4.559  17.877  0.00  0.00    +0.000 C 
ATOM      6  C   UNL     1       6.804   4.871  16.395  0.00  0.00    +0.000 C 
ATOM      7  S   UNL     1       5.215   4.084  16.041  0.00  0.00    +0.000 S 
ATOM      8  C   UNL     1       4.693   4.131  17.778  0.00  0.00    +0.000 C 
ATOM      9  N   UNL     1       5.920   3.907  18.556  0.00  0.00    +0.000 NA
ATOM     10  H   UNL     1       6.109   2.906  18.504  0.00  0.00    +0.000 HD
BRANCH   8  11
ATOM     11  C   UNL     1       3.960   5.406  18.182  0.00  0.00    +0.000 A 
ATOM     12  C   UNL     1       3.269   5.502  19.400  0.00  0.00    +0.000 A 
ATOM     13  C   UNL     1       2.465   6.603  19.697  0.00  0.00    +0.000 A 
ATOM     14  C   UNL     1       2.352   7.663  18.807  0.00  0.00    +0.000 A 
ATOM     15  C   UNL     1       3.199   7.681  17.701  0.00  0.00    +0.000 A 
ATOM     16  C   UNL     1       3.981   6.559  17.380  0.00  0.00    +0.000 A 
BRANCH  14  17
ATOM     17  N   UNL     1       1.565   8.769  19.151  0.00  0.00    +0.000 N 
ATOM     18  H   UNL     1       2.133   9.552  19.468  0.00  0.00    +0.000 HD
ATOM     19  H   UNL     1       0.836   8.547  19.820  0.00  0.00    +0.000 HD
ENDBRANCH  14  17
ENDBRANCH   8  11
ENDBRANCH   2   5
BRANCH   1  20
ATOM     20  C   UNL     1       8.418   8.089  18.793  0.00  0.00    +0.000 C 
BRANCH  20  21
ATOM     21  C   UNL     1       8.284   9.324  17.905  0.00  0.00    +0.000 C 
BRANCH  21  22
ATOM     22  C   UNL     1       8.947  10.570  18.479  0.00  0.00    +0.000 C 
BRANCH  22  23
ATOM     23  C   UNL     1      10.243  10.877  17.720  0.00  0.00    +0.000 C 
BRANCH  23  24
ATOM     24  C   UNL     1      10.894  12.137  18.271  0.00  0.00    +0.000 C 
BRANCH  24  25
ATOM     25  C   UNL     1      11.900  11.825  19.373  0.00  0.00    +0.000 C 
BRANCH  25  26
ATOM     26  C   UNL     1      11.284  12.152  20.728  0.00  0.00    +0.000 C 
BRANCH  26  27
ATOM     27  C   UNL     1      10.227  13.240  20.612  0.00  0.00    +0.000 C 
BRANCH  27  28
ATOM     28  C   UNL     1       9.505  13.418  21.944  0.00  0.00    +0.000 C 
BRANCH  28  29
ATOM     29  C   UNL     1       8.232  12.583  21.979  0.00  0.00    +0.000 C 
BRANCH  29  31
ATOM     30  C   UNL     1       7.192  11.812  24.123  0.00  0.00    +0.000 C 
ATOM     31  C   UNL     1       8.282  11.552  23.101  0.00  0.00    +0.000 C 
ENDBRANCH  29  31
ENDBRANCH  28  29
ENDBRANCH  27  28
ENDBRANCH  26  27
ENDBRANCH  25  26
ENDBRANCH  24  25
ENDBRANCH  23  24
ENDBRANCH  22  23
ENDBRANCH  21  22
ENDBRANCH  20  21
ENDBRANCH   1  20
TORSDOF 14
ENDMDL
MODEL 5
REMARK VINA RESULT:      -6.4      3.660      8.856
REMARK  Name = 
REMARK  15 active torsions:
REMARK  status: ('A' for Active; 'I' for Inactive)
REMARK    1  A    between atoms: C_1  and  C_2
REMARK    2  A    between atoms: C_2  and  C_3
REMARK    3  A    between atoms: C_3  and  C_4
REMARK    4  A    between atoms: C_4  and  C_5
REMARK    5  A    between atoms: C_5  and  C_6
REMARK    6  A    between atoms: C_6  and  C_7
REMARK    7  A    between atoms: C_7  and  C_8
REMARK    8  A    between atoms: C_8  and  C_9
REMARK    9  A    between atoms: C_9  and  C_10
REMARK   10  A    between atoms: C_10  and  C_11
REMARK   11  A    between atoms: C_11  and  C_12
REMARK   12  A    between atoms: C_12  and  N_13
REMARK   13  A    between atoms: C_14  and  C_16
REMARK   14  A    between atoms: C_19  and  C_20
REMARK   15  A    between atoms: C_23  and  N_24
REMARK                            x       y       z     vdW  Elec       q    Type
REMARK                         _______ _______ _______ _____ _____    ______ ____
ROOT
ATOM      1  N   UNL     1       2.214   6.405  18.926  0.00  0.00    +0.000 N 
ATOM      2  C   UNL     1       2.094   5.389  19.874  0.00  0.00    +0.000 C 
ATOM      3  O   UNL     1       1.819   5.633  21.029  0.00  0.00    +0.000 OA
ATOM      4  H   UNL     1       2.530   6.165  17.996  0.00  0.00    +0.000 HD
ENDROOT
BRANCH   2   5
ATOM      5  C   UNL     1       2.146   3.923  19.332  0.00  0.00    +0.000 C 
ATOM      6  C   UNL     1       3.125   2.960  20.024  0.00  0.00    +0.000 C 
ATOM      7  S   UNL     1       3.906   2.043  18.674  0.00  0.00    +0.000 S 
ATOM      8  C   UNL     1       3.587   3.359  17.465  0.00  0.00    +0.000 C 
ATOM      9  N   UNL     1       2.284   3.924  17.846  0.00  0.00    +0.000 NA
ATOM     10  H   UNL     1       1.581   3.266  17.511  0.00  0.00    +0.000 HD
BRANCH   8  11
ATOM     11  C   UNL     1       4.687   4.412  17.374  0.00  0.00    +0.000 A 
ATOM     12  C   UNL     1       4.514   5.592  16.633  0.00  0.00    +0.000 A 
ATOM     13  C   UNL     1       5.571   6.476  16.414  0.00  0.00    +0.000 A 
ATOM     14  C   UNL     1       6.826   6.233  16.956  0.00  0.00    +0.000 A 
ATOM     15  C   UNL     1       6.953   5.188  17.869  0.00  0.00    +0.000 A 
ATOM     16  C   UNL     1       5.903   4.275  18.062  0.00  0.00    +0.000 A 
BRANCH  14  17
ATOM     17  N   UNL     1       7.856   7.158  16.746  0.00  0.00    +0.000 N 
ATOM     18  H   UNL     1       8.774   6.736  16.872  0.00  0.00    +0.000 HD
ATOM     19  H   UNL     1       7.757   7.999  17.304  0.00  0.00    +0.000 HD
ENDBRANCH  14  17
ENDBRANCH   8  11
ENDBRANCH   2   5
BRANCH   1  20
ATOM     20  C   UNL     1       2.091   7.808  19.290  0.00  0.00    +0.000 C 
BRANCH  20  21
ATOM     21  C   UNL     1       2.339   8.698  18.074  0.00  0.00    +0.000 C 
BRANCH  21  22
ATOM     22  C   UNL     1       1.338   9.838  17.932  0.00  0.00    +0.000 C 
BRANCH  22  23
ATOM     23  C   UNL     1       1.995  11.169  18.316  0.00  0.00    +0.000 C 
BRANCH  23  24
ATOM     24  C   UNL     1       0.944  12.155  18.808  0.00  0.00    +0.000 C 
BRANCH  24  25
ATOM     25  C   UNL     1      -0.269  11.447  19.400  0.00  0.00    +0.000 C 
BRANCH  25  26
ATOM     26  C   UNL     1      -1.526  12.251  19.086  0.00  0.00    +0.000 C 
BRANCH  26  27
ATOM     27  C   UNL     1      -2.258  11.690  17.875  0.00  0.00    +0.000 C 
BRANCH  27  28
ATOM     28  C   UNL     1      -2.282  10.166  17.934  0.00  0.00    +0.000 C 
BRANCH  28  29
ATOM     29  C   UNL     1      -2.450   9.579  16.539  0.00  0.00    +0.000 C 
BRANCH  29  31
ATOM     30  C   UNL     1      -3.724  10.212  14.478  0.00  0.00    +0.000 C 
ATOM     31  C   UNL     1      -2.715  10.674  15.511  0.00  0.00    +0.000 C 
ENDBRANCH  29  31
ENDBRANCH  28  29
ENDBRANCH  27  28
ENDBRANCH  26  27
ENDBRANCH  25  26
ENDBRANCH  24  25
ENDBRANCH  23  24
ENDBRANCH  22  23
ENDBRANCH  21  22
ENDBRANCH  20  21
ENDBRANCH   1  20
TORSDOF 14
ENDMDL
MODEL 6
REMARK VINA RESULT:      -6.3      1.504      3.190
REMARK  Name = 
REMARK  15 active torsions:
REMARK  status: ('A' for Active; 'I' for Inactive)
REMARK    1  A    between atoms: C_1  and  C_2
REMARK    2  A    between atoms: C_2  and  C_3
REMARK    3  A    between atoms: C_3  and  C_4
REMARK    4  A    between atoms: C_4  and  C_5
REMARK    5  A    between atoms: C_5  and  C_6
REMARK    6  A    between atoms: C_6  and  C_7
REMARK    7  A    between atoms: C_7  and  C_8
REMARK    8  A    between atoms: C_8  and  C_9
REMARK    9  A    between atoms: C_9  and  C_10
REMARK   10  A    between atoms: C_10  and  C_11
REMARK   11  A    between atoms: C_11  and  C_12
REMARK   12  A    between atoms: C_12  and  N_13
REMARK   13  A    between atoms: C_14  and  C_16
REMARK   14  A    between atoms: C_19  and  C_20
REMARK   15  A    between atoms: C_23  and  N_24
REMARK                            x       y       z     vdW  Elec       q    Type
REMARK                         _______ _______ _______ _____ _____    ______ ____
ROOT
ATOM      1  N   UNL     1       1.901   7.216  21.054  0.00  0.00    +0.000 N 
ATOM      2  C   UNL     1       1.538   8.520  20.723  0.00  0.00    +0.000 C 
ATOM      3  O   UNL     1       1.455   8.879  19.568  0.00  0.00    +0.000 OA
ATOM      4  H   UNL     1       2.043   6.983  22.027  0.00  0.00    +0.000 HD
ENDROOT
BRANCH   2   5
ATOM      5  C   UNL     1       1.066   9.430  21.904  0.00  0.00    +0.000 C 
ATOM      6  C   UNL     1      -0.337   9.159  22.474  0.00  0.00    +0.000 C 
ATOM      7  S   UNL     1      -1.066  10.798  22.711  0.00  0.00    +0.000 S 
ATOM      8  C   UNL     1      -0.001  11.561  21.457  0.00  0.00    +0.000 C 
ATOM      9  N   UNL     1       1.291  10.868  21.573  0.00  0.00    +0.000 NA
ATOM     10  H   UNL     1       1.751  11.262  22.392  0.00  0.00    +0.000 HD
BRANCH   8  11
ATOM     11  C   UNL     1      -0.568  11.525  20.041  0.00  0.00    +0.000 A 
ATOM     12  C   UNL     1      -0.247  12.512  19.096  0.00  0.00    +0.000 A 
ATOM     13  C   UNL     1      -0.890  12.571  17.858  0.00  0.00    +0.000 A 
ATOM     14  C   UNL     1      -1.846  11.629  17.506  0.00  0.00    +0.000 A 
ATOM     15  C   UNL     1      -2.014  10.525  18.340  0.00  0.00    +0.000 A 
ATOM     16  C   UNL     1      -1.398  10.480  19.601  0.00  0.00    +0.000 A 
BRANCH  14  17
ATOM     17  N   UNL     1      -2.447  11.697  16.244  0.00  0.00    +0.000 N 
ATOM     18  H   UNL     1      -1.998  11.071  15.578  0.00  0.00    +0.000 HD
ATOM     19  H   UNL     1      -2.506  12.642  15.880  0.00  0.00    +0.000 HD
ENDBRANCH  14  17
ENDBRANCH   8  11
ENDBRANCH   2   5
BRANCH   1  20
ATOM     20  C   UNL     1       2.271   6.244  20.036  0.00  0.00    +0.000 C 
BRANCH  20  21
ATOM     21  C   UNL     1       2.237   4.830  20.611  0.00  0.00    +0.000 C 
BRANCH  21  22
ATOM     22  C   UNL     1       0.901   4.121  20.424  0.00  0.00    +0.000 C 
BRANCH  22  23
ATOM     23  C   UNL     1       1.125   2.711  19.864  0.00  0.00    +0.000 C 
BRANCH  23  24
ATOM     24  C   UNL     1       1.679   2.786  18.448  0.00  0.00    +0.000 C 
BRANCH  24  25
ATOM     25  C   UNL     1       2.838   1.819  18.237  0.00  0.00    +0.000 C 
BRANCH  25  26
ATOM     26  C   UNL     1       3.934   2.510  17.433  0.00  0.00    +0.000 C 
BRANCH  26  27
ATOM     27  C   UNL     1       3.641   3.992  17.252  0.00  0.00    +0.000 C 
BRANCH  27  28
ATOM     28  C   UNL     1       4.787   4.828  17.812  0.00  0.00    +0.000 C 
BRANCH  28  29
ATOM     29  C   UNL     1       4.681   6.271  17.335  0.00  0.00    +0.000 C 
BRANCH  29  31
ATOM     30  C   UNL     1       7.122   6.825  17.413  0.00  0.00    +0.000 C 
ATOM     31  C   UNL     1       5.906   6.670  16.519  0.00  0.00    +0.000 C 
ENDBRANCH  29  31
ENDBRANCH  28  29
ENDBRANCH  27  28
ENDBRANCH  26  27
ENDBRANCH  25  26
ENDBRANCH  24  25
ENDBRANCH  23  24
ENDBRANCH  22  23
ENDBRANCH  21  22
ENDBRANCH  20  21
ENDBRANCH   1  20
TORSDOF 14
ENDMDL
MODEL 7
REMARK VINA RESULT:      -6.3      1.142      1.838
REMARK  Name = 
REMARK  15 active torsions:
REMARK  status: ('A' for Active; 'I' for Inactive)
REMARK    1  A    between atoms: C_1  and  C_2
REMARK    2  A    between atoms: C_2  and  C_3
REMARK    3  A    between atoms: C_3  and  C_4
REMARK    4  A    between atoms: C_4  and  C_5
REMARK    5  A    between atoms: C_5  and  C_6
REMARK    6  A    between atoms: C_6  and  C_7
REMARK    7  A    between atoms: C_7  and  C_8
REMARK    8  A    between atoms: C_8  and  C_9
REMARK    9  A    between atoms: C_9  and  C_10
REMARK   10  A    between atoms: C_10  and  C_11
REMARK   11  A    between atoms: C_11  and  C_12
REMARK   12  A    between atoms: C_12  and  N_13
REMARK   13  A    between atoms: C_14  and  C_16
REMARK   14  A    between atoms: C_19  and  C_20
REMARK   15  A    between atoms: C_23  and  N_24
REMARK                            x       y       z     vdW  Elec       q    Type
REMARK                         _______ _______ _______ _____ _____    ______ ____
ROOT
ATOM      1  N   UNL     1       1.585   7.901  21.267  0.00  0.00    +0.000 N 
ATOM      2  C   UNL     1       0.370   8.464  21.651  0.00  0.00    +0.000 C 
ATOM      3  O   UNL     1      -0.657   7.820  21.637  0.00  0.00    +0.000 OA
ATOM      4  H   UNL     1       2.400   8.497  21.211  0.00  0.00    +0.000 HD
ENDROOT
BRANCH   2   5
ATOM      5  C   UNL     1       0.434   9.897  22.274  0.00  0.00    +0.000 C 
ATOM      6  C   UNL     1      -0.852  10.430  22.929  0.00  0.00    +0.000 C 
ATOM      7  S   UNL     1      -0.974  12.150  22.381  0.00  0.00    +0.000 S 
ATOM      8  C   UNL     1       0.025  11.850  20.896  0.00  0.00    +0.000 C 
ATOM      9  N   UNL     1       1.032  10.859  21.302  0.00  0.00    +0.000 NA
ATOM     10  H   UNL     1       1.736  11.372  21.832  0.00  0.00    +0.000 HD
BRANCH   8  11
ATOM     11  C   UNL     1      -0.777  11.415  19.674  0.00  0.00    +0.000 A 
ATOM     12  C   UNL     1      -2.075  11.894  19.438  0.00  0.00    +0.000 A 
ATOM     13  C   UNL     1      -2.868  11.374  18.414  0.00  0.00    +0.000 A 
ATOM     14  C   UNL     1      -2.382  10.385  17.568  0.00  0.00    +0.000 A 
ATOM     15  C   UNL     1      -1.030  10.060  17.652  0.00  0.00    +0.000 A 
ATOM     16  C   UNL     1      -0.239  10.553  18.703  0.00  0.00    +0.000 A 
BRANCH  14  17
ATOM     17  N   UNL     1      -3.192   9.910  16.530  0.00  0.00    +0.000 N 
ATOM     18  H   UNL     1      -2.672   9.812  15.661  0.00  0.00    +0.000 HD
ATOM     19  H   UNL     1      -4.034  10.460  16.396  0.00  0.00    +0.000 HD
ENDBRANCH  14  17
ENDBRANCH   8  11
ENDBRANCH   2   5
BRANCH   1  20
ATOM     20  C   UNL     1       1.671   6.540  20.759  0.00  0.00    +0.000 C 
BRANCH  20  21
ATOM     21  C   UNL     1       1.873   6.547  19.246  0.00  0.00    +0.000 C 
BRANCH  21  22
ATOM     22  C   UNL     1       2.600   7.783  18.728  0.00  0.00    +0.000 C 
BRANCH  22  23
ATOM     23  C   UNL     1       3.471   7.416  17.520  0.00  0.00    +0.000 C 
BRANCH  23  24
ATOM     24  C   UNL     1       3.904   5.960  17.603  0.00  0.00    +0.000 C 
BRANCH  24  25
ATOM     25  C   UNL     1       5.314   5.814  18.164  0.00  0.00    +0.000 C 
BRANCH  25  26
ATOM     26  C   UNL     1       5.476   4.423  18.767  0.00  0.00    +0.000 C 
BRANCH  26  27
ATOM     27  C   UNL     1       4.166   3.911  19.349  0.00  0.00    +0.000 C 
BRANCH  27  28
ATOM     28  C   UNL     1       4.188   2.389  19.437  0.00  0.00    +0.000 C 
BRANCH  28  29
ATOM     29  C   UNL     1       3.187   1.781  18.463  0.00  0.00    +0.000 C 
BRANCH  29  31
ATOM     30  C   UNL     1       0.794   2.439  18.801  0.00  0.00    +0.000 C 
ATOM     31  C   UNL     1       2.095   2.783  18.102  0.00  0.00    +0.000 C 
ENDBRANCH  29  31
ENDBRANCH  28  29
ENDBRANCH  27  28
ENDBRANCH  26  27
ENDBRANCH  25  26
ENDBRANCH  24  25
ENDBRANCH  23  24
ENDBRANCH  22  23
ENDBRANCH  21  22
ENDBRANCH  20  21
ENDBRANCH   1  20
TORSDOF 14
ENDMDL
MODEL 8
REMARK VINA RESULT:      -6.3      0.889      1.038
REMARK  Name = 
REMARK  15 active torsions:
REMARK  status: ('A' for Active; 'I' for Inactive)
REMARK    1  A    between atoms: C_1  and  C_2
REMARK    2  A    between atoms: C_2  and  C_3
REMARK    3  A    between atoms: C_3  and  C_4
REMARK    4  A    between atoms: C_4  and  C_5
REMARK    5  A    between atoms: C_5  and  C_6
REMARK    6  A    between atoms: C_6  and  C_7
REMARK    7  A    between atoms: C_7  and  C_8
REMARK    8  A    between atoms: C_8  and  C_9
REMARK    9  A    between atoms: C_9  and  C_10
REMARK   10  A    between atoms: C_10  and  C_11
REMARK   11  A    between atoms: C_11  and  C_12
REMARK   12  A    between atoms: C_12  and  N_13
REMARK   13  A    between atoms: C_14  and  C_16
REMARK   14  A    between atoms: C_19  and  C_20
REMARK   15  A    between atoms: C_23  and  N_24
REMARK                            x       y       z     vdW  Elec       q    Type
REMARK                         _______ _______ _______ _____ _____    ______ ____
ROOT
ATOM      1  N   UNL     1       1.393   8.255  21.142  0.00  0.00    +0.000 N 
ATOM      2  C   UNL     1       0.203   8.726  21.695  0.00  0.00    +0.000 C 
ATOM      3  O   UNL     1      -0.778   8.020  21.778  0.00  0.00    +0.000 OA
ATOM      4  H   UNL     1       2.158   8.902  21.013  0.00  0.00    +0.000 HD
ENDROOT
BRANCH   2   5
ATOM      5  C   UNL     1       0.261  10.138  22.366  0.00  0.00    +0.000 C 
ATOM      6  C   UNL     1      -0.988  10.592  23.141  0.00  0.00    +0.000 C 
ATOM      7  S   UNL     1      -1.223  12.323  22.671  0.00  0.00    +0.000 S 
ATOM      8  C   UNL     1      -0.337  12.119  21.101  0.00  0.00    +0.000 C 
ATOM      9  N   UNL     1       0.739  11.158  21.387  0.00  0.00    +0.000 NA
ATOM     10  H   UNL     1       1.463  11.681  21.878  0.00  0.00    +0.000 HD
BRANCH   8  11
ATOM     11  C   UNL     1      -1.217  11.693  19.931  0.00  0.00    +0.000 A 
ATOM     12  C   UNL     1      -0.767  10.773  18.971  0.00  0.00    +0.000 A 
ATOM     13  C   UNL     1      -1.504  10.507  17.816  0.00  0.00    +0.000 A 
ATOM     14  C   UNL     1      -2.731  11.120  17.596  0.00  0.00    +0.000 A 
ATOM     15  C   UNL     1      -3.286  11.860  18.637  0.00  0.00    +0.000 A 
ATOM     16  C   UNL     1      -2.533  12.161  19.784  0.00  0.00    +0.000 A 
BRANCH  14  17
ATOM     17  N   UNL     1      -3.461  10.805  16.444  0.00  0.00    +0.000 N 
ATOM     18  H   UNL     1      -2.868  10.407  15.719  0.00  0.00    +0.000 HD
ATOM     19  H   UNL     1      -4.005  11.585  16.090  0.00  0.00    +0.000 HD
ENDBRANCH  14  17
ENDBRANCH   8  11
ENDBRANCH   2   5
BRANCH   1  20
ATOM     20  C   UNL     1       1.494   6.921  20.571  0.00  0.00    +0.000 C 
BRANCH  20  21
ATOM     21  C   UNL     1       2.758   6.798  19.723  0.00  0.00    +0.000 C 
BRANCH  21  22
ATOM     22  C   UNL     1       2.557   7.175  18.261  0.00  0.00    +0.000 C 
BRANCH  22  23
ATOM     23  C   UNL     1       3.850   6.941  17.471  0.00  0.00    +0.000 C 
BRANCH  23  24
ATOM     24  C   UNL     1       4.648   5.801  18.089  0.00  0.00    +0.000 C 
BRANCH  24  25
ATOM     25  C   UNL     1       5.012   4.737  17.060  0.00  0.00    +0.000 C 
BRANCH  25  26
ATOM     26  C   UNL     1       3.833   3.788  16.875  0.00  0.00    +0.000 C 
BRANCH  26  27
ATOM     27  C   UNL     1       3.133   3.505  18.197  0.00  0.00    +0.000 C 
BRANCH  27  28
ATOM     28  C   UNL     1       3.769   2.300  18.882  0.00  0.00    +0.000 C 
BRANCH  28  29
ATOM     29  C   UNL     1       3.742   2.469  20.395  0.00  0.00    +0.000 C 
BRANCH  29  31
ATOM     30  C   UNL     1       1.536   2.587  21.577  0.00  0.00    +0.000 C 
ATOM     31  C   UNL     1       2.593   3.375  20.826  0.00  0.00    +0.000 C 
ENDBRANCH  29  31
ENDBRANCH  28  29
ENDBRANCH  27  28
ENDBRANCH  26  27
ENDBRANCH  25  26
ENDBRANCH  24  25
ENDBRANCH  23  24
ENDBRANCH  22  23
ENDBRANCH  21  22
ENDBRANCH  20  21
ENDBRANCH   1  20
TORSDOF 14
ENDMDL
MODEL 9
REMARK VINA RESULT:      -6.3      1.335      3.013
REMARK  Name = 
REMARK  15 active torsions:
REMARK  status: ('A' for Active; 'I' for Inactive)
REMARK    1  A    between atoms: C_1  and  C_2
REMARK    2  A    between atoms: C_2  and  C_3
REMARK    3  A    between atoms: C_3  and  C_4
REMARK    4  A    between atoms: C_4  and  C_5
REMARK    5  A    between atoms: C_5  and  C_6
REMARK    6  A    between atoms: C_6  and  C_7
REMARK    7  A    between atoms: C_7  and  C_8
REMARK    8  A    between atoms: C_8  and  C_9
REMARK    9  A    between atoms: C_9  and  C_10
REMARK   10  A    between atoms: C_10  and  C_11
REMARK   11  A    between atoms: C_11  and  C_12
REMARK   12  A    between atoms: C_12  and  N_13
REMARK   13  A    between atoms: C_14  and  C_16
REMARK   14  A    between atoms: C_19  and  C_20
REMARK   15  A    between atoms: C_23  and  N_24
REMARK                            x       y       z     vdW  Elec       q    Type
REMARK                         _______ _______ _______ _____ _____    ______ ____
ROOT
ATOM      1  N   UNL     1       1.923   7.906  20.792  0.00  0.00    +0.000 N 
ATOM      2  C   UNL     1       0.675   8.295  21.275  0.00  0.00    +0.000 C 
ATOM      3  O   UNL     1      -0.309   7.607  21.108  0.00  0.00    +0.000 OA
ATOM      4  H   UNL     1       2.698   8.549  20.877  0.00  0.00    +0.000 HD
ENDROOT
BRANCH   2   5
ATOM      5  C   UNL     1       0.649   9.560  22.194  0.00  0.00    +0.000 C 
ATOM      6  C   UNL     1      -0.631   9.799  23.014  0.00  0.00    +0.000 C 
ATOM      7  S   UNL     1      -0.953  11.573  22.866  0.00  0.00    +0.000 S 
ATOM      8  C   UNL     1      -0.040  11.707  21.304  0.00  0.00    +0.000 C 
ATOM      9  N   UNL     1       1.082  10.766  21.430  0.00  0.00    +0.000 NA
ATOM     10  H   UNL     1       1.772  11.226  22.024  0.00  0.00    +0.000 HD
BRANCH   8  11
ATOM     11  C   UNL     1      -0.883  11.460  20.057  0.00  0.00    +0.000 A 
ATOM     12  C   UNL     1      -0.452  10.597  19.038  0.00  0.00    +0.000 A 
ATOM     13  C   UNL     1      -1.141  10.497  17.828  0.00  0.00    +0.000 A 
ATOM     14  C   UNL     1      -2.303  11.224  17.608  0.00  0.00    +0.000 A 
ATOM     15  C   UNL     1      -2.858  11.911  18.685  0.00  0.00    +0.000 A 
ATOM     16  C   UNL     1      -2.150  12.045  19.890  0.00  0.00    +0.000 A 
BRANCH  14  17
ATOM     17  N   UNL     1      -2.989  11.074  16.397  0.00  0.00    +0.000 N 
ATOM     18  H   UNL     1      -3.661  11.824  16.248  0.00  0.00    +0.000 HD
ATOM     19  H   UNL     1      -3.424  10.163  16.295  0.00  0.00    +0.000 HD
ENDBRANCH  14  17
ENDBRANCH   8  11
ENDBRANCH   2   5
BRANCH   1  20
ATOM     20  C   UNL     1       2.094   6.696  20.002  0.00  0.00    +0.000 C 
BRANCH  20  21
ATOM     21  C   UNL     1       2.099   5.465  20.906  0.00  0.00    +0.000 C 
BRANCH  21  22
ATOM     22  C   UNL     1       1.067   4.413  20.519  0.00  0.00    +0.000 C 
BRANCH  22  23
ATOM     23  C   UNL     1       1.767   3.159  19.980  0.00  0.00    +0.000 C 
BRANCH  23  24
ATOM     24  C   UNL     1       1.441   2.964  18.506  0.00  0.00    +0.000 C 
BRANCH  24  25
ATOM     25  C   UNL     1       2.677   2.598  17.692  0.00  0.00    +0.000 C 
BRANCH  25  26
ATOM     26  C   UNL     1       3.853   3.457  18.145  0.00  0.00    +0.000 C 
BRANCH  26  27
ATOM     27  C   UNL     1       3.959   4.734  17.324  0.00  0.00    +0.000 C 
BRANCH  27  28
ATOM     28  C   UNL     1       4.887   4.520  16.133  0.00  0.00    +0.000 C 
BRANCH  28  29
ATOM     29  C   UNL     1       5.695   5.779  15.850  0.00  0.00    +0.000 C 
BRANCH  29  31
ATOM     30  C   UNL     1       7.142   7.035  17.464  0.00  0.00    +0.000 C 
ATOM     31  C   UNL     1       5.717   6.701  17.065  0.00  0.00    +0.000 C 
ENDBRANCH  29  31
ENDBRANCH  28  29
ENDBRANCH  27  28
ENDBRANCH  26  27
ENDBRANCH  25  26
ENDBRANCH  24  25
ENDBRANCH  23  24
ENDBRANCH  22  23
ENDBRANCH  21  22
ENDBRANCH  20  21
ENDBRANCH   1  20
TORSDOF 14
ENDMDL
