MODEL 1
REMARK VINA RESULT:      -7.1      0.000      0.000
REMARK  Name = 
REMARK  13 active torsions:
REMARK  status: ('A' for Active; 'I' for Inactive)
REMARK    1  A    between atoms: C_1  and  C_2
REMARK    2  A    between atoms: C_2  and  N_3
REMARK    3  A    between atoms: C_2  and  C_20
REMARK    4  A    between atoms: N_3  and  S_4
REMARK    5  A    between atoms: S_4  and  C_7
REMARK    6  A    between atoms: C_7  and  C_8
REMARK    7  A    between atoms: C_8  and  C_9
REMARK    8  A    between atoms: C_9  and  O_10
REMARK    9  A    between atoms: O_10  and  C_11
REMARK   10  A    between atoms: C_11  and  N_12
REMARK   11  A    between atoms: C_25  and  O_26
REMARK   12  A    between atoms: O_26  and  C_27
REMARK   13  A    between atoms: C_27  and  C_28
REMARK                            x       y       z     vdW  Elec       q    Type
REMARK                         _______ _______ _______ _____ _____    ______ ____
ROOT
ATOM      1  S   UNL     1       2.129   4.859  20.000  0.00  0.00    +0.000 S 
ATOM      2  O   UNL     1       3.259   4.083  20.446  0.00  0.00    +0.000 OA
ATOM      3  O   UNL     1       0.867   4.857  20.715  0.00  0.00    +0.000 OA
ENDROOT
BRANCH   1   4
ATOM      4  N   UNL     1       2.673   6.462  19.907  0.00  0.00    +0.000 NA
ATOM      5  H   UNL     1       2.180   7.030  20.602  0.00  0.00    +0.000 HD
BRANCH   4   7
ATOM      6  C   UNL     1       3.775   7.147  17.735  0.00  0.00    +0.000 C 
ATOM      7  C   UNL     1       2.487   7.103  18.556  0.00  0.00    +0.000 C 
BRANCH   7   8
ATOM      8  C   UNL     1       1.938   8.521  18.711  0.00  0.00    +0.000 A 
ATOM      9  C   UNL     1       2.149   9.475  17.702  0.00  0.00    +0.000 A 
ATOM     10  C   UNL     1       1.588  10.748  17.806  0.00  0.00    +0.000 A 
ATOM     11  C   UNL     1       0.849  11.083  18.935  0.00  0.00    +0.000 A 
ATOM     12  F   UNL     1       0.321  12.314  19.016  0.00  0.00    +0.000 F 
ATOM     13  C   UNL     1       0.671  10.179  19.984  0.00  0.00    +0.000 A 
ATOM     14  C   UNL     1       1.194   8.888  19.856  0.00  0.00    +0.000 A 
BRANCH  13  15
ATOM     15  O   UNL     1      -0.052  10.646  21.046  0.00  0.00    +0.000 OA
BRANCH  15  16
ATOM     16  C   UNL     1       0.494  10.441  22.352  0.00  0.00    +0.000 C 
BRANCH  16  17
ATOM     17  C   UNL     1      -0.480   9.619  23.186  0.00  0.00    +0.000 C 
ATOM     18  F   UNL     1       0.120   9.202  24.332  0.00  0.00    +0.000 F 
ATOM     19  F   UNL     1      -1.522  10.404  23.567  0.00  0.00    +0.000 F 
ENDBRANCH  16  17
ENDBRANCH  15  16
ENDBRANCH  13  15
ENDBRANCH   7   8
ENDBRANCH   4   7
ENDBRANCH   1   4
BRANCH   1  20
ATOM     20  C   UNL     1       1.771   4.417  18.297  0.00  0.00    +0.000 C 
BRANCH  20  21
ATOM     21  C   UNL     1       2.029   2.916  18.116  0.00  0.00    +0.000 C 
BRANCH  21  22
ATOM     22  C   UNL     1       3.358   2.621  17.441  0.00  0.00    +0.000 C 
BRANCH  22  23
ATOM     23  O   UNL     1       3.888   3.839  16.928  0.00  0.00    +0.000 OA
BRANCH  23  24
ATOM     24  C   UNL     1       5.174   3.634  16.346  0.00  0.00    +0.000 C 
BRANCH  24  25
ATOM     25  N   UNL     1       6.147   4.567  16.893  0.00  0.00    +0.000 N 
ATOM     26  C   UNL     1       6.427   4.585  18.247  0.00  0.00    +0.000 A 
ATOM     27  C   UNL     1       7.141   5.563  18.806  0.00  0.00    +0.000 A 
ATOM     28  C   UNL     1       7.628   6.660  17.954  0.00  0.00    +0.000 A 
ATOM     29  O   UNL     1       8.128   7.666  18.439  0.00  0.00    +0.000 OA
ATOM     30  N   UNL     1       7.449   6.487  16.613  0.00  0.00    +0.000 N 
ATOM     31  C   UNL     1       6.618   5.560  16.044  0.00  0.00    +0.000 A 
ATOM     32  O   UNL     1       6.301   5.660  14.858  0.00  0.00    +0.000 OA
ATOM     33  H   UNL     1       7.740   7.248  16.018  0.00  0.00    +0.000 HD
ENDBRANCH  24  25
ENDBRANCH  23  24
ENDBRANCH  22  23
ENDBRANCH  21  22
ENDBRANCH  20  21
ENDBRANCH   1  20
TORSDOF 12
ENDMDL
MODEL 2
REMARK VINA RESULT:      -7.1      4.097      8.193
REMARK  Name = 
REMARK  13 active torsions:
REMARK  status: ('A' for Active; 'I' for Inactive)
REMARK    1  A    between atoms: C_1  and  C_2
REMARK    2  A    between atoms: C_2  and  N_3
REMARK    3  A    between atoms: C_2  and  C_20
REMARK    4  A    between atoms: N_3  and  S_4
REMARK    5  A    between atoms: S_4  and  C_7
REMARK    6  A    between atoms: C_7  and  C_8
REMARK    7  A    between atoms: C_8  and  C_9
REMARK    8  A    between atoms: C_9  and  O_10
REMARK    9  A    between atoms: O_10  and  C_11
REMARK   10  A    between atoms: C_11  and  N_12
REMARK   11  A    between atoms: C_25  and  O_26
REMARK   12  A    between atoms: O_26  and  C_27
REMARK   13  A    between atoms: C_27  and  C_28
REMARK                            x       y       z     vdW  Elec       q    Type
REMARK                         _______ _______ _______ _____ _____    ______ ____
ROOT
ATOM      1  S   UNL     1       1.329   3.074  20.110  0.00  0.00    +0.000 S 
ATOM      2  O   UNL     1       0.680   2.411  19.006  0.00  0.00    +0.000 OA
ATOM      3  O   UNL     1       1.076   2.697  21.487  0.00  0.00    +0.000 OA
ENDROOT
BRANCH   1   4
ATOM      4  N   UNL     1       2.995   2.927  19.826  0.00  0.00    +0.000 NA
ATOM      5  H   UNL     1       3.477   3.750  20.198  0.00  0.00    +0.000 HD
BRANCH   4   7
ATOM      6  C   UNL     1       3.828   1.365  18.018  0.00  0.00    +0.000 C 
ATOM      7  C   UNL     1       3.365   2.778  18.373  0.00  0.00    +0.000 C 
BRANCH   7   8
ATOM      8  C   UNL     1       4.459   3.777  17.998  0.00  0.00    +0.000 A 
ATOM      9  C   UNL     1       5.316   4.290  18.986  0.00  0.00    +0.000 A 
ATOM     10  C   UNL     1       6.362   5.145  18.638  0.00  0.00    +0.000 A 
ATOM     11  C   UNL     1       6.529   5.521  17.310  0.00  0.00    +0.000 A 
ATOM     12  F   UNL     1       7.540   6.347  16.998  0.00  0.00    +0.000 F 
ATOM     13  C   UNL     1       5.659   5.078  16.313  0.00  0.00    +0.000 A 
ATOM     14  C   UNL     1       4.640   4.183  16.657  0.00  0.00    +0.000 A 
BRANCH  13  15
ATOM     15  O   UNL     1       5.920   5.545  15.054  0.00  0.00    +0.000 OA
BRANCH  15  16
ATOM     16  C   UNL     1       6.926   4.865  14.299  0.00  0.00    +0.000 C 
BRANCH  16  17
ATOM     17  C   UNL     1       6.269   3.829  13.395  0.00  0.00    +0.000 C 
ATOM     18  F   UNL     1       4.928   4.039  13.338  0.00  0.00    +0.000 F 
ATOM     19  F   UNL     1       6.732   3.980  12.126  0.00  0.00    +0.000 F 
ENDBRANCH  16  17
ENDBRANCH  15  16
ENDBRANCH  13  15
ENDBRANCH   7   8
ENDBRANCH   4   7
ENDBRANCH   1   4
BRANCH   1  20
ATOM     20  C   UNL     1       1.015   4.836  19.979  0.00  0.00    +0.000 C 
BRANCH  20  21
ATOM     21  C   UNL     1       2.215   5.593  20.563  0.00  0.00    +0.000 C 
BRANCH  21  22
ATOM     22  C   UNL     1       2.829   6.576  19.581  0.00  0.00    +0.000 C 
BRANCH  22  23
ATOM     23  O   UNL     1       1.779   7.208  18.855  0.00  0.00    +0.000 OA
BRANCH  23  24
ATOM     24  C   UNL     1       2.015   8.610  18.731  0.00  0.00    +0.000 C 
BRANCH  24  25
ATOM     25  N   UNL     1       0.828   9.370  19.092  0.00  0.00    +0.000 N 
ATOM     26  C   UNL     1       0.064   9.992  18.123  0.00  0.00    +0.000 A 
ATOM     27  C   UNL     1      -0.893  10.867  18.434  0.00  0.00    +0.000 A 
ATOM     28  C   UNL     1      -1.126  11.188  19.851  0.00  0.00    +0.000 A 
ATOM     29  O   UNL     1      -1.860  12.110  20.180  0.00  0.00    +0.000 OA
ATOM     30  N   UNL     1      -0.445  10.419  20.748  0.00  0.00    +0.000 N 
ATOM     31  C   UNL     1       0.619   9.613  20.443  0.00  0.00    +0.000 A 
ATOM     32  O   UNL     1       1.344   9.182  21.341  0.00  0.00    +0.000 OA
ATOM     33  H   UNL     1      -0.561  10.652  21.722  0.00  0.00    +0.000 HD
ENDBRANCH  24  25
ENDBRANCH  23  24
ENDBRANCH  22  23
ENDBRANCH  21  22
ENDBRANCH  20  21
ENDBRANCH   1  20
TORSDOF 12
ENDMDL
MODEL 3
REMARK VINA RESULT:      -7.0      4.334      8.654
REMARK  Name = 
REMARK  13 active torsions:
REMARK  status: ('A' for Active; 'I' for Inactive)
REMARK    1  A    between atoms: C_1  and  C_2
REMARK    2  A    between atoms: C_2  and  N_3
REMARK    3  A    between atoms: C_2  and  C_20
REMARK    4  A    between atoms: N_3  and  S_4
REMARK    5  A    between atoms: S_4  and  C_7
REMARK    6  A    between atoms: C_7  and  C_8
REMARK    7  A    between atoms: C_8  and  C_9
REMARK    8  A    between atoms: C_9  and  O_10
REMARK    9  A    between atoms: O_10  and  C_11
REMARK   10  A    between atoms: C_11  and  N_12
REMARK   11  A    between atoms: C_25  and  O_26
REMARK   12  A    between atoms: O_26  and  C_27
REMARK   13  A    between atoms: C_27  and  C_28
REMARK                            x       y       z     vdW  Elec       q    Type
REMARK                         _______ _______ _______ _____ _____    ______ ____
ROOT
ATOM      1  S   UNL     1       1.956   2.937  20.640  0.00  0.00    +0.000 S 
ATOM      2  O   UNL     1       1.352   1.926  19.809  0.00  0.00    +0.000 OA
ATOM      3  O   UNL     1       2.099   2.768  22.073  0.00  0.00    +0.000 OA
ENDROOT
BRANCH   1   4
ATOM      4  N   UNL     1       3.500   3.210  19.992  0.00  0.00    +0.000 NA
ATOM      5  H   UNL     1       3.825   4.141  20.266  0.00  0.00    +0.000 HD
BRANCH   4   7
ATOM      6  C   UNL     1       3.849   1.688  18.000  0.00  0.00    +0.000 C 
ATOM      7  C   UNL     1       3.568   3.109  18.489  0.00  0.00    +0.000 C 
BRANCH   7   8
ATOM      8  C   UNL     1       4.637   4.054  17.941  0.00  0.00    +0.000 A 
ATOM      9  C   UNL     1       5.188   5.051  18.763  0.00  0.00    +0.000 A 
ATOM     10  C   UNL     1       6.215   5.867  18.289  0.00  0.00    +0.000 A 
ATOM     11  C   UNL     1       6.665   5.717  16.982  0.00  0.00    +0.000 A 
ATOM     12  F   UNL     1       7.652   6.515  16.546  0.00  0.00    +0.000 F 
ATOM     13  C   UNL     1       6.097   4.777  16.120  0.00  0.00    +0.000 A 
ATOM     14  C   UNL     1       5.101   3.927  16.612  0.00  0.00    +0.000 A 
BRANCH  13  15
ATOM     15  O   UNL     1       6.615   4.752  14.854  0.00  0.00    +0.000 OA
BRANCH  15  16
ATOM     16  C   UNL     1       6.312   3.613  14.045  0.00  0.00    +0.000 C 
BRANCH  16  17
ATOM     17  C   UNL     1       6.064   4.060  12.610  0.00  0.00    +0.000 C 
ATOM     18  F   UNL     1       7.245   4.298  11.982  0.00  0.00    +0.000 F 
ATOM     19  F   UNL     1       5.464   3.053  11.921  0.00  0.00    +0.000 F 
ENDBRANCH  16  17
ENDBRANCH  15  16
ENDBRANCH  13  15
ENDBRANCH   7   8
ENDBRANCH   4   7
ENDBRANCH   1   4
BRANCH   1  20
ATOM     20  C   UNL     1       1.089   4.486  20.375  0.00  0.00    +0.000 C 
BRANCH  20  21
ATOM     21  C   UNL     1       2.060   5.643  20.642  0.00  0.00    +0.000 C 
BRANCH  21  22
ATOM     22  C   UNL     1       2.023   6.708  19.558  0.00  0.00    +0.000 C 
BRANCH  22  23
ATOM     23  O   UNL     1       2.081   7.989  20.178  0.00  0.00    +0.000 OA
BRANCH  23  24
ATOM     24  C   UNL     1       1.203   8.055  21.301  0.00  0.00    +0.000 C 
BRANCH  24  25
ATOM     25  N   UNL     1       0.383   9.255  21.249  0.00  0.00    +0.000 N 
ATOM     26  C   UNL     1      -0.018   9.787  20.037  0.00  0.00    +0.000 A 
ATOM     27  C   UNL     1      -0.578  10.994  19.948  0.00  0.00    +0.000 A 
ATOM     28  C   UNL     1      -0.758  11.784  21.177  0.00  0.00    +0.000 A 
ATOM     29  O   UNL     1      -1.097  12.959  21.132  0.00  0.00    +0.000 OA
ATOM     30  N   UNL     1      -0.487  11.129  22.342  0.00  0.00    +0.000 N 
ATOM     31  C   UNL     1       0.198   9.947  22.438  0.00  0.00    +0.000 A 
ATOM     32  O   UNL     1       0.641   9.578  23.526  0.00  0.00    +0.000 OA
ATOM     33  H   UNL     1      -0.566  11.668  23.191  0.00  0.00    +0.000 HD
ENDBRANCH  24  25
ENDBRANCH  23  24
ENDBRANCH  22  23
ENDBRANCH  21  22
ENDBRANCH  20  21
ENDBRANCH   1  20
TORSDOF 12
ENDMDL
MODEL 4
REMARK VINA RESULT:      -7.0      4.438      6.582
REMARK  Name = 
REMARK  13 active torsions:
REMARK  status: ('A' for Active; 'I' for Inactive)
REMARK    1  A    between atoms: C_1  and  C_2
REMARK    2  A    between atoms: C_2  and  N_3
REMARK    3  A    between atoms: C_2  and  C_20
REMARK    4  A    between atoms: N_3  and  S_4
REMARK    5  A    between atoms: S_4  and  C_7
REMARK    6  A    between atoms: C_7  and  C_8
REMARK    7  A    between atoms: C_8  and  C_9
REMARK    8  A    between atoms: C_9  and  O_10
REMARK    9  A    between atoms: O_10  and  C_11
REMARK   10  A    between atoms: C_11  and  N_12
REMARK   11  A    between atoms: C_25  and  O_26
REMARK   12  A    between atoms: O_26  and  C_27
REMARK   13  A    between atoms: C_27  and  C_28
REMARK                            x       y       z     vdW  Elec       q    Type
REMARK                         _______ _______ _______ _____ _____    ______ ____
ROOT
ATOM      1  S   UNL     1       7.374   4.993  17.181  0.00  0.00    +0.000 S 
ATOM      2  O   UNL     1       8.335   4.058  17.710  0.00  0.00    +0.000 OA
ATOM      3  O   UNL     1       7.506   5.563  15.854  0.00  0.00    +0.000 OA
ENDROOT
BRANCH   1   4
ATOM      4  N   UNL     1       5.871   4.211  17.265  0.00  0.00    +0.000 NA
ATOM      5  H   UNL     1       5.940   3.292  16.817  0.00  0.00    +0.000 HD
BRANCH   4   7
ATOM      6  C   UNL     1       5.223   5.982  15.578  0.00  0.00    +0.000 C 
ATOM      7  C   UNL     1       4.741   4.968  16.616  0.00  0.00    +0.000 C 
BRANCH   7   8
ATOM      8  C   UNL     1       3.905   5.687  17.675  0.00  0.00    +0.000 A 
ATOM      9  C   UNL     1       3.584   7.046  17.519  0.00  0.00    +0.000 A 
ATOM     10  C   UNL     1       2.761   7.687  18.445  0.00  0.00    +0.000 A 
ATOM     11  C   UNL     1       2.291   6.984  19.549  0.00  0.00    +0.000 A 
ATOM     12  F   UNL     1       1.504   7.621  20.429  0.00  0.00    +0.000 F 
ATOM     13  C   UNL     1       2.641   5.650  19.766  0.00  0.00    +0.000 A 
ATOM     14  C   UNL     1       3.427   4.996  18.811  0.00  0.00    +0.000 A 
BRANCH  13  15
ATOM     15  O   UNL     1       2.134   5.087  20.904  0.00  0.00    +0.000 OA
BRANCH  15  16
ATOM     16  C   UNL     1       2.565   3.762  21.228  0.00  0.00    +0.000 C 
BRANCH  16  17
ATOM     17  C   UNL     1       1.402   2.793  21.064  0.00  0.00    +0.000 C 
ATOM     18  F   UNL     1       0.813   2.558  22.266  0.00  0.00    +0.000 F 
ATOM     19  F   UNL     1       0.449   3.362  20.279  0.00  0.00    +0.000 F 
ENDBRANCH  16  17
ENDBRANCH  15  16
ENDBRANCH  13  15
ENDBRANCH   7   8
ENDBRANCH   4   7
ENDBRANCH   1   4
BRANCH   1  20
ATOM     20  C   UNL     1       7.220   6.363  18.331  0.00  0.00    +0.000 C 
BRANCH  20  21
ATOM     21  C   UNL     1       7.661   7.650  17.621  0.00  0.00    +0.000 C 
BRANCH  21  22
ATOM     22  C   UNL     1       8.515   8.547  18.500  0.00  0.00    +0.000 C 
BRANCH  22  23
ATOM     23  O   UNL     1       8.252   9.904  18.156  0.00  0.00    +0.000 OA
BRANCH  23  24
ATOM     24  C   UNL     1       9.444  10.687  18.212  0.00  0.00    +0.000 C 
BRANCH  24  25
ATOM     25  N   UNL     1       9.380  11.654  19.297  0.00  0.00    +0.000 N 
ATOM     26  C   UNL     1       9.446  11.244  20.615  0.00  0.00    +0.000 A 
ATOM     27  C   UNL     1       9.173  12.072  21.625  0.00  0.00    +0.000 A 
ATOM     28  C   UNL     1       8.774  13.455  21.319  0.00  0.00    +0.000 A 
ATOM     29  O   UNL     1       8.341  14.198  22.189  0.00  0.00    +0.000 OA
ATOM     30  N   UNL     1       8.888  13.824  20.011  0.00  0.00    +0.000 N 
ATOM     31  C   UNL     1       9.046  12.959  18.961  0.00  0.00    +0.000 A 
ATOM     32  O   UNL     1       8.855  13.347  17.808  0.00  0.00    +0.000 OA
ATOM     33  H   UNL     1       8.580  14.756  19.777  0.00  0.00    +0.000 HD
ENDBRANCH  24  25
ENDBRANCH  23  24
ENDBRANCH  22  23
ENDBRANCH  21  22
ENDBRANCH  20  21
ENDBRANCH   1  20
TORSDOF 12
ENDMDL
MODEL 5
REMARK VINA RESULT:      -7.0      3.959      6.176
REMARK  Name = 
REMARK  13 active torsions:
REMARK  status: ('A' for Active; 'I' for Inactive)
REMARK    1  A    between atoms: C_1  and  C_2
REMARK    2  A    between atoms: C_2  and  N_3
REMARK    3  A    between atoms: C_2  and  C_20
REMARK    4  A    between atoms: N_3  and  S_4
REMARK    5  A    between atoms: S_4  and  C_7
REMARK    6  A    between atoms: C_7  and  C_8
REMARK    7  A    between atoms: C_8  and  C_9
REMARK    8  A    between atoms: C_9  and  O_10
REMARK    9  A    between atoms: O_10  and  C_11
REMARK   10  A    between atoms: C_11  and  N_12
REMARK   11  A    between atoms: C_25  and  O_26
REMARK   12  A    between atoms: O_26  and  C_27
REMARK   13  A    between atoms: C_27  and  C_28
REMARK                            x       y       z     vdW  Elec       q    Type
REMARK                         _______ _______ _______ _____ _____    ______ ____
ROOT
ATOM      1  S   UNL     1       6.126   5.301  16.286  0.00  0.00    +0.000 S 
ATOM      2  O   UNL     1       6.804   4.029  16.294  0.00  0.00    +0.000 OA
ATOM      3  O   UNL     1       6.133   6.167  15.123  0.00  0.00    +0.000 OA
ENDROOT
BRANCH   1   4
ATOM      4  N   UNL     1       4.509   4.968  16.677  0.00  0.00    +0.000 NA
ATOM      5  H   UNL     1       3.963   5.833  16.631  0.00  0.00    +0.000 HD
BRANCH   4   7
ATOM      6  C   UNL     1       3.807   2.918  17.983  0.00  0.00    +0.000 C 
ATOM      7  C   UNL     1       4.315   4.359  18.042  0.00  0.00    +0.000 C 
BRANCH   7   8
ATOM      8  C   UNL     1       3.345   5.203  18.868  0.00  0.00    +0.000 A 
ATOM      9  C   UNL     1       2.624   4.621  19.924  0.00  0.00    +0.000 A 
ATOM     10  C   UNL     1       1.794   5.404  20.727  0.00  0.00    +0.000 A 
ATOM     11  C   UNL     1       1.650   6.759  20.451  0.00  0.00    +0.000 A 
ATOM     12  F   UNL     1       0.844   7.492  21.234  0.00  0.00    +0.000 F 
ATOM     13  C   UNL     1       2.304   7.356  19.372  0.00  0.00    +0.000 A 
ATOM     14  C   UNL     1       3.173   6.580  18.598  0.00  0.00    +0.000 A 
BRANCH  13  15
ATOM     15  O   UNL     1       2.053   8.689  19.198  0.00  0.00    +0.000 OA
BRANCH  15  16
ATOM     16  C   UNL     1       1.417   9.082  17.979  0.00  0.00    +0.000 C 
BRANCH  16  17
ATOM     17  C   UNL     1       0.238   9.995  18.291  0.00  0.00    +0.000 C 
ATOM     18  F   UNL     1      -0.309   9.661  19.489  0.00  0.00    +0.000 F 
ATOM     19  F   UNL     1       0.680  11.274  18.419  0.00  0.00    +0.000 F 
ENDBRANCH  16  17
ENDBRANCH  15  16
ENDBRANCH  13  15
ENDBRANCH   7   8
ENDBRANCH   4   7
ENDBRANCH   1   4
BRANCH   1  20
ATOM     20  C   UNL     1       6.723   6.273  17.672  0.00  0.00    +0.000 C 
BRANCH  20  21
ATOM     21  C   UNL     1       7.547   7.447  17.129  0.00  0.00    +0.000 C 
BRANCH  21  22
ATOM     22  C   UNL     1       8.257   8.227  18.222  0.00  0.00    +0.000 C 
BRANCH  22  23
ATOM     23  O   UNL     1       8.259   9.606  17.868  0.00  0.00    +0.000 OA
BRANCH  23  24
ATOM     24  C   UNL     1       8.957  10.384  18.840  0.00  0.00    +0.000 C 
BRANCH  24  25
ATOM     25  N   UNL     1       9.770  11.406  18.201  0.00  0.00    +0.000 N 
ATOM     26  C   UNL     1      11.144  11.415  18.353  0.00  0.00    +0.000 A 
ATOM     27  C   UNL     1      11.890  12.451  17.967  0.00  0.00    +0.000 A 
ATOM     28  C   UNL     1      11.222  13.622  17.377  0.00  0.00    +0.000 A 
ATOM     29  O   UNL     1      11.832  14.664  17.174  0.00  0.00    +0.000 OA
ATOM     30  N   UNL     1       9.893  13.472  17.115  0.00  0.00    +0.000 N 
ATOM     31  C   UNL     1       9.102  12.472  17.615  0.00  0.00    +0.000 A 
ATOM     32  O   UNL     1       7.875  12.571  17.563  0.00  0.00    +0.000 OA
ATOM     33  H   UNL     1       9.411  14.279  16.749  0.00  0.00    +0.000 HD
ENDBRANCH  24  25
ENDBRANCH  23  24
ENDBRANCH  22  23
ENDBRANCH  21  22
ENDBRANCH  20  21
ENDBRANCH   1  20
TORSDOF 12
ENDMDL
MODEL 6
REMARK VINA RESULT:      -6.9      4.265      7.985
REMARK  Name = 
REMARK  13 active torsions:
REMARK  status: ('A' for Active; 'I' for Inactive)
REMARK    1  A    between atoms: C_1  and  C_2
REMARK    2  A    between atoms: C_2  and  N_3
REMARK    3  A    between atoms: C_2  and  C_20
REMARK    4  A    between atoms: N_3  and  S_4
REMARK    5  A    between atoms: S_4  and  C_7
REMARK    6  A    between atoms: C_7  and  C_8
REMARK    7  A    between atoms: C_8  and  C_9
REMARK    8  A    between atoms: C_9  and  O_10
REMARK    9  A    between atoms: O_10  and  C_11
REMARK   10  A    between atoms: C_11  and  N_12
REMARK   11  A    between atoms: C_25  and  O_26
REMARK   12  A    between atoms: O_26  and  C_27
REMARK   13  A    between atoms: C_27  and  C_28
REMARK                            x       y       z     vdW  Elec       q    Type
REMARK                         _______ _______ _______ _____ _____    ______ ____
ROOT
ATOM      1  S   UNL     1       1.954   4.042  20.738  0.00  0.00    +0.000 S 
ATOM      2  O   UNL     1       0.705   3.570  20.194  0.00  0.00    +0.000 OA
ATOM      3  O   UNL     1       2.263   3.941  22.151  0.00  0.00    +0.000 OA
ENDROOT
BRANCH   1   4
ATOM      4  N   UNL     1       3.172   3.230  19.880  0.00  0.00    +0.000 NA
ATOM      5  H   UNL     1       4.088   3.524  20.228  0.00  0.00    +0.000 HD
BRANCH   4   7
ATOM      6  C   UNL     1       3.138   2.156  17.589  0.00  0.00    +0.000 C 
ATOM      7  C   UNL     1       3.137   3.458  18.390  0.00  0.00    +0.000 C 
BRANCH   7   8
ATOM      8  C   UNL     1       4.323   4.319  17.957  0.00  0.00    +0.000 A 
ATOM      9  C   UNL     1       5.191   4.862  18.919  0.00  0.00    +0.000 A 
ATOM     10  C   UNL     1       6.316   5.588  18.526  0.00  0.00    +0.000 A 
ATOM     11  C   UNL     1       6.553   5.806  17.173  0.00  0.00    +0.000 A 
ATOM     12  F   UNL     1       7.640   6.509  16.817  0.00  0.00    +0.000 F 
ATOM     13  C   UNL     1       5.678   5.333  16.194  0.00  0.00    +0.000 A 
ATOM     14  C   UNL     1       4.578   4.565  16.589  0.00  0.00    +0.000 A 
BRANCH  13  15
ATOM     15  O   UNL     1       6.016   5.642  14.905  0.00  0.00    +0.000 OA
BRANCH  15  16
ATOM     16  C   UNL     1       6.972   4.798  14.258  0.00  0.00    +0.000 C 
BRANCH  16  17
ATOM     17  C   UNL     1       6.244   3.738  13.441  0.00  0.00    +0.000 C 
ATOM     18  F   UNL     1       4.924   4.044  13.344  0.00  0.00    +0.000 F 
ATOM     19  F   UNL     1       6.728   3.736  12.171  0.00  0.00    +0.000 F 
ENDBRANCH  16  17
ENDBRANCH  15  16
ENDBRANCH  13  15
ENDBRANCH   7   8
ENDBRANCH   4   7
ENDBRANCH   1   4
BRANCH   1  20
ATOM     20  C   UNL     1       2.163   5.763  20.273  0.00  0.00    +0.000 C 
BRANCH  20  21
ATOM     21  C   UNL     1       1.174   6.612  21.082  0.00  0.00    +0.000 C 
BRANCH  21  22
ATOM     22  C   UNL     1       1.498   8.096  21.043  0.00  0.00    +0.000 C 
BRANCH  22  23
ATOM     23  O   UNL     1       1.284   8.573  19.718  0.00  0.00    +0.000 OA
BRANCH  23  24
ATOM     24  C   UNL     1       0.501   9.767  19.724  0.00  0.00    +0.000 C 
BRANCH  24  25
ATOM     25  N   UNL     1       1.314  10.922  19.378  0.00  0.00    +0.000 N 
ATOM     26  C   UNL     1       1.269  12.073  20.143  0.00  0.00    +0.000 A 
ATOM     27  C   UNL     1       1.828  13.213  19.734  0.00  0.00    +0.000 A 
ATOM     28  C   UNL     1       2.496  13.243  18.423  0.00  0.00    +0.000 A 
ATOM     29  O   UNL     1       2.863  14.298  17.922  0.00  0.00    +0.000 OA
ATOM     30  N   UNL     1       2.637  12.035  17.806  0.00  0.00    +0.000 N 
ATOM     31  C   UNL     1       1.966  10.893  18.153  0.00  0.00    +0.000 A 
ATOM     32  O   UNL     1       1.935   9.936  17.378  0.00  0.00    +0.000 OA
ATOM     33  H   UNL     1       3.055  12.044  16.888  0.00  0.00    +0.000 HD
ENDBRANCH  24  25
ENDBRANCH  23  24
ENDBRANCH  22  23
ENDBRANCH  21  22
ENDBRANCH  20  21
ENDBRANCH   1  20
TORSDOF 12
ENDMDL
MODEL 7
REMARK VINA RESULT:      -6.9      1.277      2.875
REMARK  Name = 
REMARK  13 active torsions:
REMARK  status: ('A' for Active; 'I' for Inactive)
REMARK    1  A    between atoms: C_1  and  C_2
REMARK    2  A    between atoms: C_2  and  N_3
REMARK    3  A    between atoms: C_2  and  C_20
REMARK    4  A    between atoms: N_3  and  S_4
REMARK    5  A    between atoms: S_4  and  C_7
REMARK    6  A    between atoms: C_7  and  C_8
REMARK    7  A    between atoms: C_8  and  C_9
REMARK    8  A    between atoms: C_9  and  O_10
REMARK    9  A    between atoms: O_10  and  C_11
REMARK   10  A    between atoms: C_11  and  N_12
REMARK   11  A    between atoms: C_25  and  O_26
REMARK   12  A    between atoms: O_26  and  C_27
REMARK   13  A    between atoms: C_27  and  C_28
REMARK                            x       y       z     vdW  Elec       q    Type
REMARK                         _______ _______ _______ _____ _____    ______ ____
ROOT
ATOM      1  S   UNL     1       2.003   4.342  20.735  0.00  0.00    +0.000 S 
ATOM      2  O   UNL     1       2.391   3.902  22.052  0.00  0.00    +0.000 OA
ATOM      3  O   UNL     1       0.612   4.508  20.361  0.00  0.00    +0.000 OA
ENDROOT
BRANCH   1   4
ATOM      4  N   UNL     1       2.790   5.824  20.489  0.00  0.00    +0.000 NA
ATOM      5  H   UNL     1       2.874   6.317  21.382  0.00  0.00    +0.000 HD
BRANCH   4   7
ATOM      6  C   UNL     1       3.023   7.217  18.390  0.00  0.00    +0.000 C 
ATOM      7  C   UNL     1       2.099   6.737  19.509  0.00  0.00    +0.000 C 
BRANCH   7   8
ATOM      8  C   UNL     1       1.511   7.948  20.233  0.00  0.00    +0.000 A 
ATOM      9  C   UNL     1       1.157   7.856  21.590  0.00  0.00    +0.000 A 
ATOM     10  C   UNL     1       0.688   8.978  22.274  0.00  0.00    +0.000 A 
ATOM     11  C   UNL     1       0.535  10.182  21.595  0.00  0.00    +0.000 A 
ATOM     12  F   UNL     1       0.080  11.248  22.272  0.00  0.00    +0.000 F 
ATOM     13  C   UNL     1       0.820  10.292  20.233  0.00  0.00    +0.000 A 
ATOM     14  C   UNL     1       1.335   9.178  19.561  0.00  0.00    +0.000 A 
BRANCH  13  15
ATOM     15  O   UNL     1       0.599  11.525  19.684  0.00  0.00    +0.000 OA
BRANCH  15  16
ATOM     16  C   UNL     1       1.648  12.491  19.800  0.00  0.00    +0.000 C 
BRANCH  16  17
ATOM     17  C   UNL     1       2.149  12.865  18.411  0.00  0.00    +0.000 C 
ATOM     18  F   UNL     1       1.179  13.522  17.723  0.00  0.00    +0.000 F 
ATOM     19  F   UNL     1       3.188  13.734  18.526  0.00  0.00    +0.000 F 
ENDBRANCH  16  17
ENDBRANCH  15  16
ENDBRANCH  13  15
ENDBRANCH   7   8
ENDBRANCH   4   7
ENDBRANCH   1   4
BRANCH   1  20
ATOM     20  C   UNL     1       2.747   3.243  19.526  0.00  0.00    +0.000 C 
BRANCH  20  21
ATOM     21  C   UNL     1       2.060   3.467  18.172  0.00  0.00    +0.000 C 
BRANCH  21  22
ATOM     22  C   UNL     1       2.978   3.198  16.992  0.00  0.00    +0.000 C 
BRANCH  22  23
ATOM     23  O   UNL     1       3.910   4.270  16.887  0.00  0.00    +0.000 OA
BRANCH  23  24
ATOM     24  C   UNL     1       5.232   3.779  16.670  0.00  0.00    +0.000 C 
BRANCH  24  25
ATOM     25  N   UNL     1       6.224   4.759  17.086  0.00  0.00    +0.000 N 
ATOM     26  C   UNL     1       6.609   4.857  18.410  0.00  0.00    +0.000 A 
ATOM     27  C   UNL     1       7.344   5.878  18.856  0.00  0.00    +0.000 A 
ATOM     28  C   UNL     1       7.739   6.933  17.909  0.00  0.00    +0.000 A 
ATOM     29  O   UNL     1       8.253   7.973  18.297  0.00  0.00    +0.000 OA
ATOM     30  N   UNL     1       7.459   6.682  16.598  0.00  0.00    +0.000 N 
ATOM     31  C   UNL     1       6.605   5.710  16.149  0.00  0.00    +0.000 A 
ATOM     32  O   UNL     1       6.194   5.737  14.989  0.00  0.00    +0.000 OA
ATOM     33  H   UNL     1       7.685   7.413  15.941  0.00  0.00    +0.000 HD
ENDBRANCH  24  25
ENDBRANCH  23  24
ENDBRANCH  22  23
ENDBRANCH  21  22
ENDBRANCH  20  21
ENDBRANCH   1  20
TORSDOF 12
ENDMDL
MODEL 8
REMARK VINA RESULT:      -6.8      1.608      3.034
REMARK  Name = 
REMARK  13 active torsions:
REMARK  status: ('A' for Active; 'I' for Inactive)
REMARK    1  A    between atoms: C_1  and  C_2
REMARK    2  A    between atoms: C_2  and  N_3
REMARK    3  A    between atoms: C_2  and  C_20
REMARK    4  A    between atoms: N_3  and  S_4
REMARK    5  A    between atoms: S_4  and  C_7
REMARK    6  A    between atoms: C_7  and  C_8
REMARK    7  A    between atoms: C_8  and  C_9
REMARK    8  A    between atoms: C_9  and  O_10
REMARK    9  A    between atoms: O_10  and  C_11
REMARK   10  A    between atoms: C_11  and  N_12
REMARK   11  A    between atoms: C_25  and  O_26
REMARK   12  A    between atoms: O_26  and  C_27
REMARK   13  A    between atoms: C_27  and  C_28
REMARK                            x       y       z     vdW  Elec       q    Type
REMARK                         _______ _______ _______ _____ _____    ______ ____
ROOT
ATOM      1  S   UNL     1       1.982   4.190  20.287  0.00  0.00    +0.000 S 
ATOM      2  O   UNL     1       2.753   3.268  21.083  0.00  0.00    +0.000 OA
ATOM      3  O   UNL     1       0.676   4.661  20.707  0.00  0.00    +0.000 OA
ENDROOT
BRANCH   1   4
ATOM      4  N   UNL     1       2.975   5.547  20.057  0.00  0.00    +0.000 NA
ATOM      5  H   UNL     1       3.053   6.065  20.936  0.00  0.00    +0.000 HD
BRANCH   4   7
ATOM      6  C   UNL     1       3.598   6.930  18.032  0.00  0.00    +0.000 C 
ATOM      7  C   UNL     1       2.490   6.496  18.991  0.00  0.00    +0.000 C 
BRANCH   7   8
ATOM      8  C   UNL     1       1.860   7.733  19.629  0.00  0.00    +0.000 A 
ATOM      9  C   UNL     1       1.645   7.782  21.016  0.00  0.00    +0.000 A 
ATOM     10  C   UNL     1       1.138   8.937  21.612  0.00  0.00    +0.000 A 
ATOM     11  C   UNL     1       0.807  10.030  20.818  0.00  0.00    +0.000 A 
ATOM     12  F   UNL     1       0.317  11.130  21.411  0.00  0.00    +0.000 F 
ATOM     13  C   UNL     1       0.950   9.993  19.430  0.00  0.00    +0.000 A 
ATOM     14  C   UNL     1       1.504   8.852  18.841  0.00  0.00    +0.000 A 
BRANCH  13  15
ATOM     15  O   UNL     1       0.562  11.125  18.768  0.00  0.00    +0.000 OA
BRANCH  15  16
ATOM     16  C   UNL     1      -0.834  11.278  18.496  0.00  0.00    +0.000 C 
BRANCH  16  17
ATOM     17  C   UNL     1      -1.222  12.744  18.636  0.00  0.00    +0.000 C 
ATOM     18  F   UNL     1      -0.794  13.230  19.830  0.00  0.00    +0.000 F 
ATOM     19  F   UNL     1      -0.588  13.472  17.679  0.00  0.00    +0.000 F 
ENDBRANCH  16  17
ENDBRANCH  15  16
ENDBRANCH  13  15
ENDBRANCH   7   8
ENDBRANCH   4   7
ENDBRANCH   1   4
BRANCH   1  20
ATOM     20  C   UNL     1       1.791   3.501  18.641  0.00  0.00    +0.000 C 
BRANCH  20  21
ATOM     21  C   UNL     1       2.422   2.103  18.619  0.00  0.00    +0.000 C 
BRANCH  21  22
ATOM     22  C   UNL     1       3.648   2.021  17.725  0.00  0.00    +0.000 C 
BRANCH  22  23
ATOM     23  O   UNL     1       3.931   3.323  17.222  0.00  0.00    +0.000 OA
BRANCH  23  24
ATOM     24  C   UNL     1       5.278   3.700  17.508  0.00  0.00    +0.000 C 
BRANCH  24  25
ATOM     25  N   UNL     1       5.888   4.355  16.361  0.00  0.00    +0.000 N 
ATOM     26  C   UNL     1       5.590   3.949  15.073  0.00  0.00    +0.000 A 
ATOM     27  C   UNL     1       6.289   4.376  14.020  0.00  0.00    +0.000 A 
ATOM     28  C   UNL     1       7.418   5.293  14.245  0.00  0.00    +0.000 A 
ATOM     29  O   UNL     1       8.199   5.571  13.345  0.00  0.00    +0.000 OA
ATOM     30  N   UNL     1       7.545   5.770  15.517  0.00  0.00    +0.000 N 
ATOM     31  C   UNL     1       6.919   5.249  16.617  0.00  0.00    +0.000 A 
ATOM     32  O   UNL     1       7.304   5.551  17.747  0.00  0.00    +0.000 OA
ATOM     33  H   UNL     1       8.338   6.367  15.697  0.00  0.00    +0.000 HD
ENDBRANCH  24  25
ENDBRANCH  23  24
ENDBRANCH  22  23
ENDBRANCH  21  22
ENDBRANCH  20  21
ENDBRANCH   1  20
TORSDOF 12
ENDMDL
MODEL 9
REMARK VINA RESULT:      -6.8      4.292      8.736
REMARK  Name = 
REMARK  13 active torsions:
REMARK  status: ('A' for Active; 'I' for Inactive)
REMARK    1  A    between atoms: C_1  and  C_2
REMARK    2  A    between atoms: C_2  and  N_3
REMARK    3  A    between atoms: C_2  and  C_20
REMARK    4  A    between atoms: N_3  and  S_4
REMARK    5  A    between atoms: S_4  and  C_7
REMARK    6  A    between atoms: C_7  and  C_8
REMARK    7  A    between atoms: C_8  and  C_9
REMARK    8  A    between atoms: C_9  and  O_10
REMARK    9  A    between atoms: O_10  and  C_11
REMARK   10  A    between atoms: C_11  and  N_12
REMARK   11  A    between atoms: C_25  and  O_26
REMARK   12  A    between atoms: O_26  and  C_27
REMARK   13  A    between atoms: C_27  and  C_28
REMARK                            x       y       z     vdW  Elec       q    Type
REMARK                         _______ _______ _______ _____ _____    ______ ____
ROOT
ATOM      1  S   UNL     1       2.112   3.567  20.913  0.00  0.00    +0.000 S 
ATOM      2  O   UNL     1       0.807   3.466  20.307  0.00  0.00    +0.000 OA
ATOM      3  O   UNL     1       2.441   2.876  22.145  0.00  0.00    +0.000 OA
ENDROOT
BRANCH   1   4
ATOM      4  N   UNL     1       3.216   3.070  19.725  0.00  0.00    +0.000 NA
ATOM      5  H   UNL     1       4.142   3.450  19.941  0.00  0.00    +0.000 HD
BRANCH   4   7
ATOM      6  C   UNL     1       2.528   2.302  17.414  0.00  0.00    +0.000 C 
ATOM      7  C   UNL     1       2.849   3.488  18.324  0.00  0.00    +0.000 C 
BRANCH   7   8
ATOM      8  C   UNL     1       3.975   4.312  17.703  0.00  0.00    +0.000 A 
ATOM      9  C   UNL     1       4.143   5.661  18.058  0.00  0.00    +0.000 A 
ATOM     10  C   UNL     1       5.214   6.397  17.549  0.00  0.00    +0.000 A 
ATOM     11  C   UNL     1       6.094   5.799  16.654  0.00  0.00    +0.000 A 
ATOM     12  F   UNL     1       7.115   6.526  16.175  0.00  0.00    +0.000 F 
ATOM     13  C   UNL     1       5.921   4.480  16.233  0.00  0.00    +0.000 A 
ATOM     14  C   UNL     1       4.875   3.730  16.781  0.00  0.00    +0.000 A 
BRANCH  13  15
ATOM     15  O   UNL     1       6.841   4.025  15.330  0.00  0.00    +0.000 OA
BRANCH  15  16
ATOM     16  C   UNL     1       6.825   4.613  14.026  0.00  0.00    +0.000 C 
BRANCH  16  17
ATOM     17  C   UNL     1       6.202   3.637  13.036  0.00  0.00    +0.000 C 
ATOM     18  F   UNL     1       4.875   3.890  12.899  0.00  0.00    +0.000 F 
ATOM     19  F   UNL     1       6.754   3.825  11.808  0.00  0.00    +0.000 F 
ENDBRANCH  16  17
ENDBRANCH  15  16
ENDBRANCH  13  15
ENDBRANCH   7   8
ENDBRANCH   4   7
ENDBRANCH   1   4
BRANCH   1  20
ATOM     20  C   UNL     1       2.489   5.304  21.165  0.00  0.00    +0.000 C 
BRANCH  20  21
ATOM     21  C   UNL     1       1.354   6.144  20.566  0.00  0.00    +0.000 C 
BRANCH  21  22
ATOM     22  C   UNL     1       1.738   7.600  20.365  0.00  0.00    +0.000 C 
BRANCH  22  23
ATOM     23  O   UNL     1       1.272   8.351  21.482  0.00  0.00    +0.000 OA
BRANCH  23  24
ATOM     24  C   UNL     1      -0.075   8.780  21.284  0.00  0.00    +0.000 C 
BRANCH  24  25
ATOM     25  N   UNL     1      -0.159  10.232  21.259  0.00  0.00    +0.000 N 
ATOM     26  C   UNL     1       0.293  10.948  20.167  0.00  0.00    +0.000 A 
ATOM     27  C   UNL     1       0.431  12.275  20.201  0.00  0.00    +0.000 A 
ATOM     28  C   UNL     1       0.106  12.988  21.447  0.00  0.00    +0.000 A 
ATOM     29  O   UNL     1       0.384  14.170  21.592  0.00  0.00    +0.000 OA
ATOM     30  N   UNL     1      -0.482  12.235  22.420  0.00  0.00    +0.000 N 
ATOM     31  C   UNL     1      -0.514  10.866  22.442  0.00  0.00    +0.000 A 
ATOM     32  O   UNL     1      -0.807  10.272  23.481  0.00  0.00    +0.000 OA
ATOM     33  H   UNL     1      -0.674  12.698  23.295  0.00  0.00    +0.000 HD
ENDBRANCH  24  25
ENDBRANCH  23  24
ENDBRANCH  22  23
ENDBRANCH  21  22
ENDBRANCH  20  21
ENDBRANCH   1  20
TORSDOF 12
ENDMDL
