MODEL 1
REMARK VINA RESULT:      -9.5      0.000      0.000
REMARK  Name = 
REMARK  7 active torsions:
REMARK  status: ('A' for Active; 'I' for Inactive)
REMARK    1  A    between atoms: C_1  and  C_2
REMARK    2  A    between atoms: C_3  and  C_4
REMARK    3  A    between atoms: C_4  and  C_5
REMARK    4  A    between atoms: C_5  and  C_6
REMARK    5  A    between atoms: C_12  and  C_13
REMARK    6  A    between atoms: C_13  and  O_15
REMARK    7  A    between atoms: C_20  and  C_21
REMARK                            x       y       z     vdW  Elec       q    Type
REMARK                         _______ _______ _______ _____ _____    ______ ____
ROOT
ATOM      1  C   UNL     1       2.935   7.846  17.407  0.00  0.00    +0.000 C 
ATOM      2  C   UNL     1       2.288   7.458  18.723  0.00  0.00    +0.000 A 
ATOM      3  C   UNL     1       2.303   6.225  19.252  0.00  0.00    +0.000 A 
ATOM      4  C   UNL     1       1.669   5.972  20.582  0.00  0.00    +0.000 A 
ATOM      5  O   UNL     1       1.614   4.841  21.058  0.00  0.00    +0.000 OA
ATOM      6  O   UNL     1       1.128   7.065  21.279  0.00  0.00    +0.000 OA
ATOM      7  C   UNL     1       1.149   8.390  20.771  0.00  0.00    +0.000 A 
ATOM      8  C   UNL     1       0.656   9.476  21.577  0.00  0.00    +0.000 A 
ATOM      9  C   UNL     1      -0.032   9.251  22.890  0.00  0.00    +0.000 C 
ATOM     10  C   UNL     1       0.878  10.759  21.007  0.00  0.00    +0.000 A 
ATOM     11  O   UNL     1       0.683  12.047  21.511  0.00  0.00    +0.000 OA
ATOM     12  C   UNL     1       1.134  12.924  20.547  0.00  0.00    +0.000 A 
ATOM     13  C   UNL     1       1.569  12.248  19.455  0.00  0.00    +0.000 A 
ATOM     14  C   UNL     1       1.390  10.898  19.729  0.00  0.00    +0.000 A 
ATOM     15  C   UNL     1       1.711   9.806  18.947  0.00  0.00    +0.000 A 
ATOM     16  C   UNL     1       1.680   8.549  19.495  0.00  0.00    +0.000 A 
ATOM     17  C   UNL     1       2.196  12.791  18.242  0.00  0.00    +0.000 C 
ATOM     18  C   UNL     1       2.380  14.292  18.274  0.00  0.00    +0.000 C 
ATOM     19  C   UNL     1       1.743  15.099  19.427  0.00  0.00    +0.000 C 
ATOM     20  C   UNL     1       1.200  14.391  20.712  0.00  0.00    +0.000 C 
ENDROOT
BRANCH   3  21
ATOM     21  C   UNL     1       3.002   5.113  18.492  0.00  0.00    +0.000 C 
BRANCH  21  22
ATOM     22  C   UNL     1       4.041   4.242  19.172  0.00  0.00    +0.000 C 
BRANCH  22  23
ATOM     23  C   UNL     1       5.441   4.790  18.993  0.00  0.00    +0.000 C 
ATOM     24  O   UNL     1       6.202   4.982  19.928  0.00  0.00    +0.000 OA
ATOM     25  N   UNL     1       5.823   5.046  17.694  0.00  0.00    +0.000 N 
ATOM     26  C   UNL     1       5.038   4.838  16.489  0.00  0.00    +0.000 C 
ATOM     27  C   UNL     1       6.043   4.255  15.520  0.00  0.00    +0.000 C 
ATOM     28  C   UNL     1       7.345   4.967  15.873  0.00  0.00    +0.000 C 
ATOM     29  C   UNL     1       7.225   5.324  17.363  0.00  0.00    +0.000 C 
BRANCH  29  30
ATOM     30  C   UNL     1       7.619   6.791  17.589  0.00  0.00    +0.000 C 
ATOM     31  O   UNL     1       7.402   7.682  16.777  0.00  0.00    +0.000 OA
BRANCH  30  32
ATOM     32  O   UNL     1       8.196   7.042  18.787  0.00  0.00    +0.000 OA
ATOM     33  H   UNL     1       9.151   7.228  18.678  0.00  0.00    +0.000 HD
ENDBRANCH  30  32
ENDBRANCH  29  30
ENDBRANCH  22  23
ENDBRANCH  21  22
ENDBRANCH   3  21
TORSDOF 5
ENDMDL
MODEL 2
REMARK VINA RESULT:      -9.4      3.973      9.271
REMARK  Name = 
REMARK  7 active torsions:
REMARK  status: ('A' for Active; 'I' for Inactive)
REMARK    1  A    between atoms: C_1  and  C_2
REMARK    2  A    between atoms: C_3  and  C_4
REMARK    3  A    between atoms: C_4  and  C_5
REMARK    4  A    between atoms: C_5  and  C_6
REMARK    5  A    between atoms: C_12  and  C_13
REMARK    6  A    between atoms: C_13  and  O_15
REMARK    7  A    between atoms: C_20  and  C_21
REMARK                            x       y       z     vdW  Elec       q    Type
REMARK                         _______ _______ _______ _____ _____    ______ ____
ROOT
ATOM      1  C   UNL     1       2.017  10.144  17.827  0.00  0.00    +0.000 C 
ATOM      2  C   UNL     1       1.592   9.276  18.997  0.00  0.00    +0.000 A 
ATOM      3  C   UNL     1       0.630   9.592  19.878  0.00  0.00    +0.000 A 
ATOM      4  C   UNL     1       0.266   8.634  20.966  0.00  0.00    +0.000 A 
ATOM      5  O   UNL     1      -0.565   8.926  21.822  0.00  0.00    +0.000 OA
ATOM      6  O   UNL     1       0.905   7.383  20.992  0.00  0.00    +0.000 OA
ATOM      7  C   UNL     1       1.885   6.998  20.039  0.00  0.00    +0.000 A 
ATOM      8  C   UNL     1       2.435   5.669  20.072  0.00  0.00    +0.000 A 
ATOM      9  C   UNL     1       2.130   4.703  21.178  0.00  0.00    +0.000 C 
ATOM     10  C   UNL     1       3.285   5.373  18.973  0.00  0.00    +0.000 A 
ATOM     11  O   UNL     1       3.897   4.187  18.562  0.00  0.00    +0.000 OA
ATOM     12  C   UNL     1       4.557   4.465  17.384  0.00  0.00    +0.000 A 
ATOM     13  C   UNL     1       4.415   5.774  17.058  0.00  0.00    +0.000 A 
ATOM     14  C   UNL     1       3.642   6.349  18.058  0.00  0.00    +0.000 A 
ATOM     15  C   UNL     1       3.192   7.650  18.165  0.00  0.00    +0.000 A 
ATOM     16  C   UNL     1       2.238   7.962  19.100  0.00  0.00    +0.000 A 
ATOM     17  C   UNL     1       4.891   6.465  15.852  0.00  0.00    +0.000 C 
ATOM     18  C   UNL     1       5.598   5.556  14.871  0.00  0.00    +0.000 C 
ATOM     19  C   UNL     1       5.919   4.106  15.293  0.00  0.00    +0.000 C 
ATOM     20  C   UNL     1       5.259   3.462  16.557  0.00  0.00    +0.000 C 
ENDROOT
BRANCH   3  21
ATOM     21  C   UNL     1      -0.094  10.917  19.724  0.00  0.00    +0.000 C 
BRANCH  21  22
ATOM     22  C   UNL     1      -1.331  11.028  18.854  0.00  0.00    +0.000 C 
BRANCH  22  23
ATOM     23  C   UNL     1      -2.422  11.836  19.523  0.00  0.00    +0.000 C 
ATOM     24  O   UNL     1      -2.204  12.604  20.447  0.00  0.00    +0.000 OA
ATOM     25  N   UNL     1      -3.691  11.670  19.013  0.00  0.00    +0.000 N 
ATOM     26  C   UNL     1      -4.089  10.820  17.904  0.00  0.00    +0.000 C 
ATOM     27  C   UNL     1      -5.072  11.682  17.145  0.00  0.00    +0.000 C 
ATOM     28  C   UNL     1      -5.789  12.467  18.239  0.00  0.00    +0.000 C 
ATOM     29  C   UNL     1      -4.778  12.580  19.390  0.00  0.00    +0.000 C 
BRANCH  29  30
ATOM     30  C   UNL     1      -5.447  12.201  20.720  0.00  0.00    +0.000 C 
ATOM     31  O   UNL     1      -6.399  11.436  20.805  0.00  0.00    +0.000 OA
BRANCH  30  32
ATOM     32  O   UNL     1      -4.874  12.752  21.816  0.00  0.00    +0.000 OA
ATOM     33  H   UNL     1      -4.127  13.331  21.562  0.00  0.00    +0.000 HD
ENDBRANCH  30  32
ENDBRANCH  29  30
ENDBRANCH  22  23
ENDBRANCH  21  22
ENDBRANCH   3  21
TORSDOF 5
ENDMDL
MODEL 3
REMARK VINA RESULT:      -9.3      3.270      9.248
REMARK  Name = 
REMARK  7 active torsions:
REMARK  status: ('A' for Active; 'I' for Inactive)
REMARK    1  A    between atoms: C_1  and  C_2
REMARK    2  A    between atoms: C_3  and  C_4
REMARK    3  A    between atoms: C_4  and  C_5
REMARK    4  A    between atoms: C_5  and  C_6
REMARK    5  A    between atoms: C_12  and  C_13
REMARK    6  A    between atoms: C_13  and  O_15
REMARK    7  A    between atoms: C_20  and  C_21
REMARK                            x       y       z     vdW  Elec       q    Type
REMARK                         _______ _______ _______ _____ _____    ______ ____
ROOT
ATOM      1  C   UNL     1       1.882  10.035  18.098  0.00  0.00    +0.000 C 
ATOM      2  C   UNL     1       1.507   9.106  19.236  0.00  0.00    +0.000 A 
ATOM      3  C   UNL     1       0.553   9.353  20.147  0.00  0.00    +0.000 A 
ATOM      4  C   UNL     1       0.240   8.337  21.199  0.00  0.00    +0.000 A 
ATOM      5  O   UNL     1      -0.584   8.566  22.082  0.00  0.00    +0.000 OA
ATOM      6  O   UNL     1       0.919   7.108  21.160  0.00  0.00    +0.000 OA
ATOM      7  C   UNL     1       1.891   6.796  20.174  0.00  0.00    +0.000 A 
ATOM      8  C   UNL     1       2.483   5.484  20.139  0.00  0.00    +0.000 A 
ATOM      9  C   UNL     1       2.230   4.463  21.207  0.00  0.00    +0.000 C 
ATOM     10  C   UNL     1       3.322   5.264  19.013  0.00  0.00    +0.000 A 
ATOM     11  O   UNL     1       3.962   4.116  18.541  0.00  0.00    +0.000 OA
ATOM     12  C   UNL     1       4.590   4.466  17.365  0.00  0.00    +0.000 A 
ATOM     13  C   UNL     1       4.401   5.782  17.098  0.00  0.00    +0.000 A 
ATOM     14  C   UNL     1       3.630   6.288  18.136  0.00  0.00    +0.000 A 
ATOM     15  C   UNL     1       3.141   7.569  18.307  0.00  0.00    +0.000 A 
ATOM     16  C   UNL     1       2.196   7.810  19.271  0.00  0.00    +0.000 A 
ATOM     17  C   UNL     1       4.832   6.539  15.914  0.00  0.00    +0.000 C 
ATOM     18  C   UNL     1       5.549   5.696  14.883  0.00  0.00    +0.000 C 
ATOM     19  C   UNL     1       5.923   4.240  15.236  0.00  0.00    +0.000 C 
ATOM     20  C   UNL     1       5.308   3.522  16.482  0.00  0.00    +0.000 C 
ENDROOT
BRANCH   3  21
ATOM     21  C   UNL     1      -0.216  10.658  20.064  0.00  0.00    +0.000 C 
BRANCH  21  22
ATOM     22  C   UNL     1       0.165  11.840  20.935  0.00  0.00    +0.000 C 
BRANCH  22  23
ATOM     23  C   UNL     1      -0.866  12.103  22.011  0.00  0.00    +0.000 C 
ATOM     24  O   UNL     1      -0.821  11.579  23.113  0.00  0.00    +0.000 OA
ATOM     25  N   UNL     1      -1.864  12.994  21.682  0.00  0.00    +0.000 N 
ATOM     26  C   UNL     1      -2.024  13.711  20.428  0.00  0.00    +0.000 C 
ATOM     27  C   UNL     1      -2.427  15.099  20.874  0.00  0.00    +0.000 C 
ATOM     28  C   UNL     1      -3.282  14.849  22.113  0.00  0.00    +0.000 C 
ATOM     29  C   UNL     1      -2.761  13.532  22.710  0.00  0.00    +0.000 C 
BRANCH  29  30
ATOM     30  C   UNL     1      -3.937  12.597  23.033  0.00  0.00    +0.000 C 
ATOM     31  O   UNL     1      -4.927  12.485  22.321  0.00  0.00    +0.000 OA
BRANCH  30  32
ATOM     32  O   UNL     1      -3.780  11.863  24.159  0.00  0.00    +0.000 OA
ATOM     33  H   UNL     1      -3.778  10.907  23.951  0.00  0.00    +0.000 HD
ENDBRANCH  30  32
ENDBRANCH  29  30
ENDBRANCH  22  23
ENDBRANCH  21  22
ENDBRANCH   3  21
TORSDOF 5
ENDMDL
MODEL 4
REMARK VINA RESULT:      -9.2      3.705      8.737
REMARK  Name = 
REMARK  7 active torsions:
REMARK  status: ('A' for Active; 'I' for Inactive)
REMARK    1  A    between atoms: C_1  and  C_2
REMARK    2  A    between atoms: C_3  and  C_4
REMARK    3  A    between atoms: C_4  and  C_5
REMARK    4  A    between atoms: C_5  and  C_6
REMARK    5  A    between atoms: C_12  and  C_13
REMARK    6  A    between atoms: C_13  and  O_15
REMARK    7  A    between atoms: C_20  and  C_21
REMARK                            x       y       z     vdW  Elec       q    Type
REMARK                         _______ _______ _______ _____ _____    ______ ____
ROOT
ATOM      1  C   UNL     1       2.086   9.947  18.033  0.00  0.00    +0.000 C 
ATOM      2  C   UNL     1       1.677   9.027  19.167  0.00  0.00    +0.000 A 
ATOM      3  C   UNL     1       0.726   9.302  20.073  0.00  0.00    +0.000 A 
ATOM      4  C   UNL     1       0.376   8.295  21.122  0.00  0.00    +0.000 A 
ATOM      5  O   UNL     1      -0.446   8.547  22.000  0.00  0.00    +0.000 OA
ATOM      6  O   UNL     1       1.018   7.046  21.084  0.00  0.00    +0.000 OA
ATOM      7  C   UNL     1       1.986   6.706  20.103  0.00  0.00    +0.000 A 
ATOM      8  C   UNL     1       2.539   5.378  20.070  0.00  0.00    +0.000 A 
ATOM      9  C   UNL     1       2.249   4.363  21.135  0.00  0.00    +0.000 C 
ATOM     10  C   UNL     1       3.377   5.133  18.949  0.00  0.00    +0.000 A 
ATOM     11  O   UNL     1       3.985   3.968  18.478  0.00  0.00    +0.000 OA
ATOM     12  C   UNL     1       4.631   4.300  17.306  0.00  0.00    +0.000 A 
ATOM     13  C   UNL     1       4.482   5.622  17.041  0.00  0.00    +0.000 A 
ATOM     14  C   UNL     1       3.720   6.149  18.075  0.00  0.00    +0.000 A 
ATOM     15  C   UNL     1       3.269   7.444  18.245  0.00  0.00    +0.000 A 
ATOM     16  C   UNL     1       2.327   7.712  19.204  0.00  0.00    +0.000 A 
ATOM     17  C   UNL     1       4.943   6.367  15.861  0.00  0.00    +0.000 C 
ATOM     18  C   UNL     1       5.640   5.504  14.832  0.00  0.00    +0.000 C 
ATOM     19  C   UNL     1       5.968   4.037  15.185  0.00  0.00    +0.000 C 
ATOM     20  C   UNL     1       5.325   3.336  16.427  0.00  0.00    +0.000 C 
ENDROOT
BRANCH   3  21
ATOM     21  C   UNL     1      -0.003  10.630  19.987  0.00  0.00    +0.000 C 
BRANCH  21  22
ATOM     22  C   UNL     1      -0.317  11.257  18.642  0.00  0.00    +0.000 C 
BRANCH  22  23
ATOM     23  C   UNL     1      -1.740  11.769  18.577  0.00  0.00    +0.000 C 
ATOM     24  O   UNL     1      -2.129  12.730  19.223  0.00  0.00    +0.000 OA
ATOM     25  N   UNL     1      -2.582  11.093  17.721  0.00  0.00    +0.000 N 
ATOM     26  C   UNL     1      -2.251   9.960  16.873  0.00  0.00    +0.000 C 
ATOM     27  C   UNL     1      -2.962  10.280  15.577  0.00  0.00    +0.000 C 
ATOM     28  C   UNL     1      -4.242  10.977  16.027  0.00  0.00    +0.000 C 
ATOM     29  C   UNL     1      -3.896  11.643  17.369  0.00  0.00    +0.000 C 
BRANCH  29  30
ATOM     30  C   UNL     1      -4.980  11.329  18.410  0.00  0.00    +0.000 C 
ATOM     31  O   UNL     1      -5.674  10.320  18.381  0.00  0.00    +0.000 OA
BRANCH  30  32
ATOM     32  O   UNL     1      -5.089  12.242  19.403  0.00  0.00    +0.000 OA
ATOM     33  H   UNL     1      -4.589  11.954  20.194  0.00  0.00    +0.000 HD
ENDBRANCH  30  32
ENDBRANCH  29  30
ENDBRANCH  22  23
ENDBRANCH  21  22
ENDBRANCH   3  21
TORSDOF 5
ENDMDL
MODEL 5
REMARK VINA RESULT:      -9.1      2.512      3.786
REMARK  Name = 
REMARK  7 active torsions:
REMARK  status: ('A' for Active; 'I' for Inactive)
REMARK    1  A    between atoms: C_1  and  C_2
REMARK    2  A    between atoms: C_3  and  C_4
REMARK    3  A    between atoms: C_4  and  C_5
REMARK    4  A    between atoms: C_5  and  C_6
REMARK    5  A    between atoms: C_12  and  C_13
REMARK    6  A    between atoms: C_13  and  O_15
REMARK    7  A    between atoms: C_20  and  C_21
REMARK                            x       y       z     vdW  Elec       q    Type
REMARK                         _______ _______ _______ _____ _____    ______ ____
ROOT
ATOM      1  C   UNL     1       1.912  10.097  17.609  0.00  0.00    +0.000 C 
ATOM      2  C   UNL     1       1.455   9.503  18.927  0.00  0.00    +0.000 A 
ATOM      3  C   UNL     1       1.835   8.308  19.404  0.00  0.00    +0.000 A 
ATOM      4  C   UNL     1       1.352   7.846  20.742  0.00  0.00    +0.000 A 
ATOM      5  O   UNL     1       1.636   6.730  21.172  0.00  0.00    +0.000 OA
ATOM      6  O   UNL     1       0.556   8.720  21.500  0.00  0.00    +0.000 OA
ATOM      7  C   UNL     1       0.185  10.013  21.045  0.00  0.00    +0.000 A 
ATOM      8  C   UNL     1      -0.558  10.892  21.910  0.00  0.00    +0.000 A 
ATOM      9  C   UNL     1      -1.101  10.442  23.234  0.00  0.00    +0.000 C 
ATOM     10  C   UNL     1      -0.727  12.202  21.388  0.00  0.00    +0.000 A 
ATOM     11  O   UNL     1      -1.253  13.367  21.949  0.00  0.00    +0.000 OA
ATOM     12  C   UNL     1      -1.106  14.365  21.010  0.00  0.00    +0.000 A 
ATOM     13  C   UNL     1      -0.544  13.873  19.878  0.00  0.00    +0.000 A 
ATOM     14  C   UNL     1      -0.327  12.519  20.101  0.00  0.00    +0.000 A 
ATOM     15  C   UNL     1       0.253  11.585  19.265  0.00  0.00    +0.000 A 
ATOM     16  C   UNL     1       0.598  10.354  19.761  0.00  0.00    +0.000 A 
ATOM     17  C   UNL     1      -0.145  14.607  18.669  0.00  0.00    +0.000 C 
ATOM     18  C   UNL     1      -0.387  16.098  18.757  0.00  0.00    +0.000 C 
ATOM     19  C   UNL     1      -1.176  16.657  19.961  0.00  0.00    +0.000 C 
ATOM     20  C   UNL     1      -1.446  15.786  21.232  0.00  0.00    +0.000 C 
ENDROOT
BRANCH   3  21
ATOM     21  C   UNL     1       2.785   7.461  18.578  0.00  0.00    +0.000 C 
BRANCH  21  22
ATOM     22  C   UNL     1       2.393   6.065  18.132  0.00  0.00    +0.000 C 
BRANCH  22  23
ATOM     23  C   UNL     1       3.285   5.006  18.743  0.00  0.00    +0.000 C 
ATOM     24  O   UNL     1       4.504   5.064  18.704  0.00  0.00    +0.000 OA
ATOM     25  N   UNL     1       2.638   3.966  19.372  0.00  0.00    +0.000 N 
ATOM     26  C   UNL     1       1.203   3.784  19.522  0.00  0.00    +0.000 C 
ATOM     27  C   UNL     1       1.065   3.299  20.947  0.00  0.00    +0.000 C 
ATOM     28  C   UNL     1       2.308   2.442  21.163  0.00  0.00    +0.000 C 
ATOM     29  C   UNL     1       3.375   3.026  20.223  0.00  0.00    +0.000 C 
BRANCH  29  30
ATOM     30  C   UNL     1       4.053   1.898  19.429  0.00  0.00    +0.000 C 
ATOM     31  O   UNL     1       3.627   1.470  18.365  0.00  0.00    +0.000 OA
BRANCH  30  32
ATOM     32  O   UNL     1       5.198   1.431  19.980  0.00  0.00    +0.000 OA
ATOM     33  H   UNL     1       5.370   1.866  20.841  0.00  0.00    +0.000 HD
ENDBRANCH  30  32
ENDBRANCH  29  30
ENDBRANCH  22  23
ENDBRANCH  21  22
ENDBRANCH   3  21
TORSDOF 5
ENDMDL
MODEL 6
REMARK VINA RESULT:      -9.1      3.956      8.673
REMARK  Name = 
REMARK  7 active torsions:
REMARK  status: ('A' for Active; 'I' for Inactive)
REMARK    1  A    between atoms: C_1  and  C_2
REMARK    2  A    between atoms: C_3  and  C_4
REMARK    3  A    between atoms: C_4  and  C_5
REMARK    4  A    between atoms: C_5  and  C_6
REMARK    5  A    between atoms: C_12  and  C_13
REMARK    6  A    between atoms: C_13  and  O_15
REMARK    7  A    between atoms: C_20  and  C_21
REMARK                            x       y       z     vdW  Elec       q    Type
REMARK                         _______ _______ _______ _____ _____    ______ ____
ROOT
ATOM      1  C   UNL     1       2.260  10.000  17.897  0.00  0.00    +0.000 C 
ATOM      2  C   UNL     1       1.834   9.114  19.052  0.00  0.00    +0.000 A 
ATOM      3  C   UNL     1       0.900   9.433  19.962  0.00  0.00    +0.000 A 
ATOM      4  C   UNL     1       0.531   8.456  21.032  0.00  0.00    +0.000 A 
ATOM      5  O   UNL     1      -0.274   8.749  21.912  0.00  0.00    +0.000 OA
ATOM      6  O   UNL     1       1.133   7.187  21.011  0.00  0.00    +0.000 OA
ATOM      7  C   UNL     1       2.082   6.801  20.027  0.00  0.00    +0.000 A 
ATOM      8  C   UNL     1       2.593   5.456  20.013  0.00  0.00    +0.000 A 
ATOM      9  C   UNL     1       2.283   4.470  21.099  0.00  0.00    +0.000 C 
ATOM     10  C   UNL     1       3.412   5.166  18.888  0.00  0.00    +0.000 A 
ATOM     11  O   UNL     1       3.980   3.974  18.434  0.00  0.00    +0.000 OA
ATOM     12  C   UNL     1       4.624   4.266  17.250  0.00  0.00    +0.000 A 
ATOM     13  C   UNL     1       4.513   5.586  16.961  0.00  0.00    +0.000 A 
ATOM     14  C   UNL     1       3.778   6.155  17.993  0.00  0.00    +0.000 A 
ATOM     15  C   UNL     1       3.368   7.466  18.144  0.00  0.00    +0.000 A 
ATOM     16  C   UNL     1       2.444   7.780  19.107  0.00  0.00    +0.000 A 
ATOM     17  C   UNL     1       4.984   6.296  15.764  0.00  0.00    +0.000 C 
ATOM     18  C   UNL     1       5.645   5.394  14.745  0.00  0.00    +0.000 C 
ATOM     19  C   UNL     1       5.932   3.924  15.122  0.00  0.00    +0.000 C 
ATOM     20  C   UNL     1       5.280   3.265  16.381  0.00  0.00    +0.000 C 
ENDROOT
BRANCH   3  21
ATOM     21  C   UNL     1       0.212  10.781  19.858  0.00  0.00    +0.000 C 
BRANCH  21  22
ATOM     22  C   UNL     1      -1.302  10.881  19.859  0.00  0.00    +0.000 C 
BRANCH  22  23
ATOM     23  C   UNL     1      -1.900  10.399  18.555  0.00  0.00    +0.000 C 
ATOM     24  O   UNL     1      -1.420   9.485  17.904  0.00  0.00    +0.000 OA
ATOM     25  N   UNL     1      -3.045  11.046  18.145  0.00  0.00    +0.000 N 
ATOM     26  C   UNL     1      -3.741  12.122  18.830  0.00  0.00    +0.000 C 
ATOM     27  C   UNL     1      -5.198  11.748  18.669  0.00  0.00    +0.000 C 
ATOM     28  C   UNL     1      -5.258  11.106  17.287  0.00  0.00    +0.000 C 
ATOM     29  C   UNL     1      -3.862  10.507  17.052  0.00  0.00    +0.000 C 
BRANCH  29  30
ATOM     30  C   UNL     1      -3.345  10.903  15.661  0.00  0.00    +0.000 C 
ATOM     31  O   UNL     1      -3.876  10.550  14.616  0.00  0.00    +0.000 OA
BRANCH  30  32
ATOM     32  O   UNL     1      -2.264  11.717  15.673  0.00  0.00    +0.000 OA
ATOM     33  H   UNL     1      -1.495  11.278  15.255  0.00  0.00    +0.000 HD
ENDBRANCH  30  32
ENDBRANCH  29  30
ENDBRANCH  22  23
ENDBRANCH  21  22
ENDBRANCH   3  21
TORSDOF 5
ENDMDL
MODEL 7
REMARK VINA RESULT:      -9.0      3.258      5.288
REMARK  Name = 
REMARK  7 active torsions:
REMARK  status: ('A' for Active; 'I' for Inactive)
REMARK    1  A    between atoms: C_1  and  C_2
REMARK    2  A    between atoms: C_3  and  C_4
REMARK    3  A    between atoms: C_4  and  C_5
REMARK    4  A    between atoms: C_5  and  C_6
REMARK    5  A    between atoms: C_12  and  C_13
REMARK    6  A    between atoms: C_13  and  O_15
REMARK    7  A    between atoms: C_20  and  C_21
REMARK                            x       y       z     vdW  Elec       q    Type
REMARK                         _______ _______ _______ _____ _____    ______ ____
ROOT
ATOM      1  C   UNL     1       0.170   8.757  22.433  0.00  0.00    +0.000 C 
ATOM      2  C   UNL     1       0.490   9.462  21.129  0.00  0.00    +0.000 A 
ATOM      3  C   UNL     1       1.255   8.955  20.150  0.00  0.00    +0.000 A 
ATOM      4  C   UNL     1       1.464   9.727  18.886  0.00  0.00    +0.000 A 
ATOM      5  O   UNL     1       2.209   9.313  18.001  0.00  0.00    +0.000 OA
ATOM      6  O   UNL     1       0.787  10.949  18.733  0.00  0.00    +0.000 OA
ATOM      7  C   UNL     1      -0.073  11.483  19.729  0.00  0.00    +0.000 A 
ATOM      8  C   UNL     1      -0.803  12.696  19.471  0.00  0.00    +0.000 A 
ATOM      9  C   UNL     1      -0.578  13.519  18.238  0.00  0.00    +0.000 C 
ATOM     10  C   UNL     1      -1.737  13.030  20.488  0.00  0.00    +0.000 A 
ATOM     11  O   UNL     1      -2.716  14.023  20.563  0.00  0.00    +0.000 OA
ATOM     12  C   UNL     1      -3.379  13.840  21.757  0.00  0.00    +0.000 A 
ATOM     13  C   UNL     1      -2.841  12.803  22.446  0.00  0.00    +0.000 A 
ATOM     14  C   UNL     1      -1.801  12.310  21.668  0.00  0.00    +0.000 A 
ATOM     15  C   UNL     1      -0.968  11.237  21.916  0.00  0.00    +0.000 A 
ATOM     16  C   UNL     1      -0.163  10.758  20.913  0.00  0.00    +0.000 A 
ATOM     17  C   UNL     1      -3.293  12.228  23.720  0.00  0.00    +0.000 C 
ATOM     18  C   UNL     1      -4.532  12.892  24.280  0.00  0.00    +0.000 C 
ATOM     19  C   UNL     1      -5.061  14.176  23.605  0.00  0.00    +0.000 C 
ATOM     20  C   UNL     1      -4.557  14.619  22.192  0.00  0.00    +0.000 C 
ENDROOT
BRANCH   3  21
ATOM     21  C   UNL     1       1.867   7.580  20.339  0.00  0.00    +0.000 C 
BRANCH  21  22
ATOM     22  C   UNL     1       2.165   6.692  19.145  0.00  0.00    +0.000 C 
BRANCH  22  23
ATOM     23  C   UNL     1       3.135   5.584  19.495  0.00  0.00    +0.000 C 
ATOM     24  O   UNL     1       4.343   5.750  19.539  0.00  0.00    +0.000 OA
ATOM     25  N   UNL     1       2.569   4.361  19.784  0.00  0.00    +0.000 N 
ATOM     26  C   UNL     1       1.155   4.028  19.801  0.00  0.00    +0.000 C 
ATOM     27  C   UNL     1       1.020   3.161  21.033  0.00  0.00    +0.000 C 
ATOM     28  C   UNL     1       2.332   2.384  21.077  0.00  0.00    +0.000 C 
ATOM     29  C   UNL     1       3.366   3.288  20.388  0.00  0.00    +0.000 C 
BRANCH  29  30
ATOM     30  C   UNL     1       4.171   2.481  19.357  0.00  0.00    +0.000 C 
ATOM     31  O   UNL     1       3.733   1.494  18.781  0.00  0.00    +0.000 OA
BRANCH  30  32
ATOM     32  O   UNL     1       5.405   2.972  19.098  0.00  0.00    +0.000 OA
ATOM     33  H   UNL     1       5.762   3.441  19.879  0.00  0.00    +0.000 HD
ENDBRANCH  30  32
ENDBRANCH  29  30
ENDBRANCH  22  23
ENDBRANCH  21  22
ENDBRANCH   3  21
TORSDOF 5
ENDMDL
MODEL 8
REMARK VINA RESULT:      -8.9      3.118      5.125
REMARK  Name = 
REMARK  7 active torsions:
REMARK  status: ('A' for Active; 'I' for Inactive)
REMARK    1  A    between atoms: C_1  and  C_2
REMARK    2  A    between atoms: C_3  and  C_4
REMARK    3  A    between atoms: C_4  and  C_5
REMARK    4  A    between atoms: C_5  and  C_6
REMARK    5  A    between atoms: C_12  and  C_13
REMARK    6  A    between atoms: C_13  and  O_15
REMARK    7  A    between atoms: C_20  and  C_21
REMARK                            x       y       z     vdW  Elec       q    Type
REMARK                         _______ _______ _______ _____ _____    ______ ____
ROOT
ATOM      1  C   UNL     1       0.533   8.653  22.225  0.00  0.00    +0.000 C 
ATOM      2  C   UNL     1       0.745   9.347  20.894  0.00  0.00    +0.000 A 
ATOM      3  C   UNL     1       1.468   8.853  19.877  0.00  0.00    +0.000 A 
ATOM      4  C   UNL     1       1.568   9.610  18.591  0.00  0.00    +0.000 A 
ATOM      5  O   UNL     1       2.274   9.210  17.668  0.00  0.00    +0.000 OA
ATOM      6  O   UNL     1       0.833  10.801  18.461  0.00  0.00    +0.000 OA
ATOM      7  C   UNL     1       0.014  11.317  19.499  0.00  0.00    +0.000 A 
ATOM      8  C   UNL     1      -0.780  12.495  19.267  0.00  0.00    +0.000 A 
ATOM      9  C   UNL     1      -0.665  13.304  18.010  0.00  0.00    +0.000 C 
ATOM     10  C   UNL     1      -1.664  12.810  20.334  0.00  0.00    +0.000 A 
ATOM     11  O   UNL     1      -2.676  13.764  20.454  0.00  0.00    +0.000 OA
ATOM     12  C   UNL     1      -3.257  13.576  21.690  0.00  0.00    +0.000 A 
ATOM     13  C   UNL     1      -2.635  12.575  22.360  0.00  0.00    +0.000 A 
ATOM     14  C   UNL     1      -1.626  12.110  21.527  0.00  0.00    +0.000 A 
ATOM     15  C   UNL     1      -0.735  11.075  21.740  0.00  0.00    +0.000 A 
ATOM     16  C   UNL     1       0.026  10.612  20.698  0.00  0.00    +0.000 A 
ATOM     17  C   UNL     1      -2.985  12.005  23.669  0.00  0.00    +0.000 C 
ATOM     18  C   UNL     1      -4.214  12.629  24.293  0.00  0.00    +0.000 C 
ATOM     19  C   UNL     1      -4.836  13.878  23.632  0.00  0.00    +0.000 C 
ATOM     20  C   UNL     1      -4.438  14.315  22.184  0.00  0.00    +0.000 C 
ENDROOT
BRANCH   3  21
ATOM     21  C   UNL     1       2.147   7.507  20.049  0.00  0.00    +0.000 C 
BRANCH  21  22
ATOM     22  C   UNL     1       1.876   6.372  19.081  0.00  0.00    +0.000 C 
BRANCH  22  23
ATOM     23  C   UNL     1       1.975   5.020  19.755  0.00  0.00    +0.000 C 
ATOM     24  O   UNL     1       1.445   4.774  20.827  0.00  0.00    +0.000 OA
ATOM     25  N   UNL     1       2.690   4.061  19.073  0.00  0.00    +0.000 N 
ATOM     26  C   UNL     1       3.344   4.202  17.782  0.00  0.00    +0.000 C 
ATOM     27  C   UNL     1       3.019   2.899  17.087  0.00  0.00    +0.000 C 
ATOM     28  C   UNL     1       3.027   1.872  18.215  0.00  0.00    +0.000 C 
ATOM     29  C   UNL     1       2.639   2.652  19.481  0.00  0.00    +0.000 C 
BRANCH  29  30
ATOM     30  C   UNL     1       3.611   2.321  20.624  0.00  0.00    +0.000 C 
ATOM     31  O   UNL     1       4.789   2.038  20.449  0.00  0.00    +0.000 OA
BRANCH  30  32
ATOM     32  O   UNL     1       3.073   2.404  21.863  0.00  0.00    +0.000 OA
ATOM     33  H   UNL     1       3.774   2.404  22.546  0.00  0.00    +0.000 HD
ENDBRANCH  30  32
ENDBRANCH  29  30
ENDBRANCH  22  23
ENDBRANCH  21  22
ENDBRANCH   3  21
TORSDOF 5
ENDMDL
MODEL 9
REMARK VINA RESULT:      -8.9      2.831      4.247
REMARK  Name = 
REMARK  7 active torsions:
REMARK  status: ('A' for Active; 'I' for Inactive)
REMARK    1  A    between atoms: C_1  and  C_2
REMARK    2  A    between atoms: C_3  and  C_4
REMARK    3  A    between atoms: C_4  and  C_5
REMARK    4  A    between atoms: C_5  and  C_6
REMARK    5  A    between atoms: C_12  and  C_13
REMARK    6  A    between atoms: C_13  and  O_15
REMARK    7  A    between atoms: C_20  and  C_21
REMARK                            x       y       z     vdW  Elec       q    Type
REMARK                         _______ _______ _______ _____ _____    ______ ____
ROOT
ATOM      1  C   UNL     1       0.407   8.460  21.853  0.00  0.00    +0.000 C 
ATOM      2  C   UNL     1       0.697   9.274  20.607  0.00  0.00    +0.000 A 
ATOM      3  C   UNL     1       1.397   8.836  19.549  0.00  0.00    +0.000 A 
ATOM      4  C   UNL     1       1.580   9.717  18.354  0.00  0.00    +0.000 A 
ATOM      5  O   UNL     1       2.269   9.363  17.400  0.00  0.00    +0.000 OA
ATOM      6  O   UNL     1       0.946  10.970  18.348  0.00  0.00    +0.000 OA
ATOM      7  C   UNL     1       0.152  11.436  19.429  0.00  0.00    +0.000 A 
ATOM      8  C   UNL     1      -0.542  12.693  19.319  0.00  0.00    +0.000 A 
ATOM      9  C   UNL     1      -0.340  13.621  18.159  0.00  0.00    +0.000 C 
ATOM     10  C   UNL     1      -1.417  12.961  20.407  0.00  0.00    +0.000 A 
ATOM     11  O   UNL     1      -2.352  13.976  20.620  0.00  0.00    +0.000 OA
ATOM     12  C   UNL     1      -2.968  13.704  21.823  0.00  0.00    +0.000 A 
ATOM     13  C   UNL     1      -2.440  12.589  22.385  0.00  0.00    +0.000 A 
ATOM     14  C   UNL     1      -1.456  12.136  21.516  0.00  0.00    +0.000 A 
ATOM     15  C   UNL     1      -0.655  11.016  21.623  0.00  0.00    +0.000 A 
ATOM     16  C   UNL     1       0.085  10.607  20.544  0.00  0.00    +0.000 A 
ATOM     17  C   UNL     1      -2.858  11.911  23.621  0.00  0.00    +0.000 C 
ATOM     18  C   UNL     1      -4.044  12.561  24.298  0.00  0.00    +0.000 C 
ATOM     19  C   UNL     1      -4.553  13.921  23.772  0.00  0.00    +0.000 C 
ATOM     20  C   UNL     1      -4.095  14.478  22.384  0.00  0.00    +0.000 C 
ENDROOT
BRANCH   3  21
ATOM     21  C   UNL     1       1.963   7.429  19.580  0.00  0.00    +0.000 C 
BRANCH  21  22
ATOM     22  C   UNL     1       2.689   6.857  18.377  0.00  0.00    +0.000 C 
BRANCH  22  23
ATOM     23  C   UNL     1       3.930   6.090  18.779  0.00  0.00    +0.000 C 
ATOM     24  O   UNL     1       4.028   5.497  19.842  0.00  0.00    +0.000 OA
ATOM     25  N   UNL     1       4.955   6.081  17.858  0.00  0.00    +0.000 N 
ATOM     26  C   UNL     1       4.966   6.713  16.549  0.00  0.00    +0.000 C 
ATOM     27  C   UNL     1       5.623   5.672  15.670  0.00  0.00    +0.000 C 
ATOM     28  C   UNL     1       6.657   5.023  16.585  0.00  0.00    +0.000 C 
ATOM     29  C   UNL     1       6.093   5.167  18.007  0.00  0.00    +0.000 C 
BRANCH  29  30
ATOM     30  C   UNL     1       7.177   5.705  18.953  0.00  0.00    +0.000 C 
ATOM     31  O   UNL     1       7.365   5.272  20.083  0.00  0.00    +0.000 OA
BRANCH  30  32
ATOM     32  O   UNL     1       7.950   6.682  18.425  0.00  0.00    +0.000 OA
ATOM     33  H   UNL     1       8.664   6.933  19.047  0.00  0.00    +0.000 HD
ENDBRANCH  30  32
ENDBRANCH  29  30
ENDBRANCH  22  23
ENDBRANCH  21  22
ENDBRANCH   3  21
TORSDOF 5
ENDMDL
