MODEL 1
REMARK VINA RESULT:      -8.0      0.000      0.000
REMARK  Name = 
REMARK  5 active torsions:
REMARK  status: ('A' for Active; 'I' for Inactive)
REMARK    1  A    between atoms: C_1  and  O_2
REMARK    2  A    between atoms: O_2  and  C_3
REMARK    3  A    between atoms: C_3  and  C_4
REMARK    4  A    between atoms: C_10  and  C_12
REMARK    5  A    between atoms: C_26  and  C_27
REMARK                            x       y       z     vdW  Elec       q    Type
REMARK                         _______ _______ _______ _____ _____    ______ ____
ROOT
ATOM      1  C   UNL     1       1.113   8.974  19.897  0.00  0.00    +0.000 A 
ATOM      2  C   UNL     1       1.070   7.973  20.887  0.00  0.00    +0.000 A 
ATOM      3  N   UNL     1       1.784   6.890  20.581  0.00  0.00    +0.000 NA
ATOM      4  N   UNL     1       2.332   7.187  19.368  0.00  0.00    +0.000 N 
ATOM      5  C   UNL     1       3.172   6.245  18.744  0.00  0.00    +0.000 A 
ATOM      6  N   UNL     1       3.258   6.085  17.458  0.00  0.00    +0.000 NA
ATOM      7  N   UNL     1       4.249   5.233  17.109  0.00  0.00    +0.000 N 
ATOM      8  C   UNL     1       4.461   4.673  15.880  0.00  0.00    +0.000 A 
ATOM      9  C   UNL     1       5.670   4.006  15.919  0.00  0.00    +0.000 A 
ATOM     10  C   UNL     1       6.200   4.163  17.224  0.00  0.00    +0.000 A 
ATOM     11  C   UNL     1       5.252   4.846  17.951  0.00  0.00    +0.000 A 
ATOM     12  C   UNL     1       5.173   5.234  19.320  0.00  0.00    +0.000 A 
ATOM     13  O   UNL     1       6.129   5.341  20.075  0.00  0.00    +0.000 OA
ATOM     14  N   UNL     1       3.896   5.565  19.694  0.00  0.00    +0.000 N 
ATOM     15  C   UNL     1       2.007   8.466  18.959  0.00  0.00    +0.000 A 
ATOM     16  C   UNL     1       2.646   9.154  17.801  0.00  0.00    +0.000 C 
ATOM     17  H   UNL     1       3.398   4.701  19.880  0.00  0.00    +0.000 HD
ENDROOT
BRANCH   1  22
ATOM     18  C   UNL     1      -3.006  10.986  17.706  0.00  0.00    +0.000 C 
ATOM     19  C   UNL     1      -2.428  11.923  18.793  0.00  0.00    +0.000 C 
ATOM     20  C   UNL     1      -0.905  12.003  18.785  0.00  0.00    +0.000 C 
ATOM     21  N   UNL     1      -0.325  10.662  18.807  0.00  0.00    +0.000 N 
ATOM     22  C   UNL     1       0.529  10.313  19.848  0.00  0.00    +0.000 C 
ATOM     23  O   UNL     1       0.809  11.125  20.731  0.00  0.00    +0.000 OA
ATOM     24  C   UNL     1      -0.743   9.847  17.663  0.00  0.00    +0.000 C 
ATOM     25  C   UNL     1      -2.254   9.631  17.737  0.00  0.00    +0.000 C 
BRANCH  18  26
ATOM     26  C   UNL     1      -4.500  10.725  17.856  0.00  0.00    +0.000 C 
ATOM     27  C   UNL     1      -5.359  11.395  18.904  0.00  0.00    +0.000 C 
ATOM     28  C   UNL     1      -5.551  11.743  17.454  0.00  0.00    +0.000 C 
ENDBRANCH  18  26
BRANCH  18  30
ATOM     29  C   UNL     1      -3.042  10.615  15.289  0.00  0.00    +0.000 C 
ATOM     30  O   UNL     1      -2.751  11.481  16.373  0.00  0.00    +0.000 OA
ENDBRANCH  18  30
ENDBRANCH   1  22
TORSDOF 3
ENDMDL
MODEL 2
REMARK VINA RESULT:      -7.9      3.755      9.267
REMARK  Name = 
REMARK  5 active torsions:
REMARK  status: ('A' for Active; 'I' for Inactive)
REMARK    1  A    between atoms: C_1  and  O_2
REMARK    2  A    between atoms: O_2  and  C_3
REMARK    3  A    between atoms: C_3  and  C_4
REMARK    4  A    between atoms: C_10  and  C_12
REMARK    5  A    between atoms: C_26  and  C_27
REMARK                            x       y       z     vdW  Elec       q    Type
REMARK                         _______ _______ _______ _____ _____    ______ ____
ROOT
ATOM      1  C   UNL     1       0.467   9.369  20.672  0.00  0.00    +0.000 A 
ATOM      2  C   UNL     1      -0.184   8.655  21.697  0.00  0.00    +0.000 A 
ATOM      3  N   UNL     1      -0.786   9.438  22.592  0.00  0.00    +0.000 NA
ATOM      4  N   UNL     1      -0.548  10.702  22.139  0.00  0.00    +0.000 N 
ATOM      5  C   UNL     1      -1.063  11.798  22.857  0.00  0.00    +0.000 A 
ATOM      6  N   UNL     1      -0.475  12.952  22.945  0.00  0.00    +0.000 NA
ATOM      7  N   UNL     1      -1.247  13.880  23.554  0.00  0.00    +0.000 N 
ATOM      8  C   UNL     1      -0.858  15.109  24.009  0.00  0.00    +0.000 A 
ATOM      9  C   UNL     1      -1.989  15.795  24.406  0.00  0.00    +0.000 A 
ATOM     10  C   UNL     1      -3.100  14.942  24.192  0.00  0.00    +0.000 A 
ATOM     11  C   UNL     1      -2.591  13.740  23.753  0.00  0.00    +0.000 A 
ATOM     12  C   UNL     1      -3.194  12.487  23.444  0.00  0.00    +0.000 A 
ATOM     13  O   UNL     1      -4.374  12.325  23.166  0.00  0.00    +0.000 OA
ATOM     14  N   UNL     1      -2.279  11.466  23.405  0.00  0.00    +0.000 N 
ATOM     15  C   UNL     1       0.143  10.695  20.943  0.00  0.00    +0.000 A 
ATOM     16  C   UNL     1       0.339  11.902  20.091  0.00  0.00    +0.000 C 
ATOM     17  H   UNL     1      -2.101  11.178  24.361  0.00  0.00    +0.000 HD
ENDROOT
BRANCH   1  22
ATOM     18  C   UNL     1       2.529   4.956  19.227  0.00  0.00    +0.000 C 
ATOM     19  C   UNL     1       2.371   5.926  18.032  0.00  0.00    +0.000 C 
ATOM     20  C   UNL     1       2.736   7.369  18.363  0.00  0.00    +0.000 C 
ATOM     21  N   UNL     1       2.031   7.810  19.564  0.00  0.00    +0.000 N 
ATOM     22  C   UNL     1       1.191   8.916  19.486  0.00  0.00    +0.000 C 
ATOM     23  O   UNL     1       1.055   9.529  18.427  0.00  0.00    +0.000 OA
ATOM     24  C   UNL     1       2.338   6.984  20.734  0.00  0.00    +0.000 C 
ATOM     25  C   UNL     1       1.843   5.561  20.479  0.00  0.00    +0.000 C 
BRANCH  18  26
ATOM     26  C   UNL     1       1.951   3.569  18.970  0.00  0.00    +0.000 C 
ATOM     27  C   UNL     1       1.914   2.478  20.016  0.00  0.00    +0.000 C 
ATOM     28  C   UNL     1       0.630   3.113  19.562  0.00  0.00    +0.000 C 
ENDBRANCH  18  26
BRANCH  18  30
ATOM     29  C   UNL     1       4.820   4.297  18.681  0.00  0.00    +0.000 C 
ATOM     30  O   UNL     1       3.907   4.818  19.634  0.00  0.00    +0.000 OA
ENDBRANCH  18  30
ENDBRANCH   1  22
TORSDOF 3
ENDMDL
MODEL 3
REMARK VINA RESULT:      -7.8      3.264      9.107
REMARK  Name = 
REMARK  5 active torsions:
REMARK  status: ('A' for Active; 'I' for Inactive)
REMARK    1  A    between atoms: C_1  and  O_2
REMARK    2  A    between atoms: O_2  and  C_3
REMARK    3  A    between atoms: C_3  and  C_4
REMARK    4  A    between atoms: C_10  and  C_12
REMARK    5  A    between atoms: C_26  and  C_27
REMARK                            x       y       z     vdW  Elec       q    Type
REMARK                         _______ _______ _______ _____ _____    ______ ____
ROOT
ATOM      1  C   UNL     1       1.858   7.741  19.147  0.00  0.00    +0.000 A 
ATOM      2  C   UNL     1       1.823   8.577  18.012  0.00  0.00    +0.000 A 
ATOM      3  N   UNL     1       1.349   9.797  18.265  0.00  0.00    +0.000 NA
ATOM      4  N   UNL     1       1.083   9.779  19.601  0.00  0.00    +0.000 N 
ATOM      5  C   UNL     1       0.569  10.937  20.216  0.00  0.00    +0.000 A 
ATOM      6  N   UNL     1      -0.258  10.924  21.217  0.00  0.00    +0.000 NA
ATOM      7  N   UNL     1      -0.475  12.159  21.724  0.00  0.00    +0.000 N 
ATOM      8  C   UNL     1      -1.446  12.529  22.612  0.00  0.00    +0.000 A 
ATOM      9  C   UNL     1      -1.203  13.835  22.990  0.00  0.00    +0.000 A 
ATOM     10  C   UNL     1      -0.048  14.271  22.294  0.00  0.00    +0.000 A 
ATOM     11  C   UNL     1       0.315  13.241  21.457  0.00  0.00    +0.000 A 
ATOM     12  C   UNL     1       1.334  13.107  20.470  0.00  0.00    +0.000 A 
ATOM     13  O   UNL     1       2.349  13.788  20.412  0.00  0.00    +0.000 OA
ATOM     14  N   UNL     1       1.101  12.056  19.621  0.00  0.00    +0.000 N 
ATOM     15  C   UNL     1       1.447   8.579  20.180  0.00  0.00    +0.000 A 
ATOM     16  C   UNL     1       1.499   8.349  21.652  0.00  0.00    +0.000 C 
ATOM     17  H   UNL     1       0.430  12.367  18.927  0.00  0.00    +0.000 HD
ENDROOT
BRANCH   1  22
ATOM     18  C   UNL     1       6.064   5.241  17.780  0.00  0.00    +0.000 C 
ATOM     19  C   UNL     1       5.280   4.476  18.874  0.00  0.00    +0.000 C 
ATOM     20  C   UNL     1       3.770   4.487  18.664  0.00  0.00    +0.000 C 
ATOM     21  N   UNL     1       3.295   5.853  18.459  0.00  0.00    +0.000 N 
ATOM     22  C   UNL     1       2.341   6.374  19.327  0.00  0.00    +0.000 C 
ATOM     23  O   UNL     1       1.889   5.692  20.247  0.00  0.00    +0.000 OA
ATOM     24  C   UNL     1       3.918   6.499  17.300  0.00  0.00    +0.000 C 
ATOM     25  C   UNL     1       5.418   6.632  17.558  0.00  0.00    +0.000 C 
BRANCH  18  26
ATOM     26  C   UNL     1       7.541   5.429  18.104  0.00  0.00    +0.000 C 
ATOM     27  C   UNL     1       8.136   6.752  18.530  0.00  0.00    +0.000 C 
ATOM     28  C   UNL     1       8.046   5.626  19.521  0.00  0.00    +0.000 C 
ENDBRANCH  18  26
BRANCH  18  30
ATOM     29  C   UNL     1       6.990   4.833  15.553  0.00  0.00    +0.000 C 
ATOM     30  O   UNL     1       5.948   4.606  16.488  0.00  0.00    +0.000 OA
ENDBRANCH  18  30
ENDBRANCH   1  22
TORSDOF 3
ENDMDL
MODEL 4
REMARK VINA RESULT:      -7.7      2.680      9.180
REMARK  Name = 
REMARK  5 active torsions:
REMARK  status: ('A' for Active; 'I' for Inactive)
REMARK    1  A    between atoms: C_1  and  O_2
REMARK    2  A    between atoms: O_2  and  C_3
REMARK    3  A    between atoms: C_3  and  C_4
REMARK    4  A    between atoms: C_10  and  C_12
REMARK    5  A    between atoms: C_26  and  C_27
REMARK                            x       y       z     vdW  Elec       q    Type
REMARK                         _______ _______ _______ _____ _____    ______ ____
ROOT
ATOM      1  C   UNL     1       1.890   8.156  18.935  0.00  0.00    +0.000 A 
ATOM      2  C   UNL     1       2.089   8.790  17.692  0.00  0.00    +0.000 A 
ATOM      3  N   UNL     1       1.506   9.986  17.605  0.00  0.00    +0.000 NA
ATOM      4  N   UNL     1       0.926  10.161  18.826  0.00  0.00    +0.000 N 
ATOM      5  C   UNL     1       0.220  11.350  19.088  0.00  0.00    +0.000 A 
ATOM      6  N   UNL     1      -0.824  11.424  19.857  0.00  0.00    +0.000 NA
ATOM      7  N   UNL     1      -1.219  12.700  20.071  0.00  0.00    +0.000 N 
ATOM      8  C   UNL     1      -2.394  13.118  20.631  0.00  0.00    +0.000 A 
ATOM      9  C   UNL     1      -2.316  14.485  20.814  0.00  0.00    +0.000 A 
ATOM     10  C   UNL     1      -1.050  14.906  20.336  0.00  0.00    +0.000 A 
ATOM     11  C   UNL     1      -0.443  13.791  19.803  0.00  0.00    +0.000 A 
ATOM     12  C   UNL     1       0.790  13.594  19.118  0.00  0.00    +0.000 A 
ATOM     13  O   UNL     1       1.752  14.346  19.173  0.00  0.00    +0.000 OA
ATOM     14  N   UNL     1       0.823  12.402  18.440  0.00  0.00    +0.000 N 
ATOM     15  C   UNL     1       1.199   9.108  19.678  0.00  0.00    +0.000 A 
ATOM     16  C   UNL     1       0.904   9.126  21.139  0.00  0.00    +0.000 C 
ATOM     17  H   UNL     1       0.325  12.533  17.566  0.00  0.00    +0.000 HD
ENDROOT
BRANCH   1  22
ATOM     18  C   UNL     1       5.972   5.269  18.034  0.00  0.00    +0.000 C 
ATOM     19  C   UNL     1       5.275   4.868  19.356  0.00  0.00    +0.000 C 
ATOM     20  C   UNL     1       3.753   4.855  19.266  0.00  0.00    +0.000 C 
ATOM     21  N   UNL     1       3.265   6.116  18.713  0.00  0.00    +0.000 N 
ATOM     22  C   UNL     1       2.384   6.886  19.463  0.00  0.00    +0.000 C 
ATOM     23  O   UNL     1       2.003   6.507  20.571  0.00  0.00    +0.000 OA
ATOM     24  C   UNL     1       3.797   6.388  17.375  0.00  0.00    +0.000 C 
ATOM     25  C   UNL     1       5.313   6.554  17.470  0.00  0.00    +0.000 C 
BRANCH  18  26
ATOM     26  C   UNL     1       7.470   5.506  18.180  0.00  0.00    +0.000 C 
ATOM     27  C   UNL     1       8.069   6.857  18.503  0.00  0.00    +0.000 C 
ATOM     28  C   UNL     1       8.130   5.755  19.523  0.00  0.00    +0.000 C 
ENDBRANCH  18  26
BRANCH  18  30
ATOM     29  C   UNL     1       6.636   4.318  15.880  0.00  0.00    +0.000 C 
ATOM     30  O   UNL     1       5.754   4.294  16.991  0.00  0.00    +0.000 OA
ENDBRANCH  18  30
ENDBRANCH   1  22
TORSDOF 3
ENDMDL
MODEL 5
REMARK VINA RESULT:      -7.7      2.180      2.995
REMARK  Name = 
REMARK  5 active torsions:
REMARK  status: ('A' for Active; 'I' for Inactive)
REMARK    1  A    between atoms: C_1  and  O_2
REMARK    2  A    between atoms: O_2  and  C_3
REMARK    3  A    between atoms: C_3  and  C_4
REMARK    4  A    between atoms: C_10  and  C_12
REMARK    5  A    between atoms: C_26  and  C_27
REMARK                            x       y       z     vdW  Elec       q    Type
REMARK                         _______ _______ _______ _____ _____    ______ ____
ROOT
ATOM      1  C   UNL     1       1.075   9.879  18.987  0.00  0.00    +0.000 A 
ATOM      2  C   UNL     1       2.037   9.592  17.998  0.00  0.00    +0.000 A 
ATOM      3  N   UNL     1       2.517   8.350  18.065  0.00  0.00    +0.000 NA
ATOM      4  N   UNL     1       1.842   7.791  19.109  0.00  0.00    +0.000 N 
ATOM      5  C   UNL     1       2.101   6.452  19.458  0.00  0.00    +0.000 A 
ATOM      6  N   UNL     1       2.051   5.992  20.671  0.00  0.00    +0.000 NA
ATOM      7  N   UNL     1       2.183   4.646  20.719  0.00  0.00    +0.000 N 
ATOM      8  C   UNL     1       2.402   3.877  21.827  0.00  0.00    +0.000 A 
ATOM      9  C   UNL     1       2.303   2.551  21.453  0.00  0.00    +0.000 A 
ATOM     10  C   UNL     1       2.023   2.522  20.064  0.00  0.00    +0.000 A 
ATOM     11  C   UNL     1       2.048   3.829  19.633  0.00  0.00    +0.000 A 
ATOM     12  C   UNL     1       1.915   4.429  18.347  0.00  0.00    +0.000 A 
ATOM     13  O   UNL     1       1.385   3.902  17.379  0.00  0.00    +0.000 OA
ATOM     14  N   UNL     1       2.374   5.721  18.326  0.00  0.00    +0.000 N 
ATOM     15  C   UNL     1       0.911   8.662  19.642  0.00  0.00    +0.000 A 
ATOM     16  C   UNL     1      -0.133   8.259  20.628  0.00  0.00    +0.000 C 
ATOM     17  H   UNL     1       3.384   5.685  18.237  0.00  0.00    +0.000 HD
ENDROOT
BRANCH   1  22
ATOM     18  C   UNL     1      -3.761  11.176  18.125  0.00  0.00    +0.000 C 
ATOM     19  C   UNL     1      -3.090  12.132  19.139  0.00  0.00    +0.000 C 
ATOM     20  C   UNL     1      -1.661  12.514  18.767  0.00  0.00    +0.000 C 
ATOM     21  N   UNL     1      -0.871  11.317  18.490  0.00  0.00    +0.000 N 
ATOM     22  C   UNL     1       0.274  11.074  19.241  0.00  0.00    +0.000 C 
ATOM     23  O   UNL     1       0.631  11.863  20.117  0.00  0.00    +0.000 OA
ATOM     24  C   UNL     1      -1.426  10.516  17.395  0.00  0.00    +0.000 C 
ATOM     25  C   UNL     1      -2.802   9.999  17.811  0.00  0.00    +0.000 C 
BRANCH  18  26
ATOM     26  C   UNL     1      -5.093  10.612  18.604  0.00  0.00    +0.000 C 
ATOM     27  C   UNL     1      -6.002  11.338  19.570  0.00  0.00    +0.000 C 
ATOM     28  C   UNL     1      -6.427  11.165  18.140  0.00  0.00    +0.000 C 
ENDBRANCH  18  26
BRANCH  18  30
ATOM     29  C   UNL     1      -3.987  10.957  15.699  0.00  0.00    +0.000 C 
ATOM     30  O   UNL     1      -3.956  11.802  16.838  0.00  0.00    +0.000 OA
ENDBRANCH  18  30
ENDBRANCH   1  22
TORSDOF 3
ENDMDL
MODEL 6
REMARK VINA RESULT:      -7.6      2.915      9.041
REMARK  Name = 
REMARK  5 active torsions:
REMARK  status: ('A' for Active; 'I' for Inactive)
REMARK    1  A    between atoms: C_1  and  O_2
REMARK    2  A    between atoms: O_2  and  C_3
REMARK    3  A    between atoms: C_3  and  C_4
REMARK    4  A    between atoms: C_10  and  C_12
REMARK    5  A    between atoms: C_26  and  C_27
REMARK                            x       y       z     vdW  Elec       q    Type
REMARK                         _______ _______ _______ _____ _____    ______ ____
ROOT
ATOM      1  C   UNL     1       0.891  10.264  19.535  0.00  0.00    +0.000 A 
ATOM      2  C   UNL     1       1.404  10.959  20.649  0.00  0.00    +0.000 A 
ATOM      3  N   UNL     1       0.504  11.736  21.253  0.00  0.00    +0.000 NA
ATOM      4  N   UNL     1      -0.638  11.537  20.536  0.00  0.00    +0.000 N 
ATOM      5  C   UNL     1      -1.814  12.212  20.916  0.00  0.00    +0.000 A 
ATOM      6  N   UNL     1      -2.725  12.614  20.083  0.00  0.00    +0.000 NA
ATOM      7  N   UNL     1      -3.825  13.090  20.710  0.00  0.00    +0.000 N 
ATOM      8  C   UNL     1      -4.856  13.792  20.150  0.00  0.00    +0.000 A 
ATOM      9  C   UNL     1      -5.844  13.932  21.105  0.00  0.00    +0.000 A 
ATOM     10  C   UNL     1      -5.385  13.300  22.288  0.00  0.00    +0.000 A 
ATOM     11  C   UNL     1      -4.101  12.875  22.030  0.00  0.00    +0.000 A 
ATOM     12  C   UNL     1      -3.108  12.247  22.836  0.00  0.00    +0.000 A 
ATOM     13  O   UNL     1      -3.330  11.624  23.864  0.00  0.00    +0.000 OA
ATOM     14  N   UNL     1      -1.856  12.341  22.284  0.00  0.00    +0.000 N 
ATOM     15  C   UNL     1      -0.460  10.600  19.538  0.00  0.00    +0.000 A 
ATOM     16  C   UNL     1      -1.577  10.003  18.751  0.00  0.00    +0.000 C 
ATOM     17  H   UNL     1      -1.494  13.262  22.504  0.00  0.00    +0.000 HD
ENDROOT
BRANCH   1  22
ATOM     18  C   UNL     1       1.848   5.282  19.808  0.00  0.00    +0.000 C 
ATOM     19  C   UNL     1       1.950   5.800  18.353  0.00  0.00    +0.000 C 
ATOM     20  C   UNL     1       2.648   7.151  18.233  0.00  0.00    +0.000 C 
ATOM     21  N   UNL     1       2.049   8.117  19.151  0.00  0.00    +0.000 N 
ATOM     22  C   UNL     1       1.504   9.288  18.637  0.00  0.00    +0.000 C 
ATOM     23  O   UNL     1       1.538   9.521  17.428  0.00  0.00    +0.000 OA
ATOM     24  C   UNL     1       2.128   7.689  20.550  0.00  0.00    +0.000 C 
ATOM     25  C   UNL     1       1.307   6.412  20.722  0.00  0.00    +0.000 C 
BRANCH  18  26
ATOM     26  C   UNL     1       0.957   4.056  19.959  0.00  0.00    +0.000 C 
ATOM     27  C   UNL     1       1.029   2.858  19.039  0.00  0.00    +0.000 C 
ATOM     28  C   UNL     1       1.479   2.725  20.467  0.00  0.00    +0.000 C 
ENDBRANCH  18  26
BRANCH  18  30
ATOM     29  C   UNL     1       4.195   4.688  19.464  0.00  0.00    +0.000 C 
ATOM     30  O   UNL     1       3.145   4.988  20.370  0.00  0.00    +0.000 OA
ENDBRANCH  18  30
ENDBRANCH   1  22
TORSDOF 3
ENDMDL
MODEL 7
REMARK VINA RESULT:      -7.2      3.501      5.441
REMARK  Name = 
REMARK  5 active torsions:
REMARK  status: ('A' for Active; 'I' for Inactive)
REMARK    1  A    between atoms: C_1  and  O_2
REMARK    2  A    between atoms: O_2  and  C_3
REMARK    3  A    between atoms: C_3  and  C_4
REMARK    4  A    between atoms: C_10  and  C_12
REMARK    5  A    between atoms: C_26  and  C_27
REMARK                            x       y       z     vdW  Elec       q    Type
REMARK                         _______ _______ _______ _____ _____    ______ ____
ROOT
ATOM      1  C   UNL     1       1.080  10.370  18.932  0.00  0.00    +0.000 A 
ATOM      2  C   UNL     1       1.999  10.076  17.904  0.00  0.00    +0.000 A 
ATOM      3  N   UNL     1       2.460   8.826  17.944  0.00  0.00    +0.000 NA
ATOM      4  N   UNL     1       1.815   8.269  19.008  0.00  0.00    +0.000 N 
ATOM      5  C   UNL     1       2.065   6.922  19.335  0.00  0.00    +0.000 A 
ATOM      6  N   UNL     1       2.052   6.452  20.546  0.00  0.00    +0.000 NA
ATOM      7  N   UNL     1       2.163   5.105  20.578  0.00  0.00    +0.000 N 
ATOM      8  C   UNL     1       2.411   4.322  21.671  0.00  0.00    +0.000 A 
ATOM      9  C   UNL     1       2.275   3.001  21.290  0.00  0.00    +0.000 A 
ATOM     10  C   UNL     1       1.943   2.989  19.912  0.00  0.00    +0.000 A 
ATOM     11  C   UNL     1       1.974   4.300  19.491  0.00  0.00    +0.000 A 
ATOM     12  C   UNL     1       1.803   4.912  18.216  0.00  0.00    +0.000 A 
ATOM     13  O   UNL     1       1.229   4.403  17.264  0.00  0.00    +0.000 OA
ATOM     14  N   UNL     1       2.283   6.197  18.188  0.00  0.00    +0.000 N 
ATOM     15  C   UNL     1       0.920   9.150  19.583  0.00  0.00    +0.000 A 
ATOM     16  C   UNL     1      -0.093   8.756  20.603  0.00  0.00    +0.000 C 
ATOM     17  H   UNL     1       3.288   6.145  18.061  0.00  0.00    +0.000 HD
ENDROOT
BRANCH   1  22
ATOM     18  C   UNL     1       2.263  15.244  19.737  0.00  0.00    +0.000 C 
ATOM     19  C   UNL     1       0.755  15.069  19.439  0.00  0.00    +0.000 C 
ATOM     20  C   UNL     1       0.133  13.857  20.124  0.00  0.00    +0.000 C 
ATOM     21  N   UNL     1       0.920  12.658  19.849  0.00  0.00    +0.000 N 
ATOM     22  C   UNL     1       0.309  11.576  19.225  0.00  0.00    +0.000 C 
ATOM     23  O   UNL     1      -0.884  11.617  18.921  0.00  0.00    +0.000 OA
ATOM     24  C   UNL     1       2.307  12.776  20.308  0.00  0.00    +0.000 C 
ATOM     25  C   UNL     1       2.993  13.893  19.523  0.00  0.00    +0.000 C 
BRANCH  18  26
ATOM     26  C   UNL     1       2.936  16.309  18.880  0.00  0.00    +0.000 C 
ATOM     27  C   UNL     1       3.344  16.082  17.441  0.00  0.00    +0.000 C 
ATOM     28  C   UNL     1       2.215  17.024  17.752  0.00  0.00    +0.000 C 
ENDBRANCH  18  26
BRANCH  18  30
ATOM     29  C   UNL     1       2.004  16.769  21.632  0.00  0.00    +0.000 C 
ATOM     30  O   UNL     1       2.508  15.542  21.128  0.00  0.00    +0.000 OA
ENDBRANCH  18  30
ENDBRANCH   1  22
TORSDOF 3
ENDMDL
MODEL 8
REMARK VINA RESULT:      -7.1      3.292      8.948
REMARK  Name = 
REMARK  5 active torsions:
REMARK  status: ('A' for Active; 'I' for Inactive)
REMARK    1  A    between atoms: C_1  and  O_2
REMARK    2  A    between atoms: O_2  and  C_3
REMARK    3  A    between atoms: C_3  and  C_4
REMARK    4  A    between atoms: C_10  and  C_12
REMARK    5  A    between atoms: C_26  and  C_27
REMARK                            x       y       z     vdW  Elec       q    Type
REMARK                         _______ _______ _______ _____ _____    ______ ____
ROOT
ATOM      1  C   UNL     1       1.195   8.886  20.031  0.00  0.00    +0.000 A 
ATOM      2  C   UNL     1       0.631   8.395  21.226  0.00  0.00    +0.000 A 
ATOM      3  N   UNL     1       0.137   9.351  22.012  0.00  0.00    +0.000 NA
ATOM      4  N   UNL     1       0.357  10.501  21.314  0.00  0.00    +0.000 N 
ATOM      5  C   UNL     1      -0.061  11.729  21.862  0.00  0.00    +0.000 A 
ATOM      6  N   UNL     1       0.558  12.856  21.682  0.00  0.00    +0.000 NA
ATOM      7  N   UNL     1      -0.131  13.909  22.178  0.00  0.00    +0.000 N 
ATOM      8  C   UNL     1       0.328  15.184  22.361  0.00  0.00    +0.000 A 
ATOM      9  C   UNL     1      -0.744  15.974  22.727  0.00  0.00    +0.000 A 
ATOM     10  C   UNL     1      -1.889  15.141  22.777  0.00  0.00    +0.000 A 
ATOM     11  C   UNL     1      -1.451  13.860  22.522  0.00  0.00    +0.000 A 
ATOM     12  C   UNL     1      -2.109  12.596  22.506  0.00  0.00    +0.000 A 
ATOM     13  O   UNL     1      -3.313  12.433  22.373  0.00  0.00    +0.000 OA
ATOM     14  N   UNL     1      -1.225  11.550  22.572  0.00  0.00    +0.000 N 
ATOM     15  C   UNL     1       0.927  10.251  20.081  0.00  0.00    +0.000 A 
ATOM     16  C   UNL     1       1.065  11.275  19.007  0.00  0.00    +0.000 C 
ATOM     17  H   UNL     1      -0.961  11.434  23.544  0.00  0.00    +0.000 HD
ENDROOT
BRANCH   1  22
ATOM     18  C   UNL     1       2.760   4.132  19.155  0.00  0.00    +0.000 C 
ATOM     19  C   UNL     1       2.600   4.927  17.838  0.00  0.00    +0.000 C 
ATOM     20  C   UNL     1       3.110   6.362  17.924  0.00  0.00    +0.000 C 
ATOM     21  N   UNL     1       2.534   7.039  19.082  0.00  0.00    +0.000 N 
ATOM     22  C   UNL     1       1.789   8.197  18.887  0.00  0.00    +0.000 C 
ATOM     23  O   UNL     1       1.630   8.659  17.757  0.00  0.00    +0.000 OA
ATOM     24  C   UNL     1       2.854   6.367  20.345  0.00  0.00    +0.000 C 
ATOM     25  C   UNL     1       2.220   4.977  20.338  0.00  0.00    +0.000 C 
BRANCH  18  26
ATOM     26  C   UNL     1       2.048   2.785  19.146  0.00  0.00    +0.000 C 
ATOM     27  C   UNL     1       0.960   2.414  20.129  0.00  0.00    +0.000 C 
ATOM     28  C   UNL     1       0.612   2.623  18.682  0.00  0.00    +0.000 C 
ENDBRANCH  18  26
BRANCH  18  30
ATOM     29  C   UNL     1       4.552   2.599  19.805  0.00  0.00    +0.000 C 
ATOM     30  O   UNL     1       4.147   3.924  19.496  0.00  0.00    +0.000 OA
ENDBRANCH  18  30
ENDBRANCH   1  22
TORSDOF 3
ENDMDL
MODEL 9
REMARK VINA RESULT:      -7.0      3.307      4.636
REMARK  Name = 
REMARK  5 active torsions:
REMARK  status: ('A' for Active; 'I' for Inactive)
REMARK    1  A    between atoms: C_1  and  O_2
REMARK    2  A    between atoms: O_2  and  C_3
REMARK    3  A    between atoms: C_3  and  C_4
REMARK    4  A    between atoms: C_10  and  C_12
REMARK    5  A    between atoms: C_26  and  C_27
REMARK                            x       y       z     vdW  Elec       q    Type
REMARK                         _______ _______ _______ _____ _____    ______ ____
ROOT
ATOM      1  C   UNL     1       1.000   9.894  19.480  0.00  0.00    +0.000 A 
ATOM      2  C   UNL     1       1.119   9.806  18.078  0.00  0.00    +0.000 A 
ATOM      3  N   UNL     1       1.685   8.674  17.661  0.00  0.00    +0.000 NA
ATOM      4  N   UNL     1       1.929   7.983  18.811  0.00  0.00    +0.000 N 
ATOM      5  C   UNL     1       2.525   6.710  18.735  0.00  0.00    +0.000 A 
ATOM      6  N   UNL     1       3.334   6.229  19.630  0.00  0.00    +0.000 NA
ATOM      7  N   UNL     1       3.641   4.931  19.405  0.00  0.00    +0.000 N 
ATOM      8  C   UNL     1       4.625   4.199  20.008  0.00  0.00    +0.000 A 
ATOM      9  C   UNL     1       4.481   2.883  19.611  0.00  0.00    +0.000 A 
ATOM     10  C   UNL     1       3.375   2.825  18.727  0.00  0.00    +0.000 A 
ATOM     11  C   UNL     1       2.943   4.121  18.555  0.00  0.00    +0.000 A 
ATOM     12  C   UNL     1       1.932   4.705  17.740  0.00  0.00    +0.000 A 
ATOM     13  O   UNL     1       0.976   4.105  17.269  0.00  0.00    +0.000 OA
ATOM     14  N   UNL     1       2.093   6.061  17.603  0.00  0.00    +0.000 N 
ATOM     15  C   UNL     1       1.462   8.657  19.923  0.00  0.00    +0.000 A 
ATOM     16  C   UNL     1       1.370   8.052  21.282  0.00  0.00    +0.000 C 
ATOM     17  H   UNL     1       2.797   6.213  16.890  0.00  0.00    +0.000 HD
ENDROOT
BRANCH   1  22
ATOM     18  C   UNL     1       1.280  14.961  19.703  0.00  0.00    +0.000 C 
ATOM     19  C   UNL     1       0.080  14.424  20.519  0.00  0.00    +0.000 C 
ATOM     20  C   UNL     1       0.401  13.168  21.323  0.00  0.00    +0.000 C 
ATOM     21  N   UNL     1       1.017  12.159  20.466  0.00  0.00    +0.000 N 
ATOM     22  C   UNL     1       0.407  10.916  20.339  0.00  0.00    +0.000 C 
ATOM     23  O   UNL     1      -0.630  10.659  20.953  0.00  0.00    +0.000 OA
ATOM     24  C   UNL     1       2.258  12.628  19.844  0.00  0.00    +0.000 C 
ATOM     25  C   UNL     1       1.933  13.797  18.915  0.00  0.00    +0.000 C 
BRANCH  18  26
ATOM     26  C   UNL     1       0.908  16.070  18.727  0.00  0.00    +0.000 C 
ATOM     27  C   UNL     1      -0.516  16.512  18.475  0.00  0.00    +0.000 C 
ATOM     28  C   UNL     1       0.432  17.436  19.186  0.00  0.00    +0.000 C 
ENDBRANCH  18  26
BRANCH  18  30
ATOM     29  C   UNL     1       3.527  15.902  19.926  0.00  0.00    +0.000 C 
ATOM     30  O   UNL     1       2.347  15.430  20.556  0.00  0.00    +0.000 OA
ENDBRANCH  18  30
ENDBRANCH   1  22
TORSDOF 3
ENDMDL
