MODEL 1
REMARK VINA RESULT:      -6.8      0.000      0.000
REMARK  Name = 
REMARK  5 active torsions:
REMARK  status: ('A' for Active; 'I' for Inactive)
REMARK    1  A    between atoms: N_1  and  C_2
REMARK    2  A    between atoms: C_2  and  C_3
REMARK    3  A    between atoms: C_3  and  N_4
REMARK    4  A    between atoms: N_7  and  C_8
REMARK    5  A    between atoms: C_8  and  C_9
REMARK                            x       y       z     vdW  Elec       q    Type
REMARK                         _______ _______ _______ _____ _____    ______ ____
ROOT
ATOM      1  C   UNL     1       3.407   7.208  18.358  0.00  0.00    +0.000 C 
ATOM      2  O   UNL     1       4.234   7.957  17.820  0.00  0.00    +0.000 OA
ATOM      3  N   UNL     1       3.686   5.849  18.509  0.00  0.00    +0.000 N 
ATOM      4  C   UNL     1       5.014   5.402  18.291  0.00  0.00    +0.000 A 
ATOM      5  C   UNL     1       6.054   5.945  19.072  0.00  0.00    +0.000 A 
ATOM      6  C   UNL     1       7.387   5.603  18.829  0.00  0.00    +0.000 A 
ATOM      7  C   UNL     1       7.700   4.754  17.773  0.00  0.00    +0.000 A 
ATOM      8  C   UNL     1       6.680   4.223  16.988  0.00  0.00    +0.000 A 
ATOM      9  C   UNL     1       5.336   4.520  17.267  0.00  0.00    +0.000 A 
ATOM     10  C   UNL     1       4.316   3.875  16.430  0.00  0.00    +0.000 C 
ATOM     11  O   UNL     1       4.540   3.649  15.243  0.00  0.00    +0.000 OA
ATOM     12  N   UNL     1       3.197   3.353  17.021  0.00  0.00    +0.000 N 
ATOM     13  C   UNL     1       2.590   3.667  18.248  0.00  0.00    +0.000 A 
ATOM     14  C   UNL     1       1.614   2.768  18.697  0.00  0.00    +0.000 A 
ATOM     15  C   UNL     1       0.837   3.080  19.805  0.00  0.00    +0.000 A 
ATOM     16  C   UNL     1       1.048   4.295  20.418  0.00  0.00    +0.000 A 
ATOM     17  N   UNL     1       1.982   5.183  20.020  0.00  0.00    +0.000 NA
ATOM     18  C   UNL     1       2.762   4.870  18.949  0.00  0.00    +0.000 A 
ATOM     19  H   UNL     1       2.737   2.670  16.430  0.00  0.00    +0.000 HD
ENDROOT
BRANCH   1  20
ATOM     20  C   UNL     1       2.026   7.711  18.823  0.00  0.00    +0.000 C 
BRANCH  20  24
ATOM     21  N   UNL     1      -0.982   9.942  19.246  0.00  0.00    +0.000 NA
ATOM     22  C   UNL     1      -0.296   9.621  17.976  0.00  0.00    +0.000 C 
ATOM     23  C   UNL     1       1.239   9.848  17.986  0.00  0.00    +0.000 C 
ATOM     24  N   UNL     1       1.954   9.173  19.096  0.00  0.00    +0.000 NA
ATOM     25  C   UNL     1       1.255   9.494  20.362  0.00  0.00    +0.000 C 
ATOM     26  C   UNL     1      -0.271   9.244  20.344  0.00  0.00    +0.000 C 
BRANCH  21  27
ATOM     27  C   UNL     1      -1.033  11.392  19.529  0.00  0.00    +0.000 C 
BRANCH  27  28
ATOM     28  C   UNL     1      -1.780  12.221  18.464  0.00  0.00    +0.000 C 
BRANCH  28  29
ATOM     29  N   UNL     1      -0.860  13.079  17.715  0.00  0.00    +0.000 NA
ATOM     30  H   UNL     1      -0.068  12.518  17.402  0.00  0.00    +0.000 HD
ATOM     31  H   UNL     1      -0.475  13.788  18.337  0.00  0.00    +0.000 HD
ENDBRANCH  28  29
ENDBRANCH  27  28
ENDBRANCH  21  27
ENDBRANCH  20  24
ENDBRANCH   1  20
TORSDOF 5
ENDMDL
MODEL 2
REMARK VINA RESULT:      -6.8      4.854      7.656
REMARK  Name = 
REMARK  5 active torsions:
REMARK  status: ('A' for Active; 'I' for Inactive)
REMARK    1  A    between atoms: N_1  and  C_2
REMARK    2  A    between atoms: C_2  and  C_3
REMARK    3  A    between atoms: C_3  and  N_4
REMARK    4  A    between atoms: N_7  and  C_8
REMARK    5  A    between atoms: C_8  and  C_9
REMARK                            x       y       z     vdW  Elec       q    Type
REMARK                         _______ _______ _______ _____ _____    ______ ____
ROOT
ATOM      1  C   UNL     1      -0.762  12.667  20.571  0.00  0.00    +0.000 C 
ATOM      2  O   UNL     1       0.205  12.826  21.328  0.00  0.00    +0.000 OA
ATOM      3  N   UNL     1      -0.981  11.429  19.964  0.00  0.00    +0.000 N 
ATOM      4  C   UNL     1      -0.255  10.307  20.434  0.00  0.00    +0.000 A 
ATOM      5  C   UNL     1      -0.378   9.931  21.787  0.00  0.00    +0.000 A 
ATOM      6  C   UNL     1       0.390   8.890  22.315  0.00  0.00    +0.000 A 
ATOM      7  C   UNL     1       1.322   8.244  21.512  0.00  0.00    +0.000 A 
ATOM      8  C   UNL     1       1.460   8.616  20.177  0.00  0.00    +0.000 A 
ATOM      9  C   UNL     1       0.649   9.624  19.629  0.00  0.00    +0.000 A 
ATOM     10  C   UNL     1       0.814   9.919  18.200  0.00  0.00    +0.000 C 
ATOM     11  O   UNL     1       1.920   9.828  17.672  0.00  0.00    +0.000 OA
ATOM     12  N   UNL     1      -0.297  10.104  17.422  0.00  0.00    +0.000 N 
ATOM     13  C   UNL     1      -1.599  10.493  17.779  0.00  0.00    +0.000 A 
ATOM     14  C   UNL     1      -2.580  10.328  16.793  0.00  0.00    +0.000 A 
ATOM     15  C   UNL     1      -3.856  10.842  16.987  0.00  0.00    +0.000 A 
ATOM     16  C   UNL     1      -4.104  11.525  18.157  0.00  0.00    +0.000 A 
ATOM     17  N   UNL     1      -3.188  11.698  19.133  0.00  0.00    +0.000 NA
ATOM     18  C   UNL     1      -1.944  11.174  18.957  0.00  0.00    +0.000 A 
ATOM     19  H   UNL     1      -0.098   9.978  16.437  0.00  0.00    +0.000 HD
ENDROOT
BRANCH   1  20
ATOM     20  C   UNL     1      -1.720  13.820  20.212  0.00  0.00    +0.000 C 
BRANCH  20  24
ATOM     21  N   UNL     1      -5.051  13.337  21.908  0.00  0.00    +0.000 NA
ATOM     22  C   UNL     1      -4.767  14.232  20.766  0.00  0.00    +0.000 C 
ATOM     23  C   UNL     1      -3.568  15.196  20.973  0.00  0.00    +0.000 C 
ATOM     24  N   UNL     1      -2.307  14.531  21.381  0.00  0.00    +0.000 NA
ATOM     25  C   UNL     1      -2.603  13.631  22.520  0.00  0.00    +0.000 C 
ATOM     26  C   UNL     1      -3.788  12.663  22.291  0.00  0.00    +0.000 C 
BRANCH  21  27
ATOM     27  C   UNL     1      -5.612  14.046  23.077  0.00  0.00    +0.000 C 
BRANCH  27  28
ATOM     28  C   UNL     1      -6.509  13.174  23.978  0.00  0.00    +0.000 C 
BRANCH  28  29
ATOM     29  N   UNL     1      -7.594  13.960  24.571  0.00  0.00    +0.000 NA
ATOM     30  H   UNL     1      -7.255  14.393  25.429  0.00  0.00    +0.000 HD
ATOM     31  H   UNL     1      -8.351  13.337  24.848  0.00  0.00    +0.000 HD
ENDBRANCH  28  29
ENDBRANCH  27  28
ENDBRANCH  21  27
ENDBRANCH  20  24
ENDBRANCH   1  20
TORSDOF 5
ENDMDL
MODEL 3
REMARK VINA RESULT:      -6.6      4.434      7.110
REMARK  Name = 
REMARK  5 active torsions:
REMARK  status: ('A' for Active; 'I' for Inactive)
REMARK    1  A    between atoms: N_1  and  C_2
REMARK    2  A    between atoms: C_2  and  C_3
REMARK    3  A    between atoms: C_3  and  N_4
REMARK    4  A    between atoms: N_7  and  C_8
REMARK    5  A    between atoms: C_8  and  C_9
REMARK                            x       y       z     vdW  Elec       q    Type
REMARK                         _______ _______ _______ _____ _____    ______ ____
ROOT
ATOM      1  C   UNL     1       0.007  12.375  20.502  0.00  0.00    +0.000 C 
ATOM      2  O   UNL     1       1.044  12.431  21.176  0.00  0.00    +0.000 OA
ATOM      3  N   UNL     1      -0.378  11.173  19.906  0.00  0.00    +0.000 N 
ATOM      4  C   UNL     1       0.276   9.980  20.305  0.00  0.00    +0.000 A 
ATOM      5  C   UNL     1       0.230   9.597  21.661  0.00  0.00    +0.000 A 
ATOM      6  C   UNL     1       0.937   8.481  22.115  0.00  0.00    +0.000 A 
ATOM      7  C   UNL     1       1.735   7.762  21.232  0.00  0.00    +0.000 A 
ATOM      8  C   UNL     1       1.796   8.141  19.893  0.00  0.00    +0.000 A 
ATOM      9  C   UNL     1       1.042   9.228  19.423  0.00  0.00    +0.000 A 
ATOM     10  C   UNL     1       1.115   9.528  17.987  0.00  0.00    +0.000 C 
ATOM     11  O   UNL     1       2.160   9.343  17.367  0.00  0.00    +0.000 OA
ATOM     12  N   UNL     1      -0.033   9.829  17.306  0.00  0.00    +0.000 N 
ATOM     13  C   UNL     1      -1.259  10.332  17.774  0.00  0.00    +0.000 A 
ATOM     14  C   UNL     1      -2.329  10.275  16.872  0.00  0.00    +0.000 A 
ATOM     15  C   UNL     1      -3.531  10.903  17.175  0.00  0.00    +0.000 A 
ATOM     16  C   UNL     1      -3.615  11.588  18.367  0.00  0.00    +0.000 A 
ATOM     17  N   UNL     1      -2.610  11.659  19.264  0.00  0.00    +0.000 NA
ATOM     18  C   UNL     1      -1.440  11.024  18.981  0.00  0.00    +0.000 A 
ATOM     19  H   UNL     1       0.070   9.699  16.307  0.00  0.00    +0.000 HD
ENDROOT
BRANCH   1  20
ATOM     20  C   UNL     1      -0.864  13.618  20.233  0.00  0.00    +0.000 C 
BRANCH  20  24
ATOM     21  N   UNL     1      -3.981  13.119  22.291  0.00  0.00    +0.000 NA
ATOM     22  C   UNL     1      -3.835  14.008  21.118  0.00  0.00    +0.000 C 
ATOM     23  C   UNL     1      -2.630  14.984  21.184  0.00  0.00    +0.000 C 
ATOM     24  N   UNL     1      -1.324  14.333  21.454  0.00  0.00    +0.000 NA
ATOM     25  C   UNL     1      -1.484  13.441  22.626  0.00  0.00    +0.000 C 
ATOM     26  C   UNL     1      -2.677  12.460  22.538  0.00  0.00    +0.000 C 
BRANCH  21  27
ATOM     27  C   UNL     1      -4.416  13.834  23.511  0.00  0.00    +0.000 C 
BRANCH  27  28
ATOM     28  C   UNL     1      -4.305  13.004  24.806  0.00  0.00    +0.000 C 
BRANCH  28  29
ATOM     29  N   UNL     1      -5.398  12.036  24.914  0.00  0.00    +0.000 NA
ATOM     30  H   UNL     1      -6.282  12.519  24.760  0.00  0.00    +0.000 HD
ATOM     31  H   UNL     1      -5.436  11.672  25.865  0.00  0.00    +0.000 HD
ENDBRANCH  28  29
ENDBRANCH  27  28
ENDBRANCH  21  27
ENDBRANCH  20  24
ENDBRANCH   1  20
TORSDOF 5
ENDMDL
MODEL 4
REMARK VINA RESULT:      -6.6      6.349      8.389
REMARK  Name = 
REMARK  5 active torsions:
REMARK  status: ('A' for Active; 'I' for Inactive)
REMARK    1  A    between atoms: N_1  and  C_2
REMARK    2  A    between atoms: C_2  and  C_3
REMARK    3  A    between atoms: C_3  and  N_4
REMARK    4  A    between atoms: N_7  and  C_8
REMARK    5  A    between atoms: C_8  and  C_9
REMARK                            x       y       z     vdW  Elec       q    Type
REMARK                         _______ _______ _______ _____ _____    ______ ____
ROOT
ATOM      1  C   UNL     1      -0.540  13.887  22.248  0.00  0.00    +0.000 C 
ATOM      2  O   UNL     1      -0.429  15.074  21.914  0.00  0.00    +0.000 OA
ATOM      3  N   UNL     1       0.113  12.890  21.522  0.00  0.00    +0.000 N 
ATOM      4  C   UNL     1       1.105  13.275  20.584  0.00  0.00    +0.000 A 
ATOM      5  C   UNL     1       2.220  14.010  21.034  0.00  0.00    +0.000 A 
ATOM      6  C   UNL     1       3.174  14.489  20.132  0.00  0.00    +0.000 A 
ATOM      7  C   UNL     1       2.999  14.282  18.768  0.00  0.00    +0.000 A 
ATOM      8  C   UNL     1       1.893  13.568  18.314  0.00  0.00    +0.000 A 
ATOM      9  C   UNL     1       0.964  13.036  19.223  0.00  0.00    +0.000 A 
ATOM     10  C   UNL     1      -0.143  12.246  18.670  0.00  0.00    +0.000 C 
ATOM     11  O   UNL     1      -0.626  12.535  17.577  0.00  0.00    +0.000 OA
ATOM     12  N   UNL     1      -0.503  11.076  19.283  0.00  0.00    +0.000 N 
ATOM     13  C   UNL     1      -0.310  10.651  20.607  0.00  0.00    +0.000 A 
ATOM     14  C   UNL     1      -0.548   9.293  20.856  0.00  0.00    +0.000 A 
ATOM     15  C   UNL     1      -0.555   8.813  22.160  0.00  0.00    +0.000 A 
ATOM     16  C   UNL     1      -0.342   9.716  23.178  0.00  0.00    +0.000 A 
ATOM     17  N   UNL     1      -0.103  11.029  22.978  0.00  0.00    +0.000 NA
ATOM     18  C   UNL     1      -0.071  11.497  21.700  0.00  0.00    +0.000 A 
ATOM     19  H   UNL     1      -1.028  10.468  18.666  0.00  0.00    +0.000 HD
ENDROOT
BRANCH   1  20
ATOM     20  C   UNL     1      -1.439  13.446  23.420  0.00  0.00    +0.000 C 
BRANCH  20  24
ATOM     21  N   UNL     1      -5.027  12.301  23.287  0.00  0.00    +0.000 NA
ATOM     22  C   UNL     1      -4.202  12.742  22.142  0.00  0.00    +0.000 C 
ATOM     23  C   UNL     1      -3.502  14.114  22.331  0.00  0.00    +0.000 C 
ATOM     24  N   UNL     1      -2.696  14.229  23.571  0.00  0.00    +0.000 NA
ATOM     25  C   UNL     1      -3.530  13.778  24.710  0.00  0.00    +0.000 C 
ATOM     26  C   UNL     1      -4.205  12.400  24.515  0.00  0.00    +0.000 C 
BRANCH  21  27
ATOM     27  C   UNL     1      -6.265  13.093  23.450  0.00  0.00    +0.000 C 
BRANCH  27  28
ATOM     28  C   UNL     1      -7.530  12.419  22.884  0.00  0.00    +0.000 C 
BRANCH  28  29
ATOM     29  N   UNL     1      -7.916  11.254  23.683  0.00  0.00    +0.000 NA
ATOM     30  H   UNL     1      -7.991  10.444  23.068  0.00  0.00    +0.000 HD
ATOM     31  H   UNL     1      -8.847  11.402  24.071  0.00  0.00    +0.000 HD
ENDBRANCH  28  29
ENDBRANCH  27  28
ENDBRANCH  21  27
ENDBRANCH  20  24
ENDBRANCH   1  20
TORSDOF 5
ENDMDL
MODEL 5
REMARK VINA RESULT:      -6.5      5.222      7.776
REMARK  Name = 
REMARK  5 active torsions:
REMARK  status: ('A' for Active; 'I' for Inactive)
REMARK    1  A    between atoms: N_1  and  C_2
REMARK    2  A    between atoms: C_2  and  C_3
REMARK    3  A    between atoms: C_3  and  N_4
REMARK    4  A    between atoms: N_7  and  C_8
REMARK    5  A    between atoms: C_8  and  C_9
REMARK                            x       y       z     vdW  Elec       q    Type
REMARK                         _______ _______ _______ _____ _____    ______ ____
ROOT
ATOM      1  C   UNL     1      -1.579  12.677  19.558  0.00  0.00    +0.000 C 
ATOM      2  O   UNL     1      -1.590  13.365  18.529  0.00  0.00    +0.000 OA
ATOM      3  N   UNL     1      -0.388  12.103  20.004  0.00  0.00    +0.000 N 
ATOM      4  C   UNL     1       0.832  12.538  19.427  0.00  0.00    +0.000 A 
ATOM      5  C   UNL     1       1.180  13.901  19.513  0.00  0.00    +0.000 A 
ATOM      6  C   UNL     1       2.325  14.391  18.880  0.00  0.00    +0.000 A 
ATOM      7  C   UNL     1       3.109  13.536  18.114  0.00  0.00    +0.000 A 
ATOM      8  C   UNL     1       2.766  12.189  18.013  0.00  0.00    +0.000 A 
ATOM      9  C   UNL     1       1.647  11.684  18.696  0.00  0.00    +0.000 A 
ATOM     10  C   UNL     1       1.386  10.243  18.586  0.00  0.00    +0.000 C 
ATOM     11  O   UNL     1       1.646   9.643  17.546  0.00  0.00    +0.000 OA
ATOM     12  N   UNL     1       1.034   9.539  19.706  0.00  0.00    +0.000 N 
ATOM     13  C   UNL     1       0.450   9.977  20.905  0.00  0.00    +0.000 A 
ATOM     14  C   UNL     1       0.465   9.061  21.965  0.00  0.00    +0.000 A 
ATOM     15  C   UNL     1      -0.239   9.333  23.131  0.00  0.00    +0.000 A 
ATOM     16  C   UNL     1      -0.955  10.508  23.191  0.00  0.00    +0.000 A 
ATOM     17  N   UNL     1      -0.989  11.418  22.195  0.00  0.00    +0.000 NA
ATOM     18  C   UNL     1      -0.279  11.166  21.061  0.00  0.00    +0.000 A 
ATOM     19  H   UNL     1       1.193   8.544  19.596  0.00  0.00    +0.000 HD
ENDROOT
BRANCH   1  20
ATOM     20  C   UNL     1      -2.864  12.367  20.350  0.00  0.00    +0.000 C 
BRANCH  20  24
ATOM     21  N   UNL     1      -6.071  12.641  22.311  0.00  0.00    +0.000 NA
ATOM     22  C   UNL     1      -5.929  12.158  20.921  0.00  0.00    +0.000 C 
ATOM     23  C   UNL     1      -5.144  13.107  19.976  0.00  0.00    +0.000 C 
ATOM     24  N   UNL     1      -3.808  13.511  20.478  0.00  0.00    +0.000 NA
ATOM     25  C   UNL     1      -3.961  13.986  21.873  0.00  0.00    +0.000 C 
ATOM     26  C   UNL     1      -4.727  13.021  22.808  0.00  0.00    +0.000 C 
BRANCH  21  27
ATOM     27  C   UNL     1      -6.991  13.792  22.436  0.00  0.00    +0.000 C 
BRANCH  27  28
ATOM     28  C   UNL     1      -7.132  14.340  23.870  0.00  0.00    +0.000 C 
BRANCH  28  29
ATOM     29  N   UNL     1      -7.795  13.373  24.747  0.00  0.00    +0.000 NA
ATOM     30  H   UNL     1      -8.789  13.596  24.790  0.00  0.00    +0.000 HD
ATOM     31  H   UNL     1      -7.440  13.477  25.696  0.00  0.00    +0.000 HD
ENDBRANCH  28  29
ENDBRANCH  27  28
ENDBRANCH  21  27
ENDBRANCH  20  24
ENDBRANCH   1  20
TORSDOF 5
ENDMDL
MODEL 6
REMARK VINA RESULT:      -6.5      4.783      7.636
REMARK  Name = 
REMARK  5 active torsions:
REMARK  status: ('A' for Active; 'I' for Inactive)
REMARK    1  A    between atoms: N_1  and  C_2
REMARK    2  A    between atoms: C_2  and  C_3
REMARK    3  A    between atoms: C_3  and  N_4
REMARK    4  A    between atoms: N_7  and  C_8
REMARK    5  A    between atoms: C_8  and  C_9
REMARK                            x       y       z     vdW  Elec       q    Type
REMARK                         _______ _______ _______ _____ _____    ______ ____
ROOT
ATOM      1  C   UNL     1      -0.272  12.772  20.568  0.00  0.00    +0.000 C 
ATOM      2  O   UNL     1       0.777  12.869  21.218  0.00  0.00    +0.000 OA
ATOM      3  N   UNL     1      -0.662  11.537  20.046  0.00  0.00    +0.000 N 
ATOM      4  C   UNL     1       0.006  10.371  20.496  0.00  0.00    +0.000 A 
ATOM      5  C   UNL     1      -0.011  10.061  21.871  0.00  0.00    +0.000 A 
ATOM      6  C   UNL     1       0.710   8.975  22.371  0.00  0.00    +0.000 A 
ATOM      7  C   UNL     1       1.495   8.213  21.513  0.00  0.00    +0.000 A 
ATOM      8  C   UNL     1       1.529   8.519  20.154  0.00  0.00    +0.000 A 
ATOM      9  C   UNL     1       0.759   9.576  19.641  0.00  0.00    +0.000 A 
ATOM     10  C   UNL     1       0.803   9.798  18.189  0.00  0.00    +0.000 C 
ATOM     11  O   UNL     1       1.837   9.584  17.561  0.00  0.00    +0.000 OA
ATOM     12  N   UNL     1      -0.360  10.056  17.516  0.00  0.00    +0.000 N 
ATOM     13  C   UNL     1      -1.579  10.578  17.980  0.00  0.00    +0.000 A 
ATOM     14  C   UNL     1      -2.666  10.468  17.103  0.00  0.00    +0.000 A 
ATOM     15  C   UNL     1      -3.865  11.105  17.396  0.00  0.00    +0.000 A 
ATOM     16  C   UNL     1      -3.931  11.853  18.551  0.00  0.00    +0.000 A 
ATOM     17  N   UNL     1      -2.908  11.978  19.423  0.00  0.00    +0.000 NA
ATOM     18  C   UNL     1      -1.740  11.333  19.151  0.00  0.00    +0.000 A 
ATOM     19  H   UNL     1      -0.274   9.873  16.523  0.00  0.00    +0.000 HD
ENDROOT
BRANCH   1  20
ATOM     20  C   UNL     1      -1.155  13.994  20.249  0.00  0.00    +0.000 C 
BRANCH  20  24
ATOM     21  N   UNL     1      -4.152  14.890  22.353  0.00  0.00    +0.000 NA
ATOM     22  C   UNL     1      -3.762  15.509  21.068  0.00  0.00    +0.000 C 
ATOM     23  C   UNL     1      -2.293  16.003  20.999  0.00  0.00    +0.000 C 
ATOM     24  N   UNL     1      -1.282  14.979  21.359  0.00  0.00    +0.000 NA
ATOM     25  C   UNL     1      -1.685  14.360  22.643  0.00  0.00    +0.000 C 
ATOM     26  C   UNL     1      -3.146  13.855  22.691  0.00  0.00    +0.000 C 
BRANCH  21  27
ATOM     27  C   UNL     1      -4.255  15.865  23.460  0.00  0.00    +0.000 C 
BRANCH  27  28
ATOM     28  C   UNL     1      -5.672  16.008  24.050  0.00  0.00    +0.000 C 
BRANCH  28  29
ATOM     29  N   UNL     1      -6.344  14.710  24.145  0.00  0.00    +0.000 NA
ATOM     30  H   UNL     1      -5.640  13.973  24.126  0.00  0.00    +0.000 HD
ATOM     31  H   UNL     1      -6.924  14.568  23.319  0.00  0.00    +0.000 HD
ENDBRANCH  28  29
ENDBRANCH  27  28
ENDBRANCH  21  27
ENDBRANCH  20  24
ENDBRANCH   1  20
TORSDOF 5
ENDMDL
MODEL 7
REMARK VINA RESULT:      -6.4      1.693      2.019
REMARK  Name = 
REMARK  5 active torsions:
REMARK  status: ('A' for Active; 'I' for Inactive)
REMARK    1  A    between atoms: N_1  and  C_2
REMARK    2  A    between atoms: C_2  and  C_3
REMARK    3  A    between atoms: C_3  and  N_4
REMARK    4  A    between atoms: N_7  and  C_8
REMARK    5  A    between atoms: C_8  and  C_9
REMARK                            x       y       z     vdW  Elec       q    Type
REMARK                         _______ _______ _______ _____ _____    ______ ____
ROOT
ATOM      1  C   UNL     1       2.698   6.814  18.849  0.00  0.00    +0.000 C 
ATOM      2  O   UNL     1       3.058   7.574  17.940  0.00  0.00    +0.000 OA
ATOM      3  N   UNL     1       3.180   5.505  18.902  0.00  0.00    +0.000 N 
ATOM      4  C   UNL     1       4.277   5.154  18.074  0.00  0.00    +0.000 A 
ATOM      5  C   UNL     1       5.490   5.859  18.213  0.00  0.00    +0.000 A 
ATOM      6  C   UNL     1       6.565   5.610  17.357  0.00  0.00    +0.000 A 
ATOM      7  C   UNL     1       6.427   4.690  16.323  0.00  0.00    +0.000 A 
ATOM      8  C   UNL     1       5.227   3.998  16.170  0.00  0.00    +0.000 A 
ATOM      9  C   UNL     1       4.165   4.206  17.066  0.00  0.00    +0.000 A 
ATOM     10  C   UNL     1       2.955   3.395  16.873  0.00  0.00    +0.000 C 
ATOM     11  O   UNL     1       2.597   3.073  15.743  0.00  0.00    +0.000 OA
ATOM     12  N   UNL     1       2.340   2.841  17.963  0.00  0.00    +0.000 N 
ATOM     13  C   UNL     1       2.375   3.222  19.315  0.00  0.00    +0.000 A 
ATOM     14  C   UNL     1       1.861   2.292  20.227  0.00  0.00    +0.000 A 
ATOM     15  C   UNL     1       1.691   2.645  21.560  0.00  0.00    +0.000 A 
ATOM     16  C   UNL     1       2.022   3.928  21.934  0.00  0.00    +0.000 A 
ATOM     17  N   UNL     1       2.525   4.850  21.086  0.00  0.00    +0.000 NA
ATOM     18  C   UNL     1       2.717   4.499  19.785  0.00  0.00    +0.000 A 
ATOM     19  H   UNL     1       1.739   2.066  17.709  0.00  0.00    +0.000 HD
ENDROOT
BRANCH   1  20
ATOM     20  C   UNL     1       1.669   7.240  19.914  0.00  0.00    +0.000 C 
BRANCH  20  24
ATOM     21  N   UNL     1      -0.819   9.849  21.014  0.00  0.00    +0.000 NA
ATOM     22  C   UNL     1      -0.245   9.697  19.660  0.00  0.00    +0.000 C 
ATOM     23  C   UNL     1       1.304   9.620  19.611  0.00  0.00    +0.000 C 
ATOM     24  N   UNL     1       1.898   8.590  20.499  0.00  0.00    +0.000 NA
ATOM     25  C   UNL     1       1.311   8.747  21.850  0.00  0.00    +0.000 C 
ATOM     26  C   UNL     1      -0.234   8.802  21.885  0.00  0.00    +0.000 C 
BRANCH  21  27
ATOM     27  C   UNL     1      -0.572  11.182  21.604  0.00  0.00    +0.000 C 
BRANCH  27  28
ATOM     28  C   UNL     1      -1.134  11.361  23.029  0.00  0.00    +0.000 C 
BRANCH  28  29
ATOM     29  N   UNL     1      -2.468  11.965  23.003  0.00  0.00    +0.000 NA
ATOM     30  H   UNL     1      -2.777  12.038  22.034  0.00  0.00    +0.000 HD
ATOM     31  H   UNL     1      -2.415  12.919  23.356  0.00  0.00    +0.000 HD
ENDBRANCH  28  29
ENDBRANCH  27  28
ENDBRANCH  21  27
ENDBRANCH  20  24
ENDBRANCH   1  20
TORSDOF 5
ENDMDL
MODEL 8
REMARK VINA RESULT:      -6.4      0.932      1.202
REMARK  Name = 
REMARK  5 active torsions:
REMARK  status: ('A' for Active; 'I' for Inactive)
REMARK    1  A    between atoms: N_1  and  C_2
REMARK    2  A    between atoms: C_2  and  C_3
REMARK    3  A    between atoms: C_3  and  N_4
REMARK    4  A    between atoms: N_7  and  C_8
REMARK    5  A    between atoms: C_8  and  C_9
REMARK                            x       y       z     vdW  Elec       q    Type
REMARK                         _______ _______ _______ _____ _____    ______ ____
ROOT
ATOM      1  C   UNL     1       3.394   7.262  18.238  0.00  0.00    +0.000 C 
ATOM      2  O   UNL     1       4.215   7.984  17.657  0.00  0.00    +0.000 OA
ATOM      3  N   UNL     1       3.673   5.911  18.447  0.00  0.00    +0.000 N 
ATOM      4  C   UNL     1       4.997   5.452  18.233  0.00  0.00    +0.000 A 
ATOM      5  C   UNL     1       6.048   6.028  18.976  0.00  0.00    +0.000 A 
ATOM      6  C   UNL     1       7.377   5.673  18.733  0.00  0.00    +0.000 A 
ATOM      7  C   UNL     1       7.676   4.776  17.714  0.00  0.00    +0.000 A 
ATOM      8  C   UNL     1       6.646   4.212  16.966  0.00  0.00    +0.000 A 
ATOM      9  C   UNL     1       5.305   4.524  17.247  0.00  0.00    +0.000 A 
ATOM     10  C   UNL     1       4.274   3.843  16.453  0.00  0.00    +0.000 C 
ATOM     11  O   UNL     1       4.484   3.563  15.275  0.00  0.00    +0.000 OA
ATOM     12  N   UNL     1       3.163   3.351  17.080  0.00  0.00    +0.000 N 
ATOM     13  C   UNL     1       2.571   3.721  18.299  0.00  0.00    +0.000 A 
ATOM     14  C   UNL     1       1.599   2.846  18.800  0.00  0.00    +0.000 A 
ATOM     15  C   UNL     1       0.836   3.209  19.902  0.00  0.00    +0.000 A 
ATOM     16  C   UNL     1       1.056   4.450  20.457  0.00  0.00    +0.000 A 
ATOM     17  N   UNL     1       1.986   5.318  20.007  0.00  0.00    +0.000 NA
ATOM     18  C   UNL     1       2.753   4.955  18.943  0.00  0.00    +0.000 A 
ATOM     19  H   UNL     1       2.695   2.642  16.527  0.00  0.00    +0.000 HD
ENDROOT
BRANCH   1  20
ATOM     20  C   UNL     1       2.019   7.788  18.696  0.00  0.00    +0.000 C 
BRANCH  20  24
ATOM     21  N   UNL     1      -0.821  10.063  19.679  0.00  0.00    +0.000 NA
ATOM     22  C   UNL     1      -0.118  10.045  18.379  0.00  0.00    +0.000 C 
ATOM     23  C   UNL     1       1.429  10.131  18.470  0.00  0.00    +0.000 C 
ATOM     24  N   UNL     1       2.051   9.121  19.360  0.00  0.00    +0.000 NA
ATOM     25  C   UNL     1       1.335   9.141  20.657  0.00  0.00    +0.000 C 
ATOM     26  C   UNL     1      -0.204   9.035  20.551  0.00  0.00    +0.000 C 
BRANCH  21  27
ATOM     27  C   UNL     1      -0.770  11.380  20.350  0.00  0.00    +0.000 C 
BRANCH  27  28
ATOM     28  C   UNL     1      -1.334  11.383  21.785  0.00  0.00    +0.000 C 
BRANCH  28  29
ATOM     29  N   UNL     1      -0.425  12.062  22.712  0.00  0.00    +0.000 NA
ATOM     30  H   UNL     1      -0.442  13.062  22.516  0.00  0.00    +0.000 HD
ATOM     31  H   UNL     1       0.530  11.754  22.537  0.00  0.00    +0.000 HD
ENDBRANCH  28  29
ENDBRANCH  27  28
ENDBRANCH  21  27
ENDBRANCH  20  24
ENDBRANCH   1  20
TORSDOF 5
ENDMDL
MODEL 9
REMARK VINA RESULT:      -6.4      4.854      7.642
REMARK  Name = 
REMARK  5 active torsions:
REMARK  status: ('A' for Active; 'I' for Inactive)
REMARK    1  A    between atoms: N_1  and  C_2
REMARK    2  A    between atoms: C_2  and  C_3
REMARK    3  A    between atoms: C_3  and  N_4
REMARK    4  A    between atoms: N_7  and  C_8
REMARK    5  A    between atoms: C_8  and  C_9
REMARK                            x       y       z     vdW  Elec       q    Type
REMARK                         _______ _______ _______ _____ _____    ______ ____
ROOT
ATOM      1  C   UNL     1      -0.117  12.826  20.929  0.00  0.00    +0.000 C 
ATOM      2  O   UNL     1       0.958  12.826  21.542  0.00  0.00    +0.000 OA
ATOM      3  N   UNL     1      -0.584  11.655  20.331  0.00  0.00    +0.000 N 
ATOM      4  C   UNL     1       0.042  10.428  20.666  0.00  0.00    +0.000 A 
ATOM      5  C   UNL     1       0.059  10.015  22.014  0.00  0.00    +0.000 A 
ATOM      6  C   UNL     1       0.745   8.862  22.402  0.00  0.00    +0.000 A 
ATOM      7  C   UNL     1       1.460   8.133  21.458  0.00  0.00    +0.000 A 
ATOM      8  C   UNL     1       1.460   8.540  20.126  0.00  0.00    +0.000 A 
ATOM      9  C   UNL     1       0.724   9.668  19.724  0.00  0.00    +0.000 A 
ATOM     10  C   UNL     1       0.726   9.998  18.293  0.00  0.00    +0.000 C 
ATOM     11  O   UNL     1       1.725   9.786  17.609  0.00  0.00    +0.000 OA
ATOM     12  N   UNL     1      -0.446  10.360  17.688  0.00  0.00    +0.000 N 
ATOM     13  C   UNL     1      -1.621  10.899  18.237  0.00  0.00    +0.000 A 
ATOM     14  C   UNL     1      -2.743  10.906  17.398  0.00  0.00    +0.000 A 
ATOM     15  C   UNL     1      -3.898  11.574  17.785  0.00  0.00    +0.000 A 
ATOM     16  C   UNL     1      -3.886  12.233  18.995  0.00  0.00    +0.000 A 
ATOM     17  N   UNL     1      -2.828  12.244  19.832  0.00  0.00    +0.000 NA
ATOM     18  C   UNL     1      -1.703  11.569  19.467  0.00  0.00    +0.000 A 
ATOM     19  H   UNL     1      -0.406  10.250  16.681  0.00  0.00    +0.000 HD
ENDROOT
BRANCH   1  20
ATOM     20  C   UNL     1      -0.951  14.109  20.737  0.00  0.00    +0.000 C 
BRANCH  20  24
ATOM     21  N   UNL     1      -0.898  17.019  18.343  0.00  0.00    +0.000 NA
ATOM     22  C   UNL     1      -0.046  15.813  18.279  0.00  0.00    +0.000 C 
ATOM     23  C   UNL     1       0.702  15.470  19.595  0.00  0.00    +0.000 C 
ATOM     24  N   UNL     1      -0.169  15.375  20.792  0.00  0.00    +0.000 NA
ATOM     25  C   UNL     1      -1.024  16.584  20.842  0.00  0.00    +0.000 C 
ATOM     26  C   UNL     1      -1.778  16.901  19.530  0.00  0.00    +0.000 C 
BRANCH  21  27
ATOM     27  C   UNL     1      -0.122  18.275  18.421  0.00  0.00    +0.000 C 
BRANCH  27  28
ATOM     28  C   UNL     1       0.894  18.465  17.277  0.00  0.00    +0.000 C 
BRANCH  28  29
ATOM     29  N   UNL     1       0.221  18.631  15.987  0.00  0.00    +0.000 NA
ATOM     30  H   UNL     1       0.538  17.897  15.355  0.00  0.00    +0.000 HD
ATOM     31  H   UNL     1       0.509  19.513  15.566  0.00  0.00    +0.000 HD
ENDBRANCH  28  29
ENDBRANCH  27  28
ENDBRANCH  21  27
ENDBRANCH  20  24
ENDBRANCH   1  20
TORSDOF 5
ENDMDL
