MODEL 1
REMARK VINA RESULT:      -7.7      0.000      0.000
REMARK  Name = 
REMARK  3 active torsions:
REMARK  status: ('A' for Active; 'I' for Inactive)
REMARK    1  A    between atoms: C_1  and  C_2
REMARK    2  A    between atoms: C_2  and  N_3
REMARK    3  A    between atoms: C_2  and  C_16
REMARK                            x       y       z     vdW  Elec       q    Type
REMARK                         _______ _______ _______ _____ _____    ______ ____
ROOT
ATOM      1  N   UNL     1       0.972   9.703  19.153  0.00  0.00    +0.000 N 
ATOM      2  C   UNL     1       1.822   8.955  18.369  0.00  0.00    +0.000 C 
ATOM      3  O   UNL     1       2.240   9.345  17.283  0.00  0.00    +0.000 OA
ATOM      4  N   UNL     1       2.073   7.722  18.923  0.00  0.00    +0.000 N 
ATOM      5  C   UNL     1       2.844   6.749  18.271  0.00  0.00    +0.000 A 
ATOM      6  C   UNL     1       4.033   7.082  17.624  0.00  0.00    +0.000 A 
ATOM      7  C   UNL     1       4.682   6.017  17.007  0.00  0.00    +0.000 A 
ATOM      8  N   UNL     1       5.855   5.935  16.304  0.00  0.00    +0.000 N 
ATOM      9  N   UNL     1       6.121   4.703  15.831  0.00  0.00    +0.000 NA
ATOM     10  C   UNL     1       5.083   3.975  16.253  0.00  0.00    +0.000 A 
ATOM     11  C   UNL     1       4.163   4.729  17.010  0.00  0.00    +0.000 A 
ATOM     12  C   UNL     1       2.969   4.488  17.689  0.00  0.00    +0.000 A 
ATOM     13  N   UNL     1       2.343   5.498  18.351  0.00  0.00    +0.000 NA
ATOM     14  H   UNL     1       1.049   9.564  20.149  0.00  0.00    +0.000 HD
ATOM     15  H   UNL     1       1.297   7.317  19.425  0.00  0.00    +0.000 HD
ATOM     16  H   UNL     1       6.517   6.678  16.114  0.00  0.00    +0.000 HD
ENDROOT
BRANCH   1  18
ATOM     17  C   UNL     1       0.778  12.123  19.647  0.00  0.00    +0.000 C 
ATOM     18  C   UNL     1       0.469  10.981  18.677  0.00  0.00    +0.000 C 
BRANCH  18  19
ATOM     19  C   UNL     1      -1.013  10.888  18.355  0.00  0.00    +0.000 A 
ATOM     20  C   UNL     1      -1.910  11.785  18.959  0.00  0.00    +0.000 A 
ATOM     21  C   UNL     1      -3.279  11.710  18.700  0.00  0.00    +0.000 A 
ATOM     22  C   UNL     1      -3.760  10.743  17.828  0.00  0.00    +0.000 A 
ATOM     23  F   UNL     1      -5.074  10.671  17.580  0.00  0.00    +0.000 F 
ATOM     24  C   UNL     1      -2.897   9.852  17.205  0.00  0.00    +0.000 A 
ATOM     25  C   UNL     1      -1.525   9.921  17.466  0.00  0.00    +0.000 A 
ENDBRANCH  18  19
ENDBRANCH   1  18
TORSDOF 2
ENDMDL
MODEL 2
REMARK VINA RESULT:      -7.7      0.065      1.032
REMARK  Name = 
REMARK  3 active torsions:
REMARK  status: ('A' for Active; 'I' for Inactive)
REMARK    1  A    between atoms: C_1  and  C_2
REMARK    2  A    between atoms: C_2  and  N_3
REMARK    3  A    between atoms: C_2  and  C_16
REMARK                            x       y       z     vdW  Elec       q    Type
REMARK                         _______ _______ _______ _____ _____    ______ ____
ROOT
ATOM      1  N   UNL     1       0.961   9.655  19.149  0.00  0.00    +0.000 N 
ATOM      2  C   UNL     1       1.822   8.911  18.375  0.00  0.00    +0.000 C 
ATOM      3  O   UNL     1       2.270   9.313  17.305  0.00  0.00    +0.000 OA
ATOM      4  N   UNL     1       2.050   7.667  18.917  0.00  0.00    +0.000 N 
ATOM      5  C   UNL     1       2.828   6.698  18.268  0.00  0.00    +0.000 A 
ATOM      6  C   UNL     1       4.035   7.031  17.655  0.00  0.00    +0.000 A 
ATOM      7  C   UNL     1       4.690   5.968  17.038  0.00  0.00    +0.000 A 
ATOM      8  N   UNL     1       5.878   5.887  16.362  0.00  0.00    +0.000 N 
ATOM      9  N   UNL     1       6.146   4.660  15.876  0.00  0.00    +0.000 NA
ATOM     10  C   UNL     1       5.092   3.935  16.263  0.00  0.00    +0.000 A 
ATOM     11  C   UNL     1       4.160   4.685  17.009  0.00  0.00    +0.000 A 
ATOM     12  C   UNL     1       2.948   4.445  17.655  0.00  0.00    +0.000 A 
ATOM     13  N   UNL     1       2.315   5.450  18.317  0.00  0.00    +0.000 NA
ATOM     14  H   UNL     1       1.012   9.500  20.145  0.00  0.00    +0.000 HD
ATOM     15  H   UNL     1       1.258   7.262  19.394  0.00  0.00    +0.000 HD
ATOM     16  H   UNL     1       6.551   6.627  16.199  0.00  0.00    +0.000 HD
ENDROOT
BRANCH   1  18
ATOM     17  C   UNL     1       0.825  12.078  19.649  0.00  0.00    +0.000 C 
ATOM     18  C   UNL     1       0.480  10.944  18.681  0.00  0.00    +0.000 C 
BRANCH  18  19
ATOM     19  C   UNL     1      -1.008  10.883  18.376  0.00  0.00    +0.000 A 
ATOM     20  C   UNL     1      -1.486   9.940  17.451  0.00  0.00    +0.000 A 
ATOM     21  C   UNL     1      -2.844   9.874  17.134  0.00  0.00    +0.000 A 
ATOM     22  C   UNL     1      -3.733  10.746  17.746  0.00  0.00    +0.000 A 
ATOM     23  F   UNL     1      -5.036  10.684  17.441  0.00  0.00    +0.000 F 
ATOM     24  C   UNL     1      -3.293  11.679  18.674  0.00  0.00    +0.000 A 
ATOM     25  C   UNL     1      -1.934  11.751  18.991  0.00  0.00    +0.000 A 
ENDBRANCH  18  19
ENDBRANCH   1  18
TORSDOF 2
ENDMDL
MODEL 3
REMARK VINA RESULT:      -7.6      3.079      7.844
REMARK  Name = 
REMARK  3 active torsions:
REMARK  status: ('A' for Active; 'I' for Inactive)
REMARK    1  A    between atoms: C_1  and  C_2
REMARK    2  A    between atoms: C_2  and  N_3
REMARK    3  A    between atoms: C_2  and  C_16
REMARK                            x       y       z     vdW  Elec       q    Type
REMARK                         _______ _______ _______ _____ _____    ______ ____
ROOT
ATOM      1  N   UNL     1       2.274   8.151  17.696  0.00  0.00    +0.000 N 
ATOM      2  C   UNL     1       1.485   8.953  18.490  0.00  0.00    +0.000 C 
ATOM      3  O   UNL     1       1.562   8.956  19.716  0.00  0.00    +0.000 OA
ATOM      4  N   UNL     1       0.582   9.676  17.747  0.00  0.00    +0.000 N 
ATOM      5  C   UNL     1      -0.385  10.502  18.338  0.00  0.00    +0.000 A 
ATOM      6  C   UNL     1      -0.064  11.345  19.401  0.00  0.00    +0.000 A 
ATOM      7  C   UNL     1      -1.128  12.093  19.895  0.00  0.00    +0.000 A 
ATOM      8  N   UNL     1      -1.212  13.025  20.896  0.00  0.00    +0.000 N 
ATOM      9  N   UNL     1      -2.456  13.503  21.092  0.00  0.00    +0.000 NA
ATOM     10  C   UNL     1      -3.186  12.857  20.179  0.00  0.00    +0.000 A 
ATOM     11  C   UNL     1      -2.415  11.981  19.387  0.00  0.00    +0.000 A 
ATOM     12  C   UNL     1      -2.641  11.115  18.317  0.00  0.00    +0.000 A 
ATOM     13  N   UNL     1      -1.609  10.415  17.775  0.00  0.00    +0.000 NA
ATOM     14  H   UNL     1       2.494   8.512  16.780  0.00  0.00    +0.000 HD
ATOM     15  H   UNL     1       0.227   9.199  16.932  0.00  0.00    +0.000 HD
ATOM     16  H   UNL     1      -0.463  13.378  21.479  0.00  0.00    +0.000 HD
ENDROOT
BRANCH   1  18
ATOM     17  C   UNL     1       4.388   6.896  17.388  0.00  0.00    +0.000 C 
ATOM     18  C   UNL     1       3.197   7.202  18.297  0.00  0.00    +0.000 C 
BRANCH  18  19
ATOM     19  C   UNL     1       2.465   5.941  18.728  0.00  0.00    +0.000 A 
ATOM     20  C   UNL     1       2.211   5.721  20.092  0.00  0.00    +0.000 A 
ATOM     21  C   UNL     1       1.561   4.562  20.520  0.00  0.00    +0.000 A 
ATOM     22  C   UNL     1       1.152   3.621  19.586  0.00  0.00    +0.000 A 
ATOM     23  F   UNL     1       0.529   2.509  19.996  0.00  0.00    +0.000 F 
ATOM     24  C   UNL     1       1.376   3.817  18.230  0.00  0.00    +0.000 A 
ATOM     25  C   UNL     1       2.031   4.974  17.798  0.00  0.00    +0.000 A 
ENDBRANCH  18  19
ENDBRANCH   1  18
TORSDOF 2
ENDMDL
MODEL 4
REMARK VINA RESULT:      -7.5      3.048      7.866
REMARK  Name = 
REMARK  3 active torsions:
REMARK  status: ('A' for Active; 'I' for Inactive)
REMARK    1  A    between atoms: C_1  and  C_2
REMARK    2  A    between atoms: C_2  and  N_3
REMARK    3  A    between atoms: C_2  and  C_16
REMARK                            x       y       z     vdW  Elec       q    Type
REMARK                         _______ _______ _______ _____ _____    ______ ____
ROOT
ATOM      1  N   UNL     1       2.377   8.154  17.770  0.00  0.00    +0.000 N 
ATOM      2  C   UNL     1       1.557   8.923  18.564  0.00  0.00    +0.000 C 
ATOM      3  O   UNL     1       1.579   8.868  19.791  0.00  0.00    +0.000 OA
ATOM      4  N   UNL     1       0.692   9.686  17.817  0.00  0.00    +0.000 N 
ATOM      5  C   UNL     1      -0.297  10.490  18.402  0.00  0.00    +0.000 A 
ATOM      6  C   UNL     1      -0.020  11.280  19.517  0.00  0.00    +0.000 A 
ATOM      7  C   UNL     1      -1.102  12.012  19.998  0.00  0.00    +0.000 A 
ATOM      8  N   UNL     1      -1.227  12.896  21.037  0.00  0.00    +0.000 N 
ATOM      9  N   UNL     1      -2.475  13.373  21.199  0.00  0.00    +0.000 NA
ATOM     10  C   UNL     1      -3.167  12.775  20.225  0.00  0.00    +0.000 A 
ATOM     11  C   UNL     1      -2.365  11.932  19.428  0.00  0.00    +0.000 A 
ATOM     12  C   UNL     1      -2.547  11.119  18.310  0.00  0.00    +0.000 A 
ATOM     13  N   UNL     1      -1.495  10.439  17.781  0.00  0.00    +0.000 NA
ATOM     14  H   UNL     1       2.639   8.556  16.882  0.00  0.00    +0.000 HD
ATOM     15  H   UNL     1       0.371   9.250  16.965  0.00  0.00    +0.000 HD
ATOM     16  H   UNL     1      -0.503  13.216  21.669  0.00  0.00    +0.000 HD
ENDROOT
BRANCH   1  18
ATOM     17  C   UNL     1       4.461   6.848  17.466  0.00  0.00    +0.000 C 
ATOM     18  C   UNL     1       3.267   7.171  18.366  0.00  0.00    +0.000 C 
BRANCH  18  19
ATOM     19  C   UNL     1       2.497   5.924  18.767  0.00  0.00    +0.000 A 
ATOM     20  C   UNL     1       2.113   5.001  17.780  0.00  0.00    +0.000 A 
ATOM     21  C   UNL     1       1.386   3.857  18.114  0.00  0.00    +0.000 A 
ATOM     22  C   UNL     1       1.047   3.624  19.440  0.00  0.00    +0.000 A 
ATOM     23  F   UNL     1       0.349   2.527  19.761  0.00  0.00    +0.000 F 
ATOM     24  C   UNL     1       1.425   4.510  20.439  0.00  0.00    +0.000 A 
ATOM     25  C   UNL     1       2.149   5.659  20.107  0.00  0.00    +0.000 A 
ENDBRANCH  18  19
ENDBRANCH   1  18
TORSDOF 2
ENDMDL
MODEL 5
REMARK VINA RESULT:      -7.5      2.464      2.910
REMARK  Name = 
REMARK  3 active torsions:
REMARK  status: ('A' for Active; 'I' for Inactive)
REMARK    1  A    between atoms: C_1  and  C_2
REMARK    2  A    between atoms: C_2  and  N_3
REMARK    3  A    between atoms: C_2  and  C_16
REMARK                            x       y       z     vdW  Elec       q    Type
REMARK                         _______ _______ _______ _____ _____    ______ ____
ROOT
ATOM      1  N   UNL     1       1.785   8.514  19.260  0.00  0.00    +0.000 N 
ATOM      2  C   UNL     1       2.526   7.968  18.237  0.00  0.00    +0.000 C 
ATOM      3  O   UNL     1       2.573   8.462  17.114  0.00  0.00    +0.000 OA
ATOM      4  N   UNL     1       3.132   6.794  18.616  0.00  0.00    +0.000 N 
ATOM      5  C   UNL     1       3.873   6.009  17.721  0.00  0.00    +0.000 A 
ATOM      6  C   UNL     1       4.775   6.586  16.828  0.00  0.00    +0.000 A 
ATOM      7  C   UNL     1       5.426   5.685  15.990  0.00  0.00    +0.000 A 
ATOM      8  N   UNL     1       6.373   5.854  15.015  0.00  0.00    +0.000 N 
ATOM      9  N   UNL     1       6.728   4.712  14.398  0.00  0.00    +0.000 NA
ATOM     10  C   UNL     1       5.985   3.783  15.007  0.00  0.00    +0.000 A 
ATOM     11  C   UNL     1       5.169   4.321  16.023  0.00  0.00    +0.000 A 
ATOM     12  C   UNL     1       4.254   3.833  16.955  0.00  0.00    +0.000 A 
ATOM     13  N   UNL     1       3.647   4.682  17.827  0.00  0.00    +0.000 NA
ATOM     14  H   UNL     1       2.140   8.366  20.193  0.00  0.00    +0.000 HD
ATOM     15  H   UNL     1       2.598   6.231  19.262  0.00  0.00    +0.000 HD
ATOM     16  H   UNL     1       6.817   6.717  14.724  0.00  0.00    +0.000 HD
ENDROOT
BRANCH   1  18
ATOM     17  C   UNL     1       1.744  10.850  18.432  0.00  0.00    +0.000 C 
ATOM     18  C   UNL     1       0.952   9.682  19.023  0.00  0.00    +0.000 C 
BRANCH  18  19
ATOM     19  C   UNL     1       0.207  10.076  20.288  0.00  0.00    +0.000 A 
ATOM     20  C   UNL     1      -0.507  11.285  20.322  0.00  0.00    +0.000 A 
ATOM     21  C   UNL     1      -1.183  11.684  21.476  0.00  0.00    +0.000 A 
ATOM     22  C   UNL     1      -1.156  10.873  22.601  0.00  0.00    +0.000 A 
ATOM     23  F   UNL     1      -1.803  11.256  23.709  0.00  0.00    +0.000 F 
ATOM     24  C   UNL     1      -0.470   9.666  22.594  0.00  0.00    +0.000 A 
ATOM     25  C   UNL     1       0.212   9.265  21.441  0.00  0.00    +0.000 A 
ENDBRANCH  18  19
ENDBRANCH   1  18
TORSDOF 2
ENDMDL
MODEL 6
REMARK VINA RESULT:      -7.4      2.466      2.977
REMARK  Name = 
REMARK  3 active torsions:
REMARK  status: ('A' for Active; 'I' for Inactive)
REMARK    1  A    between atoms: C_1  and  C_2
REMARK    2  A    between atoms: C_2  and  N_3
REMARK    3  A    between atoms: C_2  and  C_16
REMARK                            x       y       z     vdW  Elec       q    Type
REMARK                         _______ _______ _______ _____ _____    ______ ____
ROOT
ATOM      1  N   UNL     1       1.775   8.542  19.223  0.00  0.00    +0.000 N 
ATOM      2  C   UNL     1       2.527   7.991  18.210  0.00  0.00    +0.000 C 
ATOM      3  O   UNL     1       2.596   8.486  17.089  0.00  0.00    +0.000 OA
ATOM      4  N   UNL     1       3.116   6.810  18.597  0.00  0.00    +0.000 N 
ATOM      5  C   UNL     1       3.865   6.020  17.712  0.00  0.00    +0.000 A 
ATOM      6  C   UNL     1       4.785   6.591  16.834  0.00  0.00    +0.000 A 
ATOM      7  C   UNL     1       5.441   5.685  16.005  0.00  0.00    +0.000 A 
ATOM      8  N   UNL     1       6.405   5.847  15.046  0.00  0.00    +0.000 N 
ATOM      9  N   UNL     1       6.760   4.702  14.432  0.00  0.00    +0.000 NA
ATOM     10  C   UNL     1       5.999   3.780  15.028  0.00  0.00    +0.000 A 
ATOM     11  C   UNL     1       5.172   4.323  16.032  0.00  0.00    +0.000 A 
ATOM     12  C   UNL     1       4.238   3.842  16.949  0.00  0.00    +0.000 A 
ATOM     13  N   UNL     1       3.624   4.695  17.812  0.00  0.00    +0.000 NA
ATOM     14  H   UNL     1       2.114   8.389  20.161  0.00  0.00    +0.000 HD
ATOM     15  H   UNL     1       2.567   6.252  19.233  0.00  0.00    +0.000 HD
ATOM     16  H   UNL     1       6.861   6.706  14.763  0.00  0.00    +0.000 HD
ENDROOT
BRANCH   1  18
ATOM     17  C   UNL     1       1.761  10.866  18.362  0.00  0.00    +0.000 C 
ATOM     18  C   UNL     1       0.957   9.717  18.975  0.00  0.00    +0.000 C 
BRANCH  18  19
ATOM     19  C   UNL     1       0.226  10.139  20.239  0.00  0.00    +0.000 A 
ATOM     20  C   UNL     1       0.250   9.298  21.364  0.00  0.00    +0.000 A 
ATOM     21  C   UNL     1      -0.429   9.648  22.532  0.00  0.00    +0.000 A 
ATOM     22  C   UNL     1      -1.131  10.844  22.585  0.00  0.00    +0.000 A 
ATOM     23  F   UNL     1      -1.784  11.179  23.705  0.00  0.00    +0.000 F 
ATOM     24  C   UNL     1      -1.162  11.702  21.494  0.00  0.00    +0.000 A 
ATOM     25  C   UNL     1      -0.486  11.353  20.321  0.00  0.00    +0.000 A 
ENDBRANCH  18  19
ENDBRANCH   1  18
TORSDOF 2
ENDMDL
MODEL 7
REMARK VINA RESULT:      -7.4      3.022      7.854
REMARK  Name = 
REMARK  3 active torsions:
REMARK  status: ('A' for Active; 'I' for Inactive)
REMARK    1  A    between atoms: C_1  and  C_2
REMARK    2  A    between atoms: C_2  and  N_3
REMARK    3  A    between atoms: C_2  and  C_16
REMARK                            x       y       z     vdW  Elec       q    Type
REMARK                         _______ _______ _______ _____ _____    ______ ____
ROOT
ATOM      1  N   UNL     1       2.872   7.379  17.860  0.00  0.00    +0.000 N 
ATOM      2  C   UNL     1       2.081   8.211  18.620  0.00  0.00    +0.000 C 
ATOM      3  O   UNL     1       2.027   8.141  19.844  0.00  0.00    +0.000 OA
ATOM      4  N   UNL     1       1.332   9.058  17.837  0.00  0.00    +0.000 N 
ATOM      5  C   UNL     1       0.388   9.942  18.379  0.00  0.00    +0.000 A 
ATOM      6  C   UNL     1       0.670  10.691  19.520  0.00  0.00    +0.000 A 
ATOM      7  C   UNL     1      -0.368  11.512  19.951  0.00  0.00    +0.000 A 
ATOM      8  N   UNL     1      -0.472  12.392  20.996  0.00  0.00    +0.000 N 
ATOM      9  N   UNL     1      -1.680  12.979  21.095  0.00  0.00    +0.000 NA
ATOM     10  C   UNL     1      -2.365  12.457  20.074  0.00  0.00    +0.000 A 
ATOM     11  C   UNL     1      -1.599  11.554  19.310  0.00  0.00    +0.000 A 
ATOM     12  C   UNL     1      -1.787  10.774  18.170  0.00  0.00    +0.000 A 
ATOM     13  N   UNL     1      -0.772  10.006  17.691  0.00  0.00    +0.000 NA
ATOM     14  H   UNL     1       3.220   7.766  16.995  0.00  0.00    +0.000 HD
ATOM     15  H   UNL     1       1.023   8.663  16.961  0.00  0.00    +0.000 HD
ATOM     16  H   UNL     1       0.240  12.639  21.673  0.00  0.00    +0.000 HD
ENDROOT
BRANCH   1  18
ATOM     17  C   UNL     1       4.996   6.103  17.824  0.00  0.00    +0.000 C 
ATOM     18  C   UNL     1       3.634   6.314  18.489  0.00  0.00    +0.000 C 
BRANCH  18  19
ATOM     19  C   UNL     1       2.819   5.032  18.546  0.00  0.00    +0.000 A 
ATOM     20  C   UNL     1       2.952   4.083  17.519  0.00  0.00    +0.000 A 
ATOM     21  C   UNL     1       2.201   2.906  17.531  0.00  0.00    +0.000 A 
ATOM     22  C   UNL     1       1.318   2.668  18.575  0.00  0.00    +0.000 A 
ATOM     23  F   UNL     1       0.597   1.540  18.587  0.00  0.00    +0.000 F 
ATOM     24  C   UNL     1       1.176   3.581  19.611  0.00  0.00    +0.000 A 
ATOM     25  C   UNL     1       1.923   4.762  19.600  0.00  0.00    +0.000 A 
ENDBRANCH  18  19
ENDBRANCH   1  18
TORSDOF 2
ENDMDL
MODEL 8
REMARK VINA RESULT:      -7.4      2.025      2.484
REMARK  Name = 
REMARK  3 active torsions:
REMARK  status: ('A' for Active; 'I' for Inactive)
REMARK    1  A    between atoms: C_1  and  C_2
REMARK    2  A    between atoms: C_2  and  N_3
REMARK    3  A    between atoms: C_2  and  C_16
REMARK                            x       y       z     vdW  Elec       q    Type
REMARK                         _______ _______ _______ _____ _____    ______ ____
ROOT
ATOM      1  N   UNL     1       1.208   9.319  19.493  0.00  0.00    +0.000 N 
ATOM      2  C   UNL     1       1.846   8.132  19.211  0.00  0.00    +0.000 C 
ATOM      3  O   UNL     1       2.274   7.857  18.094  0.00  0.00    +0.000 OA
ATOM      4  N   UNL     1       1.874   7.296  20.302  0.00  0.00    +0.000 N 
ATOM      5  C   UNL     1       2.397   5.996  20.239  0.00  0.00    +0.000 A 
ATOM      6  C   UNL     1       3.592   5.730  19.572  0.00  0.00    +0.000 A 
ATOM      7  C   UNL     1       3.978   4.392  19.578  0.00  0.00    +0.000 A 
ATOM      8  N   UNL     1       5.071   3.747  19.062  0.00  0.00    +0.000 N 
ATOM      9  N   UNL     1       5.058   2.415  19.254  0.00  0.00    +0.000 NA
ATOM     10  C   UNL     1       3.920   2.207  19.922  0.00  0.00    +0.000 A 
ATOM     11  C   UNL     1       3.212   3.400  20.175  0.00  0.00    +0.000 A 
ATOM     12  C   UNL     1       2.033   3.763  20.825  0.00  0.00    +0.000 A 
ATOM     13  N   UNL     1       1.660   5.069  20.886  0.00  0.00    +0.000 NA
ATOM     14  H   UNL     1       1.309   9.664  20.436  0.00  0.00    +0.000 HD
ATOM     15  H   UNL     1       1.060   7.349  20.897  0.00  0.00    +0.000 HD
ATOM     16  H   UNL     1       5.857   4.155  18.571  0.00  0.00    +0.000 HD
ENDROOT
BRANCH   1  18
ATOM     17  C   UNL     1       1.774  11.559  18.597  0.00  0.00    +0.000 C 
ATOM     18  C   UNL     1       0.947  10.282  18.436  0.00  0.00    +0.000 C 
BRANCH  18  19
ATOM     19  C   UNL     1      -0.541  10.572  18.331  0.00  0.00    +0.000 A 
ATOM     20  C   UNL     1      -1.333   9.814  17.452  0.00  0.00    +0.000 A 
ATOM     21  C   UNL     1      -2.698  10.071  17.317  0.00  0.00    +0.000 A 
ATOM     22  C   UNL     1      -3.282  11.083  18.066  0.00  0.00    +0.000 A 
ATOM     23  F   UNL     1      -4.591  11.331  17.936  0.00  0.00    +0.000 F 
ATOM     24  C   UNL     1      -2.528  11.840  18.952  0.00  0.00    +0.000 A 
ATOM     25  C   UNL     1      -1.160  11.589  19.087  0.00  0.00    +0.000 A 
ENDBRANCH  18  19
ENDBRANCH   1  18
TORSDOF 2
ENDMDL
MODEL 9
REMARK VINA RESULT:      -7.3      7.411      8.570
REMARK  Name = 
REMARK  3 active torsions:
REMARK  status: ('A' for Active; 'I' for Inactive)
REMARK    1  A    between atoms: C_1  and  C_2
REMARK    2  A    between atoms: C_2  and  N_3
REMARK    3  A    between atoms: C_2  and  C_16
REMARK                            x       y       z     vdW  Elec       q    Type
REMARK                         _______ _______ _______ _____ _____    ______ ____
ROOT
ATOM      1  N   UNL     1       9.413   9.702  19.251  0.00  0.00    +0.000 N 
ATOM      2  C   UNL     1       8.534   8.934  18.520  0.00  0.00    +0.000 C 
ATOM      3  O   UNL     1       7.812   9.403  17.644  0.00  0.00    +0.000 OA
ATOM      4  N   UNL     1       8.527   7.626  18.942  0.00  0.00    +0.000 N 
ATOM      5  C   UNL     1       7.653   6.670  18.405  0.00  0.00    +0.000 A 
ATOM      6  C   UNL     1       7.423   6.589  17.033  0.00  0.00    +0.000 A 
ATOM      7  C   UNL     1       6.519   5.602  16.649  0.00  0.00    +0.000 A 
ATOM      8  N   UNL     1       6.056   5.205  15.422  0.00  0.00    +0.000 N 
ATOM      9  N   UNL     1       5.143   4.217  15.479  0.00  0.00    +0.000 NA
ATOM     10  C   UNL     1       5.027   3.974  16.787  0.00  0.00    +0.000 A 
ATOM     11  C   UNL     1       5.873   4.787  17.568  0.00  0.00    +0.000 A 
ATOM     12  C   UNL     1       6.171   4.936  18.923  0.00  0.00    +0.000 A 
ATOM     13  N   UNL     1       7.094   5.851  19.323  0.00  0.00    +0.000 NA
ATOM     14  H   UNL     1      10.246   9.234  19.576  0.00  0.00    +0.000 HD
ATOM     15  H   UNL     1       8.666   7.500  19.933  0.00  0.00    +0.000 HD
ATOM     16  H   UNL     1       6.321   5.564  14.513  0.00  0.00    +0.000 HD
ENDROOT
BRANCH   1  18
ATOM     17  C   UNL     1      10.724  11.579  18.304  0.00  0.00    +0.000 C 
ATOM     18  C   UNL     1       9.468  11.141  19.059  0.00  0.00    +0.000 C 
BRANCH  18  19
ATOM     19  C   UNL     1       9.314  11.866  20.385  0.00  0.00    +0.000 A 
ATOM     20  C   UNL     1       8.721  11.201  21.472  0.00  0.00    +0.000 A 
ATOM     21  C   UNL     1       8.547  11.847  22.697  0.00  0.00    +0.000 A 
ATOM     22  C   UNL     1       8.971  13.160  22.846  0.00  0.00    +0.000 A 
ATOM     23  F   UNL     1       8.803  13.781  24.020  0.00  0.00    +0.000 F 
ATOM     24  C   UNL     1       9.572  13.839  21.794  0.00  0.00    +0.000 A 
ATOM     25  C   UNL     1       9.745  13.197  20.565  0.00  0.00    +0.000 A 
ENDBRANCH  18  19
ENDBRANCH   1  18
TORSDOF 2
ENDMDL
