MODEL 1
REMARK VINA RESULT:      -8.9      0.000      0.000
REMARK  Name = 
REMARK  7 active torsions:
REMARK  status: ('A' for Active; 'I' for Inactive)
REMARK    1  A    between atoms: N_1  and  C_2
REMARK    2  A    between atoms: C_7  and  S_8
REMARK    3  A    between atoms: S_8  and  O_11
REMARK    4  A    between atoms: C_13  and  O_14
REMARK    5  A    between atoms: C_16  and  N_17
REMARK    6  A    between atoms: N_18  and  C_19
REMARK    7  A    between atoms: C_24  and  C_25
REMARK                            x       y       z     vdW  Elec       q    Type
REMARK                         _______ _______ _______ _____ _____    ______ ____
ROOT
ATOM      1  C   UNL     1       2.371   2.808  18.866  0.00  0.00    +0.000 A 
ATOM      2  C   UNL     1       1.524   2.739  19.971  0.00  0.00    +0.000 A 
ATOM      3  C   UNL     1       1.169   3.886  20.668  0.00  0.00    +0.000 A 
ATOM      4  C   UNL     1       1.605   5.143  20.248  0.00  0.00    +0.000 A 
ATOM      5  C   UNL     1       1.154   6.264  20.960  0.00  0.00    +0.000 A 
ATOM      6  C   UNL     1       1.516   7.546  20.558  0.00  0.00    +0.000 A 
ATOM      7  C   UNL     1       2.346   7.734  19.459  0.00  0.00    +0.000 A 
ATOM      8  C   UNL     1       2.805   6.617  18.753  0.00  0.00    +0.000 A 
ATOM      9  C   UNL     1       2.449   5.278  19.106  0.00  0.00    +0.000 A 
ATOM     10  C   UNL     1       2.838   4.074  18.407  0.00  0.00    +0.000 A 
ENDROOT
BRANCH   1  11
ATOM     11  N   UNL     1       2.527   1.633  18.095  0.00  0.00    +0.000 N 
ATOM     12  H   UNL     1       2.239   1.735  17.128  0.00  0.00    +0.000 HD
ATOM     13  H   UNL     1       2.065   0.836  18.539  0.00  0.00    +0.000 HD
ENDBRANCH   1  11
BRANCH   6  14
ATOM     14  S   UNL     1       0.822   8.950  21.381  0.00  0.00    +0.000 S 
ATOM     15  O   UNL     1       0.976  10.099  20.515  0.00  0.00    +0.000 OA
ATOM     16  O   UNL     1      -0.455   8.551  21.924  0.00  0.00    +0.000 OA
BRANCH  14  17
ATOM     17  O   UNL     1       1.835   9.220  22.609  0.00  0.00    +0.000 OA
ATOM     18  H   UNL     1       2.138  10.150  22.540  0.00  0.00    +0.000 HD
ENDBRANCH  14  17
ENDBRANCH   6  14
BRANCH   8  19
ATOM     19  O   UNL     1       3.610   6.852  17.669  0.00  0.00    +0.000 OA
ATOM     20  H   UNL     1       3.066   7.009  16.880  0.00  0.00    +0.000 HD
ENDBRANCH   8  19
BRANCH  10  21
ATOM     21  N   UNL     1       3.629   4.164  17.223  0.00  0.00    +0.000 NA
ATOM     22  N   UNL     1       4.844   3.913  17.421  0.00  0.00    +0.000 NA
BRANCH  22  23
ATOM     23  C   UNL     1       5.629   4.162  16.268  0.00  0.00    +0.000 A 
ATOM     24  C   UNL     1       5.240   3.628  15.025  0.00  0.00    +0.000 A 
ATOM     25  C   UNL     1       5.931   3.913  13.847  0.00  0.00    +0.000 A 
ATOM     26  C   UNL     1       7.025   4.764  13.880  0.00  0.00    +0.000 A 
ATOM     27  C   UNL     1       7.431   5.311  15.095  0.00  0.00    +0.000 A 
ATOM     28  C   UNL     1       6.748   5.014  16.299  0.00  0.00    +0.000 A 
BRANCH  28  29
ATOM     29  C   UNL     1       7.277   5.641  17.559  0.00  0.00    +0.000 C 
ATOM     30  F   UNL     1       6.351   5.954  18.504  0.00  0.00    +0.000 F 
ATOM     31  F   UNL     1       8.182   4.834  18.188  0.00  0.00    +0.000 F 
ATOM     32  F   UNL     1       7.952   6.802  17.310  0.00  0.00    +0.000 F 
ENDBRANCH  28  29
ENDBRANCH  22  23
ENDBRANCH  10  21
TORSDOF 7
ENDMDL
MODEL 2
REMARK VINA RESULT:      -8.8      0.113      1.093
REMARK  Name = 
REMARK  7 active torsions:
REMARK  status: ('A' for Active; 'I' for Inactive)
REMARK    1  A    between atoms: N_1  and  C_2
REMARK    2  A    between atoms: C_7  and  S_8
REMARK    3  A    between atoms: S_8  and  O_11
REMARK    4  A    between atoms: C_13  and  O_14
REMARK    5  A    between atoms: C_16  and  N_17
REMARK    6  A    between atoms: N_18  and  C_19
REMARK    7  A    between atoms: C_24  and  C_25
REMARK                            x       y       z     vdW  Elec       q    Type
REMARK                         _______ _______ _______ _____ _____    ______ ____
ROOT
ATOM      1  C   UNL     1       2.437   2.790  18.908  0.00  0.00    +0.000 A 
ATOM      2  C   UNL     1       1.595   2.698  20.015  0.00  0.00    +0.000 A 
ATOM      3  C   UNL     1       1.222   3.833  20.722  0.00  0.00    +0.000 A 
ATOM      4  C   UNL     1       1.635   5.101  20.311  0.00  0.00    +0.000 A 
ATOM      5  C   UNL     1       1.167   6.207  21.033  0.00  0.00    +0.000 A 
ATOM      6  C   UNL     1       1.505   7.499  20.640  0.00  0.00    +0.000 A 
ATOM      7  C   UNL     1       2.328   7.710  19.540  0.00  0.00    +0.000 A 
ATOM      8  C   UNL     1       2.804   6.607  18.824  0.00  0.00    +0.000 A 
ATOM      9  C   UNL     1       2.473   5.260  19.167  0.00  0.00    +0.000 A 
ATOM     10  C   UNL     1       2.881   4.068  18.458  0.00  0.00    +0.000 A 
ENDROOT
BRANCH   1  11
ATOM     11  N   UNL     1       2.612   1.625  18.126  0.00  0.00    +0.000 N 
ATOM     12  H   UNL     1       3.329   0.999  18.475  0.00  0.00    +0.000 HD
ATOM     13  H   UNL     1       2.769   1.860  17.144  0.00  0.00    +0.000 HD
ENDBRANCH   1  11
BRANCH   6  14
ATOM     14  S   UNL     1       0.789   8.884  21.476  0.00  0.00    +0.000 S 
ATOM     15  O   UNL     1      -0.582   8.554  21.799  0.00  0.00    +0.000 OA
ATOM     16  O   UNL     1       1.736   9.331  22.472  0.00  0.00    +0.000 OA
BRANCH  14  17
ATOM     17  O   UNL     1       0.683  10.017  20.332  0.00  0.00    +0.000 OA
ATOM     18  H   UNL     1       1.338  10.714  20.547  0.00  0.00    +0.000 HD
ENDBRANCH  14  17
ENDBRANCH   6  14
BRANCH   8  19
ATOM     19  O   UNL     1       3.601   6.865  17.739  0.00  0.00    +0.000 OA
ATOM     20  H   UNL     1       4.314   7.476  17.988  0.00  0.00    +0.000 HD
ENDBRANCH   8  19
BRANCH  10  21
ATOM     21  N   UNL     1       3.666   4.181  17.272  0.00  0.00    +0.000 NA
ATOM     22  N   UNL     1       4.875   3.894  17.452  0.00  0.00    +0.000 NA
BRANCH  22  23
ATOM     23  C   UNL     1       5.659   4.165  16.303  0.00  0.00    +0.000 A 
ATOM     24  C   UNL     1       5.266   3.659  15.049  0.00  0.00    +0.000 A 
ATOM     25  C   UNL     1       5.956   3.968  13.876  0.00  0.00    +0.000 A 
ATOM     26  C   UNL     1       7.053   4.814  13.926  0.00  0.00    +0.000 A 
ATOM     27  C   UNL     1       7.464   5.333  15.151  0.00  0.00    +0.000 A 
ATOM     28  C   UNL     1       6.782   5.012  16.350  0.00  0.00    +0.000 A 
BRANCH  28  29
ATOM     29  C   UNL     1       7.315   5.610  17.622  0.00  0.00    +0.000 C 
ATOM     30  F   UNL     1       8.186   4.837  18.324  0.00  0.00    +0.000 F 
ATOM     31  F   UNL     1       7.973   6.786  17.396  0.00  0.00    +0.000 F 
ATOM     32  F   UNL     1       6.317   5.925  18.499  0.00  0.00    +0.000 F 
ENDBRANCH  28  29
ENDBRANCH  22  23
ENDBRANCH  10  21
TORSDOF 7
ENDMDL
MODEL 3
REMARK VINA RESULT:      -7.8      0.977      1.386
REMARK  Name = 
REMARK  7 active torsions:
REMARK  status: ('A' for Active; 'I' for Inactive)
REMARK    1  A    between atoms: N_1  and  C_2
REMARK    2  A    between atoms: C_7  and  S_8
REMARK    3  A    between atoms: S_8  and  O_11
REMARK    4  A    between atoms: C_13  and  O_14
REMARK    5  A    between atoms: C_16  and  N_17
REMARK    6  A    between atoms: N_18  and  C_19
REMARK    7  A    between atoms: C_24  and  C_25
REMARK                            x       y       z     vdW  Elec       q    Type
REMARK                         _______ _______ _______ _____ _____    ______ ____
ROOT
ATOM      1  C   UNL     1       2.907   3.628  19.541  0.00  0.00    +0.000 A 
ATOM      2  C   UNL     1       2.118   3.731  20.686  0.00  0.00    +0.000 A 
ATOM      3  C   UNL     1       1.612   4.957  21.094  0.00  0.00    +0.000 A 
ATOM      4  C   UNL     1       1.832   6.110  20.339  0.00  0.00    +0.000 A 
ATOM      5  C   UNL     1       1.236   7.301  20.774  0.00  0.00    +0.000 A 
ATOM      6  C   UNL     1       1.379   8.472  20.035  0.00  0.00    +0.000 A 
ATOM      7  C   UNL     1       2.132   8.483  18.867  0.00  0.00    +0.000 A 
ATOM      8  C   UNL     1       2.736   7.297  18.436  0.00  0.00    +0.000 A 
ATOM      9  C   UNL     1       2.606   6.060  19.141  0.00  0.00    +0.000 A 
ATOM     10  C   UNL     1       3.155   4.783  18.744  0.00  0.00    +0.000 A 
ENDROOT
BRANCH   1  11
ATOM     11  N   UNL     1       3.219   2.327  19.083  0.00  0.00    +0.000 N 
ATOM     12  H   UNL     1       4.213   2.130  19.051  0.00  0.00    +0.000 HD
ATOM     13  H   UNL     1       2.773   2.136  18.183  0.00  0.00    +0.000 HD
ENDBRANCH   1  11
BRANCH   6  14
ATOM     14  S   UNL     1       0.502   9.929  20.524  0.00  0.00    +0.000 S 
ATOM     15  O   UNL     1       0.128   9.782  21.913  0.00  0.00    +0.000 OA
ATOM     16  O   UNL     1       1.241  11.069  20.034  0.00  0.00    +0.000 OA
BRANCH  14  17
ATOM     17  O   UNL     1      -0.889   9.837  19.710  0.00  0.00    +0.000 OA
ATOM     18  H   UNL     1      -0.821   9.074  19.097  0.00  0.00    +0.000 HD
ENDBRANCH  14  17
ENDBRANCH   6  14
BRANCH   8  19
ATOM     19  O   UNL     1       3.458   7.352  17.272  0.00  0.00    +0.000 OA
ATOM     20  H   UNL     1       3.684   8.273  17.065  0.00  0.00    +0.000 HD
ENDBRANCH   8  19
BRANCH  10  21
ATOM     21  N   UNL     1       3.883   4.673  17.522  0.00  0.00    +0.000 NA
ATOM     22  N   UNL     1       5.119   4.536  17.694  0.00  0.00    +0.000 NA
BRANCH  22  23
ATOM     23  C   UNL     1       5.831   4.586  16.470  0.00  0.00    +0.000 A 
ATOM     24  C   UNL     1       5.485   3.715  15.419  0.00  0.00    +0.000 A 
ATOM     25  C   UNL     1       6.098   3.783  14.167  0.00  0.00    +0.000 A 
ATOM     26  C   UNL     1       7.067   4.745  13.928  0.00  0.00    +0.000 A 
ATOM     27  C   UNL     1       7.428   5.623  14.947  0.00  0.00    +0.000 A 
ATOM     28  C   UNL     1       6.825   5.552  16.225  0.00  0.00    +0.000 A 
BRANCH  28  29
ATOM     29  C   UNL     1       7.298   6.534  17.261  0.00  0.00    +0.000 C 
ATOM     30  F   UNL     1       6.328   7.243  17.897  0.00  0.00    +0.000 F 
ATOM     31  F   UNL     1       8.012   5.923  18.253  0.00  0.00    +0.000 F 
ATOM     32  F   UNL     1       8.148   7.465  16.735  0.00  0.00    +0.000 F 
ENDBRANCH  28  29
ENDBRANCH  22  23
ENDBRANCH  10  21
TORSDOF 7
ENDMDL
MODEL 4
REMARK VINA RESULT:      -7.7      1.572      2.100
REMARK  Name = 
REMARK  7 active torsions:
REMARK  status: ('A' for Active; 'I' for Inactive)
REMARK    1  A    between atoms: N_1  and  C_2
REMARK    2  A    between atoms: C_7  and  S_8
REMARK    3  A    between atoms: S_8  and  O_11
REMARK    4  A    between atoms: C_13  and  O_14
REMARK    5  A    between atoms: C_16  and  N_17
REMARK    6  A    between atoms: N_18  and  C_19
REMARK    7  A    between atoms: C_24  and  C_25
REMARK                            x       y       z     vdW  Elec       q    Type
REMARK                         _______ _______ _______ _____ _____    ______ ____
ROOT
ATOM      1  C   UNL     1       2.775   4.746  19.736  0.00  0.00    +0.000 A 
ATOM      2  C   UNL     1       1.980   5.030  20.845  0.00  0.00    +0.000 A 
ATOM      3  C   UNL     1       1.462   6.302  21.042  0.00  0.00    +0.000 A 
ATOM      4  C   UNL     1       1.677   7.316  20.107  0.00  0.00    +0.000 A 
ATOM      5  C   UNL     1       1.069   8.558  20.338  0.00  0.00    +0.000 A 
ATOM      6  C   UNL     1       1.207   9.592  19.415  0.00  0.00    +0.000 A 
ATOM      7  C   UNL     1       1.966   9.415  18.265  0.00  0.00    +0.000 A 
ATOM      8  C   UNL     1       2.582   8.179  18.038  0.00  0.00    +0.000 A 
ATOM      9  C   UNL     1       2.458   7.076  18.938  0.00  0.00    +0.000 A 
ATOM     10  C   UNL     1       3.019   5.755  18.760  0.00  0.00    +0.000 A 
ENDROOT
BRANCH   1  11
ATOM     11  N   UNL     1       3.100   3.390  19.501  0.00  0.00    +0.000 N 
ATOM     12  H   UNL     1       2.629   2.741  20.121  0.00  0.00    +0.000 HD
ATOM     13  H   UNL     1       4.112   3.246  19.511  0.00  0.00    +0.000 HD
ENDBRANCH   1  11
BRANCH   6  14
ATOM     14  S   UNL     1       0.316  11.102  19.653  0.00  0.00    +0.000 S 
ATOM     15  O   UNL     1      -1.084  10.776  19.811  0.00  0.00    +0.000 OA
ATOM     16  O   UNL     1       1.045  11.892  20.618  0.00  0.00    +0.000 OA
BRANCH  14  17
ATOM     17  O   UNL     1       0.410  11.838  18.219  0.00  0.00    +0.000 OA
ATOM     18  H   UNL     1      -0.409  11.623  17.725  0.00  0.00    +0.000 HD
ENDBRANCH  14  17
ENDBRANCH   6  14
BRANCH   8  19
ATOM     19  O   UNL     1       3.310   8.048  16.884  0.00  0.00    +0.000 OA
ATOM     20  H   UNL     1       4.066   8.657  16.897  0.00  0.00    +0.000 HD
ENDBRANCH   8  19
BRANCH  10  21
ATOM     21  N   UNL     1       3.754   5.450  17.575  0.00  0.00    +0.000 NA
ATOM     22  N   UNL     1       4.892   4.974  17.810  0.00  0.00    +0.000 NA
BRANCH  22  23
ATOM     23  C   UNL     1       5.657   4.828  16.626  0.00  0.00    +0.000 A 
ATOM     24  C   UNL     1       5.295   3.859  15.671  0.00  0.00    +0.000 A 
ATOM     25  C   UNL     1       5.964   3.733  14.453  0.00  0.00    +0.000 A 
ATOM     26  C   UNL     1       7.007   4.593  14.149  0.00  0.00    +0.000 A 
ATOM     27  C   UNL     1       7.386   5.564  15.073  0.00  0.00    +0.000 A 
ATOM     28  C   UNL     1       6.725   5.690  16.318  0.00  0.00    +0.000 A 
BRANCH  28  29
ATOM     29  C   UNL     1       7.222   6.758  17.252  0.00  0.00    +0.000 C 
ATOM     30  F   UNL     1       6.282   7.616  17.732  0.00  0.00    +0.000 F 
ATOM     31  F   UNL     1       7.829   6.228  18.356  0.00  0.00    +0.000 F 
ATOM     32  F   UNL     1       8.174   7.547  16.670  0.00  0.00    +0.000 F 
ENDBRANCH  28  29
ENDBRANCH  22  23
ENDBRANCH  10  21
TORSDOF 7
ENDMDL
MODEL 5
REMARK VINA RESULT:      -7.6      3.227      4.496
REMARK  Name = 
REMARK  7 active torsions:
REMARK  status: ('A' for Active; 'I' for Inactive)
REMARK    1  A    between atoms: N_1  and  C_2
REMARK    2  A    between atoms: C_7  and  S_8
REMARK    3  A    between atoms: S_8  and  O_11
REMARK    4  A    between atoms: C_13  and  O_14
REMARK    5  A    between atoms: C_16  and  N_17
REMARK    6  A    between atoms: N_18  and  C_19
REMARK    7  A    between atoms: C_24  and  C_25
REMARK                            x       y       z     vdW  Elec       q    Type
REMARK                         _______ _______ _______ _____ _____    ______ ____
ROOT
ATOM      1  C   UNL     1       1.749   6.940  20.839  0.00  0.00    +0.000 A 
ATOM      2  C   UNL     1       0.757   7.431  21.685  0.00  0.00    +0.000 A 
ATOM      3  C   UNL     1       0.136   8.645  21.424  0.00  0.00    +0.000 A 
ATOM      4  C   UNL     1       0.450   9.379  20.280  0.00  0.00    +0.000 A 
ATOM      5  C   UNL     1      -0.263  10.563  20.046  0.00  0.00    +0.000 A 
ATOM      6  C   UNL     1      -0.029  11.311  18.895  0.00  0.00    +0.000 A 
ATOM      7  C   UNL     1       0.929  10.907  17.973  0.00  0.00    +0.000 A 
ATOM      8  C   UNL     1       1.649   9.731  18.210  0.00  0.00    +0.000 A 
ATOM      9  C   UNL     1       1.436   8.911  19.361  0.00  0.00    +0.000 A 
ATOM     10  C   UNL     1       2.098   7.661  19.660  0.00  0.00    +0.000 A 
ENDROOT
BRANCH   1  11
ATOM     11  N   UNL     1       2.191   5.614  21.058  0.00  0.00    +0.000 N 
ATOM     12  H   UNL     1       2.177   5.034  20.227  0.00  0.00    +0.000 HD
ATOM     13  H   UNL     1       1.678   5.177  21.827  0.00  0.00    +0.000 HD
ENDBRANCH   1  11
BRANCH   6  14
ATOM     14  S   UNL     1      -1.037  12.722  18.548  0.00  0.00    +0.000 S 
ATOM     15  O   UNL     1      -2.184  12.682  19.429  0.00  0.00    +0.000 OA
ATOM     16  O   UNL     1      -0.165  13.871  18.460  0.00  0.00    +0.000 OA
BRANCH  14  17
ATOM     17  O   UNL     1      -1.633  12.423  17.078  0.00  0.00    +0.000 OA
ATOM     18  H   UNL     1      -1.131  12.973  16.441  0.00  0.00    +0.000 HD
ENDBRANCH  14  17
ENDBRANCH   6  14
BRANCH   8  19
ATOM     19  O   UNL     1       2.574   9.365  17.267  0.00  0.00    +0.000 OA
ATOM     20  H   UNL     1       3.448   9.715  17.505  0.00  0.00    +0.000 HD
ENDBRANCH   8  19
BRANCH  10  21
ATOM     21  N   UNL     1       3.046   7.122  18.739  0.00  0.00    +0.000 NA
ATOM     22  N   UNL     1       2.630   6.097  18.145  0.00  0.00    +0.000 NA
BRANCH  22  23
ATOM     23  C   UNL     1       3.642   5.495  17.359  0.00  0.00    +0.000 A 
ATOM     24  C   UNL     1       4.606   6.298  16.719  0.00  0.00    +0.000 A 
ATOM     25  C   UNL     1       5.671   5.749  16.003  0.00  0.00    +0.000 A 
ATOM     26  C   UNL     1       5.812   4.372  15.927  0.00  0.00    +0.000 A 
ATOM     27  C   UNL     1       4.876   3.552  16.553  0.00  0.00    +0.000 A 
ATOM     28  C   UNL     1       3.782   4.097  17.267  0.00  0.00    +0.000 A 
BRANCH  28  29
ATOM     29  C   UNL     1       2.819   3.126  17.891  0.00  0.00    +0.000 C 
ATOM     30  F   UNL     1       1.500   3.364  17.662  0.00  0.00    +0.000 F 
ATOM     31  F   UNL     1       3.038   1.847  17.464  0.00  0.00    +0.000 F 
ATOM     32  F   UNL     1       2.951   3.074  19.249  0.00  0.00    +0.000 F 
ENDBRANCH  28  29
ENDBRANCH  22  23
ENDBRANCH  10  21
TORSDOF 7
ENDMDL
MODEL 6
REMARK VINA RESULT:      -7.5      4.614      7.725
REMARK  Name = 
REMARK  7 active torsions:
REMARK  status: ('A' for Active; 'I' for Inactive)
REMARK    1  A    between atoms: N_1  and  C_2
REMARK    2  A    between atoms: C_7  and  S_8
REMARK    3  A    between atoms: S_8  and  O_11
REMARK    4  A    between atoms: C_13  and  O_14
REMARK    5  A    between atoms: C_16  and  N_17
REMARK    6  A    between atoms: N_18  and  C_19
REMARK    7  A    between atoms: C_24  and  C_25
REMARK                            x       y       z     vdW  Elec       q    Type
REMARK                         _______ _______ _______ _____ _____    ______ ____
ROOT
ATOM      1  C   UNL     1       2.047   5.809  20.322  0.00  0.00    +0.000 A 
ATOM      2  C   UNL     1       2.665   4.570  20.482  0.00  0.00    +0.000 A 
ATOM      3  C   UNL     1       3.631   4.135  19.584  0.00  0.00    +0.000 A 
ATOM      4  C   UNL     1       4.047   4.950  18.530  0.00  0.00    +0.000 A 
ATOM      5  C   UNL     1       5.072   4.474  17.701  0.00  0.00    +0.000 A 
ATOM      6  C   UNL     1       5.564   5.263  16.664  0.00  0.00    +0.000 A 
ATOM      7  C   UNL     1       5.031   6.523  16.423  0.00  0.00    +0.000 A 
ATOM      8  C   UNL     1       4.000   6.996  17.243  0.00  0.00    +0.000 A 
ATOM      9  C   UNL     1       3.471   6.241  18.335  0.00  0.00    +0.000 A 
ATOM     10  C   UNL     1       2.445   6.669  19.258  0.00  0.00    +0.000 A 
ENDROOT
BRANCH   1  11
ATOM     11  N   UNL     1       1.225   6.264  21.379  0.00  0.00    +0.000 N 
ATOM     12  H   UNL     1       0.487   5.617  21.634  0.00  0.00    +0.000 HD
ATOM     13  H   UNL     1       0.851   7.195  21.180  0.00  0.00    +0.000 HD
ENDBRANCH   1  11
BRANCH   6  14
ATOM     14  S   UNL     1       6.952   4.704  15.721  0.00  0.00    +0.000 S 
ATOM     15  O   UNL     1       6.519   3.595  14.900  0.00  0.00    +0.000 OA
ATOM     16  O   UNL     1       7.606   5.870  15.173  0.00  0.00    +0.000 OA
BRANCH  14  17
ATOM     17  O   UNL     1       7.930   4.044  16.823  0.00  0.00    +0.000 OA
ATOM     18  H   UNL     1       8.155   3.142  16.513  0.00  0.00    +0.000 HD
ENDBRANCH  14  17
ENDBRANCH   6  14
BRANCH   8  19
ATOM     19  O   UNL     1       3.515   8.250  16.975  0.00  0.00    +0.000 OA
ATOM     20  H   UNL     1       3.522   8.788  17.783  0.00  0.00    +0.000 HD
ENDBRANCH   8  19
BRANCH  10  21
ATOM     21  N   UNL     1       1.885   7.976  19.140  0.00  0.00    +0.000 NA
ATOM     22  N   UNL     1       1.597   8.492  20.249  0.00  0.00    +0.000 NA
BRANCH  22  23
ATOM     23  C   UNL     1       0.902   9.717  20.097  0.00  0.00    +0.000 A 
ATOM     24  C   UNL     1       1.004  10.438  18.892  0.00  0.00    +0.000 A 
ATOM     25  C   UNL     1       0.274  11.604  18.662  0.00  0.00    +0.000 A 
ATOM     26  C   UNL     1      -0.600  12.071  19.631  0.00  0.00    +0.000 A 
ATOM     27  C   UNL     1      -0.725  11.378  20.832  0.00  0.00    +0.000 A 
ATOM     28  C   UNL     1       0.024  10.203  21.083  0.00  0.00    +0.000 A 
BRANCH  28  29
ATOM     29  C   UNL     1      -0.171   9.538  22.418  0.00  0.00    +0.000 C 
ATOM     30  F   UNL     1       0.963   9.215  23.094  0.00  0.00    +0.000 F 
ATOM     31  F   UNL     1      -0.896  10.319  23.274  0.00  0.00    +0.000 F 
ATOM     32  F   UNL     1      -0.879   8.375  22.314  0.00  0.00    +0.000 F 
ENDBRANCH  28  29
ENDBRANCH  22  23
ENDBRANCH  10  21
TORSDOF 7
ENDMDL
MODEL 7
REMARK VINA RESULT:      -7.5      1.682      2.168
REMARK  Name = 
REMARK  7 active torsions:
REMARK  status: ('A' for Active; 'I' for Inactive)
REMARK    1  A    between atoms: N_1  and  C_2
REMARK    2  A    between atoms: C_7  and  S_8
REMARK    3  A    between atoms: S_8  and  O_11
REMARK    4  A    between atoms: C_13  and  O_14
REMARK    5  A    between atoms: C_16  and  N_17
REMARK    6  A    between atoms: N_18  and  C_19
REMARK    7  A    between atoms: C_24  and  C_25
REMARK                            x       y       z     vdW  Elec       q    Type
REMARK                         _______ _______ _______ _____ _____    ______ ____
ROOT
ATOM      1  C   UNL     1       2.686   4.968  19.841  0.00  0.00    +0.000 A 
ATOM      2  C   UNL     1       1.890   5.302  20.935  0.00  0.00    +0.000 A 
ATOM      3  C   UNL     1       1.375   6.583  21.076  0.00  0.00    +0.000 A 
ATOM      4  C   UNL     1       1.596   7.555  20.099  0.00  0.00    +0.000 A 
ATOM      5  C   UNL     1       0.992   8.808  20.274  0.00  0.00    +0.000 A 
ATOM      6  C   UNL     1       1.135   9.800  19.308  0.00  0.00    +0.000 A 
ATOM      7  C   UNL     1       1.896   9.572  18.168  0.00  0.00    +0.000 A 
ATOM      8  C   UNL     1       2.508   8.325  17.996  0.00  0.00    +0.000 A 
ATOM      9  C   UNL     1       2.378   7.262  18.942  0.00  0.00    +0.000 A 
ATOM     10  C   UNL     1       2.935   5.933  18.822  0.00  0.00    +0.000 A 
ENDROOT
BRANCH   1  11
ATOM     11  N   UNL     1       3.007   3.601  19.665  0.00  0.00    +0.000 N 
ATOM     12  H   UNL     1       3.512   3.194  20.444  0.00  0.00    +0.000 HD
ATOM     13  H   UNL     1       3.498   3.449  18.782  0.00  0.00    +0.000 HD
ENDBRANCH   1  11
BRANCH   6  14
ATOM     14  S   UNL     1       0.249  11.322  19.479  0.00  0.00    +0.000 S 
ATOM     15  O   UNL     1       0.873  12.303  18.618  0.00  0.00    +0.000 OA
ATOM     16  O   UNL     1      -1.162  11.016  19.415  0.00  0.00    +0.000 OA
BRANCH  14  17
ATOM     17  O   UNL     1       0.596  11.808  20.979  0.00  0.00    +0.000 OA
ATOM     18  H   UNL     1       0.866  12.749  20.927  0.00  0.00    +0.000 HD
ENDBRANCH  14  17
ENDBRANCH   6  14
BRANCH   8  19
ATOM     19  O   UNL     1       3.237   8.141  16.850  0.00  0.00    +0.000 OA
ATOM     20  H   UNL     1       4.087   8.606  16.919  0.00  0.00    +0.000 HD
ENDBRANCH   8  19
BRANCH  10  21
ATOM     21  N   UNL     1       3.671   5.575  17.654  0.00  0.00    +0.000 NA
ATOM     22  N   UNL     1       4.817   5.129  17.909  0.00  0.00    +0.000 NA
BRANCH  22  23
ATOM     23  C   UNL     1       5.580   4.930  16.733  0.00  0.00    +0.000 A 
ATOM     24  C   UNL     1       5.191   3.950  15.800  0.00  0.00    +0.000 A 
ATOM     25  C   UNL     1       5.860   3.772  14.588  0.00  0.00    +0.000 A 
ATOM     26  C   UNL     1       6.930   4.593  14.267  0.00  0.00    +0.000 A 
ATOM     27  C   UNL     1       7.336   5.574  15.168  0.00  0.00    +0.000 A 
ATOM     28  C   UNL     1       6.676   5.751  16.408  0.00  0.00    +0.000 A 
BRANCH  28  29
ATOM     29  C   UNL     1       7.203   6.826  17.317  0.00  0.00    +0.000 C 
ATOM     30  F   UNL     1       7.730   6.404  18.497  0.00  0.00    +0.000 F 
ATOM     31  F   UNL     1       8.189   7.560  16.720  0.00  0.00    +0.000 F 
ATOM     32  F   UNL     1       6.239   7.734  17.651  0.00  0.00    +0.000 F 
ENDBRANCH  28  29
ENDBRANCH  22  23
ENDBRANCH  10  21
TORSDOF 7
ENDMDL
MODEL 8
REMARK VINA RESULT:      -7.5      2.064      2.689
REMARK  Name = 
REMARK  7 active torsions:
REMARK  status: ('A' for Active; 'I' for Inactive)
REMARK    1  A    between atoms: N_1  and  C_2
REMARK    2  A    between atoms: C_7  and  S_8
REMARK    3  A    between atoms: S_8  and  O_11
REMARK    4  A    between atoms: C_13  and  O_14
REMARK    5  A    between atoms: C_16  and  N_17
REMARK    6  A    between atoms: N_18  and  C_19
REMARK    7  A    between atoms: C_24  and  C_25
REMARK                            x       y       z     vdW  Elec       q    Type
REMARK                         _______ _______ _______ _____ _____    ______ ____
ROOT
ATOM      1  C   UNL     1       2.249   5.502  20.135  0.00  0.00    +0.000 A 
ATOM      2  C   UNL     1       1.433   6.032  21.133  0.00  0.00    +0.000 A 
ATOM      3  C   UNL     1       1.034   7.360  21.095  0.00  0.00    +0.000 A 
ATOM      4  C   UNL     1       1.393   8.186  20.029  0.00  0.00    +0.000 A 
ATOM      5  C   UNL     1       0.900   9.498  20.023  0.00  0.00    +0.000 A 
ATOM      6  C   UNL     1       1.182  10.352  18.960  0.00  0.00    +0.000 A 
ATOM      7  C   UNL     1       1.975   9.924  17.902  0.00  0.00    +0.000 A 
ATOM      8  C   UNL     1       2.476   8.618  17.911  0.00  0.00    +0.000 A 
ATOM      9  C   UNL     1       2.201   7.690  18.963  0.00  0.00    +0.000 A 
ATOM     10  C   UNL     1       2.636   6.314  19.029  0.00  0.00    +0.000 A 
ENDROOT
BRANCH   1  11
ATOM     11  N   UNL     1       2.449   4.102  20.136  0.00  0.00    +0.000 N 
ATOM     12  H   UNL     1       1.918   3.611  20.847  0.00  0.00    +0.000 HD
ATOM     13  H   UNL     1       3.444   3.872  20.189  0.00  0.00    +0.000 HD
ENDBRANCH   1  11
BRANCH   6  14
ATOM     14  S   UNL     1       0.435  11.954  18.902  0.00  0.00    +0.000 S 
ATOM     15  O   UNL     1      -0.851  11.826  18.251  0.00  0.00    +0.000 OA
ATOM     16  O   UNL     1       0.589  12.557  20.206  0.00  0.00    +0.000 OA
BRANCH  14  17
ATOM     17  O   UNL     1       1.349  12.772  17.853  0.00  0.00    +0.000 OA
ATOM     18  H   UNL     1       0.956  12.650  16.963  0.00  0.00    +0.000 HD
ENDBRANCH  14  17
ENDBRANCH   6  14
BRANCH   8  19
ATOM     19  O   UNL     1       3.241   8.236  16.840  0.00  0.00    +0.000 OA
ATOM     20  H   UNL     1       4.149   8.052  17.129  0.00  0.00    +0.000 HD
ENDBRANCH   8  19
BRANCH  10  21
ATOM     21  N   UNL     1       3.393   5.756  17.956  0.00  0.00    +0.000 NA
ATOM     22  N   UNL     1       4.588   5.523  18.263  0.00  0.00    +0.000 NA
BRANCH  22  23
ATOM     23  C   UNL     1       5.353   5.120  17.141  0.00  0.00    +0.000 A 
ATOM     24  C   UNL     1       4.710   4.806  15.928  0.00  0.00    +0.000 A 
ATOM     25  C   UNL     1       5.423   4.485  14.772  0.00  0.00    +0.000 A 
ATOM     26  C   UNL     1       6.809   4.492  14.795  0.00  0.00    +0.000 A 
ATOM     27  C   UNL     1       7.473   4.801  15.979  0.00  0.00    +0.000 A 
ATOM     28  C   UNL     1       6.760   5.111  17.162  0.00  0.00    +0.000 A 
BRANCH  28  29
ATOM     29  C   UNL     1       7.571   5.414  18.391  0.00  0.00    +0.000 C 
ATOM     30  F   UNL     1       6.898   5.385  19.572  0.00  0.00    +0.000 F 
ATOM     31  F   UNL     1       8.611   4.541  18.543  0.00  0.00    +0.000 F 
ATOM     32  F   UNL     1       8.152   6.649  18.331  0.00  0.00    +0.000 F 
ENDBRANCH  28  29
ENDBRANCH  22  23
ENDBRANCH  10  21
TORSDOF 7
ENDMDL
MODEL 9
REMARK VINA RESULT:      -7.4      4.302      7.391
REMARK  Name = 
REMARK  7 active torsions:
REMARK  status: ('A' for Active; 'I' for Inactive)
REMARK    1  A    between atoms: N_1  and  C_2
REMARK    2  A    between atoms: C_7  and  S_8
REMARK    3  A    between atoms: S_8  and  O_11
REMARK    4  A    between atoms: C_13  and  O_14
REMARK    5  A    between atoms: C_16  and  N_17
REMARK    6  A    between atoms: N_18  and  C_19
REMARK    7  A    between atoms: C_24  and  C_25
REMARK                            x       y       z     vdW  Elec       q    Type
REMARK                         _______ _______ _______ _____ _____    ______ ____
ROOT
ATOM      1  C   UNL     1       1.875   5.056  19.644  0.00  0.00    +0.000 A 
ATOM      2  C   UNL     1       2.149   3.746  19.255  0.00  0.00    +0.000 A 
ATOM      3  C   UNL     1       3.057   3.480  18.240  0.00  0.00    +0.000 A 
ATOM      4  C   UNL     1       3.760   4.514  17.619  0.00  0.00    +0.000 A 
ATOM      5  C   UNL     1       4.710   4.167  16.648  0.00  0.00    +0.000 A 
ATOM      6  C   UNL     1       5.478   5.151  16.031  0.00  0.00    +0.000 A 
ATOM      7  C   UNL     1       5.299   6.491  16.353  0.00  0.00    +0.000 A 
ATOM      8  C   UNL     1       4.345   6.840  17.315  0.00  0.00    +0.000 A 
ATOM      9  C   UNL     1       3.544   5.872  17.997  0.00  0.00    +0.000 A 
ATOM     10  C   UNL     1       2.572   6.138  19.034  0.00  0.00    +0.000 A 
ENDROOT
BRANCH   1  11
ATOM     11  N   UNL     1       1.094   5.237  20.810  0.00  0.00    +0.000 N 
ATOM     12  H   UNL     1       1.564   5.757  21.542  0.00  0.00    +0.000 HD
ATOM     13  H   UNL     1       0.739   4.344  21.158  0.00  0.00    +0.000 HD
ENDBRANCH   1  11
BRANCH   6  14
ATOM     14  S   UNL     1       6.767   4.684  14.915  0.00  0.00    +0.000 S 
ATOM     15  O   UNL     1       6.801   5.650  13.839  0.00  0.00    +0.000 OA
ATOM     16  O   UNL     1       7.932   4.358  15.704  0.00  0.00    +0.000 OA
BRANCH  14  17
ATOM     17  O   UNL     1       6.219   3.326  14.234  0.00  0.00    +0.000 OA
ATOM     18  H   UNL     1       6.644   3.247  13.354  0.00  0.00    +0.000 HD
ENDBRANCH  14  17
ENDBRANCH   6  14
BRANCH   8  19
ATOM     19  O   UNL     1       4.213   8.172  17.609  0.00  0.00    +0.000 OA
ATOM     20  H   UNL     1       4.549   8.349  18.503  0.00  0.00    +0.000 HD
ENDBRANCH   8  19
BRANCH  10  21
ATOM     21  N   UNL     1       2.367   7.476  19.488  0.00  0.00    +0.000 NA
ATOM     22  N   UNL     1       1.308   7.988  19.051  0.00  0.00    +0.000 NA
BRANCH  22  23
ATOM     23  C   UNL     1       1.208   9.361  19.388  0.00  0.00    +0.000 A 
ATOM     24  C   UNL     1       1.575  10.343  18.448  0.00  0.00    +0.000 A 
ATOM     25  C   UNL     1       1.416  11.706  18.700  0.00  0.00    +0.000 A 
ATOM     26  C   UNL     1       0.861  12.124  19.900  0.00  0.00    +0.000 A 
ATOM     27  C   UNL     1       0.484  11.175  20.848  0.00  0.00    +0.000 A 
ATOM     28  C   UNL     1       0.658   9.790  20.610  0.00  0.00    +0.000 A 
BRANCH  28  29
ATOM     29  C   UNL     1       0.235   8.850  21.704  0.00  0.00    +0.000 C 
ATOM     30  F   UNL     1      -0.680   7.906  21.358  0.00  0.00    +0.000 F 
ATOM     31  F   UNL     1       1.296   8.158  22.218  0.00  0.00    +0.000 F 
ATOM     32  F   UNL     1      -0.306   9.511  22.769  0.00  0.00    +0.000 F 
ENDBRANCH  28  29
ENDBRANCH  22  23
ENDBRANCH  10  21
TORSDOF 7
ENDMDL
