MODEL 1
REMARK VINA RESULT:      -7.5      0.000      0.000
REMARK  Name = 
REMARK  5 active torsions:
REMARK  status: ('A' for Active; 'I' for Inactive)
REMARK    1  A    between atoms: C_1  and  C_2
REMARK    2  A    between atoms: C_2  and  C_3
REMARK    3  A    between atoms: C_5  and  C_6
REMARK    4  A    between atoms: C_14  and  N_15
REMARK    5  A    between atoms: C_16  and  C_18
REMARK                            x       y       z     vdW  Elec       q    Type
REMARK                         _______ _______ _______ _____ _____    ______ ____
ROOT
ATOM      1  C   UNL     1       2.145   7.476  19.258  0.00  0.00    +0.000 A 
ATOM      2  C   UNL     1       2.175   8.117  17.998  0.00  0.00    +0.000 A 
ATOM      3  C   UNL     1       1.668   9.407  17.826  0.00  0.00    +0.000 A 
ATOM      4  C   UNL     1       1.119  10.048  18.923  0.00  0.00    +0.000 A 
ATOM      5  C   UNL     1       1.082   9.426  20.175  0.00  0.00    +0.000 A 
ATOM      6  C   UNL     1       1.593   8.149  20.360  0.00  0.00    +0.000 A 
ATOM      7  C   UNL     1       0.471  10.329  21.200  0.00  0.00    +0.000 C 
ATOM      8  C   UNL     1      -0.287  11.326  20.307  0.00  0.00    +0.000 C 
ATOM      9  C   UNL     1       0.486  11.410  18.974  0.00  0.00    +0.000 C 
ENDROOT
BRANCH   1  12
ATOM     10  C   UNL     1       2.956   4.177  20.108  0.00  0.00    +0.000 A 
ATOM     11  N   UNL     1       2.276   5.266  20.377  0.00  0.00    +0.000 NA
ATOM     12  C   UNL     1       2.712   6.139  19.403  0.00  0.00    +0.000 A 
ATOM     13  N   UNL     1       3.650   5.621  18.591  0.00  0.00    +0.000 NA
ATOM     14  O   UNL     1       3.810   4.318  19.057  0.00  0.00    +0.000 OA
BRANCH  10  16
ATOM     15  C   UNL     1       1.597   2.741  21.575  0.00  0.00    +0.000 C 
ATOM     16  C   UNL     1       2.850   2.835  20.718  0.00  0.00    +0.000 C 
ENDBRANCH  10  16
ENDBRANCH   1  12
BRANCH   9  17
ATOM     17  N   UNL     1       1.477  12.468  18.964  0.00  0.00    +0.000 N 
ATOM     18  C   UNL     1       1.099  13.755  18.642  0.00  0.00    +0.000 C 
ATOM     19  O   UNL     1      -0.049  14.055  18.335  0.00  0.00    +0.000 OA
ATOM     20  H   UNL     1       2.371  12.279  19.396  0.00  0.00    +0.000 HD
BRANCH  18  21
ATOM     21  C   UNL     1       2.134  14.810  18.690  0.00  0.00    +0.000 A 
ATOM     22  C   UNL     1       3.494  14.556  18.823  0.00  0.00    +0.000 A 
ATOM     23  C   UNL     1       4.351  15.641  18.815  0.00  0.00    +0.000 A 
ATOM     24  N   UNL     1       3.919  16.913  18.693  0.00  0.00    +0.000 NA
ATOM     25  N   UNL     1       2.590  17.162  18.555  0.00  0.00    +0.000 NA
ATOM     26  C   UNL     1       1.725  16.125  18.544  0.00  0.00    +0.000 A 
ENDBRANCH  18  21
ENDBRANCH   9  17
TORSDOF 4
ENDMDL
MODEL 2
REMARK VINA RESULT:      -7.4      3.722      5.493
REMARK  Name = 
REMARK  5 active torsions:
REMARK  status: ('A' for Active; 'I' for Inactive)
REMARK    1  A    between atoms: C_1  and  C_2
REMARK    2  A    between atoms: C_2  and  C_3
REMARK    3  A    between atoms: C_5  and  C_6
REMARK    4  A    between atoms: C_14  and  N_15
REMARK    5  A    between atoms: C_16  and  C_18
REMARK                            x       y       z     vdW  Elec       q    Type
REMARK                         _______ _______ _______ _____ _____    ______ ____
ROOT
ATOM      1  C   UNL     1       1.515   8.185  20.416  0.00  0.00    +0.000 A 
ATOM      2  C   UNL     1       1.293   8.426  21.791  0.00  0.00    +0.000 A 
ATOM      3  C   UNL     1       0.737   9.627  22.239  0.00  0.00    +0.000 A 
ATOM      4  C   UNL     1       0.414  10.591  21.299  0.00  0.00    +0.000 A 
ATOM      5  C   UNL     1       0.628  10.366  19.936  0.00  0.00    +0.000 A 
ATOM      6  C   UNL     1       1.169   9.173  19.479  0.00  0.00    +0.000 A 
ATOM      7  C   UNL     1       0.172  11.539  19.125  0.00  0.00    +0.000 C 
ATOM      8  C   UNL     1       0.142  12.646  20.191  0.00  0.00    +0.000 C 
ATOM      9  C   UNL     1      -0.157  11.959  21.541  0.00  0.00    +0.000 C 
ENDROOT
BRANCH   1  12
ATOM     10  C   UNL     1       2.373   4.832  19.889  0.00  0.00    +0.000 A 
ATOM     11  N   UNL     1       1.759   5.726  20.627  0.00  0.00    +0.000 NA
ATOM     12  C   UNL     1       2.071   6.906  19.986  0.00  0.00    +0.000 A 
ATOM     13  N   UNL     1       2.874   6.749  18.919  0.00  0.00    +0.000 NA
ATOM     14  O   UNL     1       3.073   5.372  18.854  0.00  0.00    +0.000 OA
BRANCH  10  16
ATOM     15  C   UNL     1       1.381   2.923  21.087  0.00  0.00    +0.000 C 
ATOM     16  C   UNL     1       2.329   3.356  19.979  0.00  0.00    +0.000 C 
ENDBRANCH  10  16
ENDBRANCH   1  12
BRANCH   9  17
ATOM     17  N   UNL     1      -1.573  11.910  21.846  0.00  0.00    +0.000 N 
ATOM     18  C   UNL     1      -2.097  12.754  22.803  0.00  0.00    +0.000 C 
ATOM     19  O   UNL     1      -1.411  13.546  23.439  0.00  0.00    +0.000 OA
ATOM     20  H   UNL     1      -2.175  11.410  21.204  0.00  0.00    +0.000 HD
BRANCH  18  21
ATOM     21  C   UNL     1      -3.554  12.700  23.047  0.00  0.00    +0.000 A 
ATOM     22  C   UNL     1      -4.513  12.974  22.079  0.00  0.00    +0.000 A 
ATOM     23  C   UNL     1      -5.841  12.847  22.440  0.00  0.00    +0.000 A 
ATOM     24  N   UNL     1      -6.231  12.481  23.679  0.00  0.00    +0.000 NA
ATOM     25  N   UNL     1      -5.294  12.205  24.624  0.00  0.00    +0.000 NA
ATOM     26  C   UNL     1      -3.986  12.305  24.303  0.00  0.00    +0.000 A 
ENDBRANCH  18  21
ENDBRANCH   9  17
TORSDOF 4
ENDMDL
MODEL 3
REMARK VINA RESULT:      -7.4      4.444      9.119
REMARK  Name = 
REMARK  5 active torsions:
REMARK  status: ('A' for Active; 'I' for Inactive)
REMARK    1  A    between atoms: C_1  and  C_2
REMARK    2  A    between atoms: C_2  and  C_3
REMARK    3  A    between atoms: C_5  and  C_6
REMARK    4  A    between atoms: C_14  and  N_15
REMARK    5  A    between atoms: C_16  and  C_18
REMARK                            x       y       z     vdW  Elec       q    Type
REMARK                         _______ _______ _______ _____ _____    ______ ____
ROOT
ATOM      1  C   UNL     1       2.526   6.595  19.323  0.00  0.00    +0.000 A 
ATOM      2  C   UNL     1       3.927   6.715  19.190  0.00  0.00    +0.000 A 
ATOM      3  C   UNL     1       4.694   5.693  18.621  0.00  0.00    +0.000 A 
ATOM      4  C   UNL     1       4.046   4.546  18.196  0.00  0.00    +0.000 A 
ATOM      5  C   UNL     1       2.660   4.415  18.322  0.00  0.00    +0.000 A 
ATOM      6  C   UNL     1       1.888   5.427  18.875  0.00  0.00    +0.000 A 
ATOM      7  C   UNL     1       2.197   3.105  17.765  0.00  0.00    +0.000 C 
ATOM      8  C   UNL     1       3.506   2.299  17.769  0.00  0.00    +0.000 C 
ATOM      9  C   UNL     1       4.656   3.314  17.592  0.00  0.00    +0.000 C 
ENDROOT
BRANCH   1  12
ATOM     10  C   UNL     1       0.674   9.491  19.991  0.00  0.00    +0.000 A 
ATOM     11  N   UNL     1       1.422   8.810  19.156  0.00  0.00    +0.000 NA
ATOM     12  C   UNL     1       1.757   7.696  19.895  0.00  0.00    +0.000 A 
ATOM     13  N   UNL     1       1.267   7.708  21.147  0.00  0.00    +0.000 NA
ATOM     14  O   UNL     1       0.546   8.898  21.210  0.00  0.00    +0.000 OA
BRANCH  10  16
ATOM     15  C   UNL     1      -1.125  10.514  18.657  0.00  0.00    +0.000 C 
ATOM     16  C   UNL     1      -0.098  10.730  19.757  0.00  0.00    +0.000 C 
ENDBRANCH  10  16
ENDBRANCH   1  12
BRANCH   9  17
ATOM     17  N   UNL     1       5.022   3.514  16.204  0.00  0.00    +0.000 N 
ATOM     18  C   UNL     1       6.261   4.032  15.891  0.00  0.00    +0.000 C 
ATOM     19  O   UNL     1       7.080   4.361  16.742  0.00  0.00    +0.000 OA
ATOM     20  H   UNL     1       4.446   3.075  15.498  0.00  0.00    +0.000 HD
BRANCH  18  21
ATOM     21  C   UNL     1       6.608   4.176  14.461  0.00  0.00    +0.000 A 
ATOM     22  C   UNL     1       6.038   3.417  13.445  0.00  0.00    +0.000 A 
ATOM     23  C   UNL     1       6.431   3.687  12.148  0.00  0.00    +0.000 A 
ATOM     24  N   UNL     1       7.338   4.637  11.841  0.00  0.00    +0.000 NA
ATOM     25  N   UNL     1       7.890   5.386  12.832  0.00  0.00    +0.000 NA
ATOM     26  C   UNL     1       7.519   5.159  14.111  0.00  0.00    +0.000 A 
ENDBRANCH  18  21
ENDBRANCH   9  17
TORSDOF 4
ENDMDL
MODEL 4
REMARK VINA RESULT:      -7.4      0.920      1.078
REMARK  Name = 
REMARK  5 active torsions:
REMARK  status: ('A' for Active; 'I' for Inactive)
REMARK    1  A    between atoms: C_1  and  C_2
REMARK    2  A    between atoms: C_2  and  C_3
REMARK    3  A    between atoms: C_5  and  C_6
REMARK    4  A    between atoms: C_14  and  N_15
REMARK    5  A    between atoms: C_16  and  C_18
REMARK                            x       y       z     vdW  Elec       q    Type
REMARK                         _______ _______ _______ _____ _____    ______ ____
ROOT
ATOM      1  C   UNL     1       2.370   7.124  19.316  0.00  0.00    +0.000 A 
ATOM      2  C   UNL     1       2.340   7.786  18.068  0.00  0.00    +0.000 A 
ATOM      3  C   UNL     1       1.716   9.028  17.917  0.00  0.00    +0.000 A 
ATOM      4  C   UNL     1       1.112   9.596  19.026  0.00  0.00    +0.000 A 
ATOM      5  C   UNL     1       1.133   8.952  20.266  0.00  0.00    +0.000 A 
ATOM      6  C   UNL     1       1.759   7.724  20.429  0.00  0.00    +0.000 A 
ATOM      7  C   UNL     1       0.443   9.777  21.307  0.00  0.00    +0.000 C 
ATOM      8  C   UNL     1      -0.404  10.715  20.431  0.00  0.00    +0.000 C 
ATOM      9  C   UNL     1       0.357  10.893  19.100  0.00  0.00    +0.000 C 
ENDROOT
BRANCH   1  12
ATOM     10  C   UNL     1       3.325   3.768  19.607  0.00  0.00    +0.000 A 
ATOM     11  N   UNL     1       2.371   4.667  19.654  0.00  0.00    +0.000 NA
ATOM     12  C   UNL     1       3.057   5.842  19.438  0.00  0.00    +0.000 A 
ATOM     13  N   UNL     1       4.385   5.679  19.302  0.00  0.00    +0.000 NA
ATOM     14  O   UNL     1       4.563   4.301  19.412  0.00  0.00    +0.000 OA
BRANCH  10  16
ATOM     15  C   UNL     1       3.478   1.710  18.264  0.00  0.00    +0.000 C 
ATOM     16  C   UNL     1       3.222   2.293  19.645  0.00  0.00    +0.000 C 
ENDBRANCH  10  16
ENDBRANCH   1  12
BRANCH   9  17
ATOM     17  N   UNL     1       1.246  12.038  19.109  0.00  0.00    +0.000 N 
ATOM     18  C   UNL     1       0.809  13.247  18.611  0.00  0.00    +0.000 C 
ATOM     19  O   UNL     1      -0.308  13.405  18.130  0.00  0.00    +0.000 OA
ATOM     20  H   UNL     1       2.085  11.977  19.670  0.00  0.00    +0.000 HD
BRANCH  18  21
ATOM     21  C   UNL     1       1.734  14.398  18.683  0.00  0.00    +0.000 A 
ATOM     22  C   UNL     1       2.970  14.441  18.048  0.00  0.00    +0.000 A 
ATOM     23  C   UNL     1       3.713  15.599  18.173  0.00  0.00    +0.000 A 
ATOM     24  N   UNL     1       3.293  16.666  18.883  0.00  0.00    +0.000 NA
ATOM     25  N   UNL     1       2.081  16.629  19.498  0.00  0.00    +0.000 NA
ATOM     26  C   UNL     1       1.321  15.518  19.386  0.00  0.00    +0.000 A 
ENDBRANCH  18  21
ENDBRANCH   9  17
TORSDOF 4
ENDMDL
MODEL 5
REMARK VINA RESULT:      -7.3      0.936      1.213
REMARK  Name = 
REMARK  5 active torsions:
REMARK  status: ('A' for Active; 'I' for Inactive)
REMARK    1  A    between atoms: C_1  and  C_2
REMARK    2  A    between atoms: C_2  and  C_3
REMARK    3  A    between atoms: C_5  and  C_6
REMARK    4  A    between atoms: C_14  and  N_15
REMARK    5  A    between atoms: C_16  and  C_18
REMARK                            x       y       z     vdW  Elec       q    Type
REMARK                         _______ _______ _______ _____ _____    ______ ____
ROOT
ATOM      1  C   UNL     1       2.369   7.188  19.282  0.00  0.00    +0.000 A 
ATOM      2  C   UNL     1       2.350   7.855  18.036  0.00  0.00    +0.000 A 
ATOM      3  C   UNL     1       1.728   9.098  17.884  0.00  0.00    +0.000 A 
ATOM      4  C   UNL     1       1.115   9.663  18.990  0.00  0.00    +0.000 A 
ATOM      5  C   UNL     1       1.126   9.014  20.228  0.00  0.00    +0.000 A 
ATOM      6  C   UNL     1       1.751   7.786  20.392  0.00  0.00    +0.000 A 
ATOM      7  C   UNL     1       0.428   9.836  21.266  0.00  0.00    +0.000 C 
ATOM      8  C   UNL     1      -0.412  10.777  20.386  0.00  0.00    +0.000 C 
ATOM      9  C   UNL     1       0.361  10.959  19.062  0.00  0.00    +0.000 C 
ENDROOT
BRANCH   1  12
ATOM     10  C   UNL     1       3.322   3.829  19.546  0.00  0.00    +0.000 A 
ATOM     11  N   UNL     1       2.365   4.726  19.574  0.00  0.00    +0.000 NA
ATOM     12  C   UNL     1       3.055   5.906  19.406  0.00  0.00    +0.000 A 
ATOM     13  N   UNL     1       4.387   5.748  19.314  0.00  0.00    +0.000 NA
ATOM     14  O   UNL     1       4.565   4.369  19.405  0.00  0.00    +0.000 OA
BRANCH  10  16
ATOM     15  C   UNL     1       1.828   1.917  19.132  0.00  0.00    +0.000 C 
ATOM     16  C   UNL     1       3.222   2.354  19.553  0.00  0.00    +0.000 C 
ENDBRANCH  10  16
ENDBRANCH   1  12
BRANCH   9  17
ATOM     17  N   UNL     1       1.250  12.104  19.082  0.00  0.00    +0.000 N 
ATOM     18  C   UNL     1       0.812  13.318  18.597  0.00  0.00    +0.000 C 
ATOM     19  O   UNL     1      -0.304  13.482  18.118  0.00  0.00    +0.000 OA
ATOM     20  H   UNL     1       2.090  12.037  19.641  0.00  0.00    +0.000 HD
BRANCH  18  21
ATOM     21  C   UNL     1       1.738  14.468  18.680  0.00  0.00    +0.000 A 
ATOM     22  C   UNL     1       1.398  15.699  19.228  0.00  0.00    +0.000 A 
ATOM     23  C   UNL     1       2.379  16.672  19.273  0.00  0.00    +0.000 A 
ATOM     24  N   UNL     1       3.628  16.474  18.805  0.00  0.00    +0.000 NA
ATOM     25  N   UNL     1       3.965  15.268  18.276  0.00  0.00    +0.000 NA
ATOM     26  C   UNL     1       3.035  14.289  18.228  0.00  0.00    +0.000 A 
ENDBRANCH  18  21
ENDBRANCH   9  17
TORSDOF 4
ENDMDL
MODEL 6
REMARK VINA RESULT:      -7.3      2.109      2.701
REMARK  Name = 
REMARK  5 active torsions:
REMARK  status: ('A' for Active; 'I' for Inactive)
REMARK    1  A    between atoms: C_1  and  C_2
REMARK    2  A    between atoms: C_2  and  C_3
REMARK    3  A    between atoms: C_5  and  C_6
REMARK    4  A    between atoms: C_14  and  N_15
REMARK    5  A    between atoms: C_16  and  C_18
REMARK                            x       y       z     vdW  Elec       q    Type
REMARK                         _______ _______ _______ _____ _____    ______ ____
ROOT
ATOM      1  C   UNL     1       2.668   7.108  18.485  0.00  0.00    +0.000 A 
ATOM      2  C   UNL     1       2.337   8.150  17.590  0.00  0.00    +0.000 A 
ATOM      3  C   UNL     1       1.604   9.264  18.008  0.00  0.00    +0.000 A 
ATOM      4  C   UNL     1       1.196   9.322  19.330  0.00  0.00    +0.000 A 
ATOM      5  C   UNL     1       1.517   8.298  20.226  0.00  0.00    +0.000 A 
ATOM      6  C   UNL     1       2.253   7.193  19.825  0.00  0.00    +0.000 A 
ATOM      7  C   UNL     1       0.992   8.606  21.594  0.00  0.00    +0.000 C 
ATOM      8  C   UNL     1      -0.083   9.657  21.273  0.00  0.00    +0.000 C 
ATOM      9  C   UNL     1       0.378  10.391  19.995  0.00  0.00    +0.000 C 
ENDROOT
BRANCH   1  12
ATOM     10  C   UNL     1       5.059   4.920  17.160  0.00  0.00    +0.000 A 
ATOM     11  N   UNL     1       4.622   6.150  17.297  0.00  0.00    +0.000 NA
ATOM     12  C   UNL     1       3.460   5.975  18.016  0.00  0.00    +0.000 A 
ATOM     13  N   UNL     1       3.172   4.689  18.280  0.00  0.00    +0.000 NA
ATOM     14  O   UNL     1       4.235   3.988  17.713  0.00  0.00    +0.000 OA
BRANCH  10  16
ATOM     15  C   UNL     1       7.475   4.671  17.559  0.00  0.00    +0.000 C 
ATOM     16  C   UNL     1       6.332   4.439  16.583  0.00  0.00    +0.000 C 
ENDBRANCH  10  16
ENDBRANCH   1  12
BRANCH   9  17
ATOM     17  N   UNL     1       1.162  11.577  20.279  0.00  0.00    +0.000 N 
ATOM     18  C   UNL     1       1.062  12.677  19.452  0.00  0.00    +0.000 C 
ATOM     19  O   UNL     1       0.348  12.699  18.457  0.00  0.00    +0.000 OA
ATOM     20  H   UNL     1       1.599  11.645  21.188  0.00  0.00    +0.000 HD
BRANCH  18  21
ATOM     21  C   UNL     1       1.846  13.879  19.807  0.00  0.00    +0.000 A 
ATOM     22  C   UNL     1       1.782  15.080  19.111  0.00  0.00    +0.000 A 
ATOM     23  C   UNL     1       2.544  16.133  19.580  0.00  0.00    +0.000 A 
ATOM     24  N   UNL     1       3.339  16.035  20.665  0.00  0.00    +0.000 NA
ATOM     25  N   UNL     1       3.397  14.864  21.352  0.00  0.00    +0.000 NA
ATOM     26  C   UNL     1       2.655  13.817  20.930  0.00  0.00    +0.000 A 
ENDBRANCH  18  21
ENDBRANCH   9  17
TORSDOF 4
ENDMDL
MODEL 7
REMARK VINA RESULT:      -7.2      3.587      5.451
REMARK  Name = 
REMARK  5 active torsions:
REMARK  status: ('A' for Active; 'I' for Inactive)
REMARK    1  A    between atoms: C_1  and  C_2
REMARK    2  A    between atoms: C_2  and  C_3
REMARK    3  A    between atoms: C_5  and  C_6
REMARK    4  A    between atoms: C_14  and  N_15
REMARK    5  A    between atoms: C_16  and  C_18
REMARK                            x       y       z     vdW  Elec       q    Type
REMARK                         _______ _______ _______ _____ _____    ______ ____
ROOT
ATOM      1  C   UNL     1       1.667   8.137  20.055  0.00  0.00    +0.000 A 
ATOM      2  C   UNL     1       1.391   8.362  21.422  0.00  0.00    +0.000 A 
ATOM      3  C   UNL     1       0.879   9.583  21.871  0.00  0.00    +0.000 A 
ATOM      4  C   UNL     1       0.654  10.582  20.938  0.00  0.00    +0.000 A 
ATOM      5  C   UNL     1       0.922  10.373  19.582  0.00  0.00    +0.000 A 
ATOM      6  C   UNL     1       1.420   9.161  19.125  0.00  0.00    +0.000 A 
ATOM      7  C   UNL     1       0.570  11.585  18.778  0.00  0.00    +0.000 C 
ATOM      8  C   UNL     1       0.548  12.670  19.866  0.00  0.00    +0.000 C 
ATOM      9  C   UNL     1       0.147  11.974  21.184  0.00  0.00    +0.000 C 
ENDROOT
BRANCH   1  12
ATOM     10  C   UNL     1       3.156   5.411  18.440  0.00  0.00    +0.000 A 
ATOM     11  N   UNL     1       2.771   6.664  18.393  0.00  0.00    +0.000 NA
ATOM     12  C   UNL     1       2.173   6.838  19.623  0.00  0.00    +0.000 A 
ATOM     13  N   UNL     1       2.157   5.729  20.381  0.00  0.00    +0.000 NA
ATOM     14  O   UNL     1       2.811   4.781  19.597  0.00  0.00    +0.000 OA
BRANCH  10  16
ATOM     15  C   UNL     1       3.472   3.213  17.377  0.00  0.00    +0.000 C 
ATOM     16  C   UNL     1       3.970   4.646  17.471  0.00  0.00    +0.000 C 
ENDBRANCH  10  16
ENDBRANCH   1  12
BRANCH   9  17
ATOM     17  N   UNL     1      -1.283  11.996  21.420  0.00  0.00    +0.000 N 
ATOM     18  C   UNL     1      -1.772  12.495  22.609  0.00  0.00    +0.000 C 
ATOM     19  O   UNL     1      -1.047  12.909  23.506  0.00  0.00    +0.000 OA
ATOM     20  H   UNL     1      -1.892  11.843  20.628  0.00  0.00    +0.000 HD
BRANCH  18  21
ATOM     21  C   UNL     1      -3.239  12.540  22.787  0.00  0.00    +0.000 A 
ATOM     22  C   UNL     1      -4.139  12.763  21.751  0.00  0.00    +0.000 A 
ATOM     23  C   UNL     1      -5.486  12.741  22.058  0.00  0.00    +0.000 A 
ATOM     24  N   UNL     1      -5.949  12.522  23.307  0.00  0.00    +0.000 NA
ATOM     25  N   UNL     1      -5.071  12.297  24.319  0.00  0.00    +0.000 NA
ATOM     26  C   UNL     1      -3.746  12.297  24.053  0.00  0.00    +0.000 A 
ENDBRANCH  18  21
ENDBRANCH   9  17
TORSDOF 4
ENDMDL
MODEL 8
REMARK VINA RESULT:      -7.2      5.837      9.993
REMARK  Name = 
REMARK  5 active torsions:
REMARK  status: ('A' for Active; 'I' for Inactive)
REMARK    1  A    between atoms: C_1  and  C_2
REMARK    2  A    between atoms: C_2  and  C_3
REMARK    3  A    between atoms: C_5  and  C_6
REMARK    4  A    between atoms: C_14  and  N_15
REMARK    5  A    between atoms: C_16  and  C_18
REMARK                            x       y       z     vdW  Elec       q    Type
REMARK                         _______ _______ _______ _____ _____    ______ ____
ROOT
ATOM      1  C   UNL     1       8.204   9.028  18.218  0.00  0.00    +0.000 A 
ATOM      2  C   UNL     1       7.069   9.064  17.376  0.00  0.00    +0.000 A 
ATOM      3  C   UNL     1       6.354   7.903  17.068  0.00  0.00    +0.000 A 
ATOM      4  C   UNL     1       6.791   6.703  17.602  0.00  0.00    +0.000 A 
ATOM      5  C   UNL     1       7.912   6.653  18.436  0.00  0.00    +0.000 A 
ATOM      6  C   UNL     1       8.623   7.801  18.757  0.00  0.00    +0.000 A 
ATOM      7  C   UNL     1       8.163   5.255  18.907  0.00  0.00    +0.000 C 
ATOM      8  C   UNL     1       7.379   4.443  17.863  0.00  0.00    +0.000 C 
ATOM      9  C   UNL     1       6.212   5.334  17.388  0.00  0.00    +0.000 C 
ENDROOT
BRANCH   1  12
ATOM     10  C   UNL     1      10.218  11.582  19.515  0.00  0.00    +0.000 A 
ATOM     11  N   UNL     1       9.722  10.374  19.644  0.00  0.00    +0.000 NA
ATOM     12  C   UNL     1       8.906  10.267  18.539  0.00  0.00    +0.000 A 
ATOM     13  N   UNL     1       8.870  11.376  17.780  0.00  0.00    +0.000 NA
ATOM     14  O   UNL     1       9.743  12.249  18.427  0.00  0.00    +0.000 OA
BRANCH  10  16
ATOM     15  C   UNL     1      11.319  13.735  19.976  0.00  0.00    +0.000 C 
ATOM     16  C   UNL     1      11.260  12.255  20.319  0.00  0.00    +0.000 C 
ENDBRANCH  10  16
ENDBRANCH   1  12
BRANCH   9  17
ATOM     17  N   UNL     1       5.000   5.132  18.156  0.00  0.00    +0.000 N 
ATOM     18  C   UNL     1       4.035   4.260  17.695  0.00  0.00    +0.000 C 
ATOM     19  O   UNL     1       4.140   3.650  16.637  0.00  0.00    +0.000 OA
ATOM     20  H   UNL     1       4.985   5.471  19.109  0.00  0.00    +0.000 HD
BRANCH  18  21
ATOM     21  C   UNL     1       2.837   4.050  18.535  0.00  0.00    +0.000 A 
ATOM     22  C   UNL     1       1.879   3.073  18.291  0.00  0.00    +0.000 A 
ATOM     23  C   UNL     1       0.829   2.969  19.183  0.00  0.00    +0.000 A 
ATOM     24  N   UNL     1       0.700   3.772  20.259  0.00  0.00    +0.000 NA
ATOM     25  N   UNL     1       1.640   4.723  20.504  0.00  0.00    +0.000 NA
ATOM     26  C   UNL     1       2.688   4.845  19.660  0.00  0.00    +0.000 A 
ENDBRANCH  18  21
ENDBRANCH   9  17
TORSDOF 4
ENDMDL
MODEL 9
REMARK VINA RESULT:      -7.2      2.126      2.665
REMARK  Name = 
REMARK  5 active torsions:
REMARK  status: ('A' for Active; 'I' for Inactive)
REMARK    1  A    between atoms: C_1  and  C_2
REMARK    2  A    between atoms: C_2  and  C_3
REMARK    3  A    between atoms: C_5  and  C_6
REMARK    4  A    between atoms: C_14  and  N_15
REMARK    5  A    between atoms: C_16  and  C_18
REMARK                            x       y       z     vdW  Elec       q    Type
REMARK                         _______ _______ _______ _____ _____    ______ ____
ROOT
ATOM      1  C   UNL     1       2.616   7.132  18.429  0.00  0.00    +0.000 A 
ATOM      2  C   UNL     1       2.274   8.199  17.568  0.00  0.00    +0.000 A 
ATOM      3  C   UNL     1       1.568   9.312  18.033  0.00  0.00    +0.000 A 
ATOM      4  C   UNL     1       1.197   9.343  19.366  0.00  0.00    +0.000 A 
ATOM      5  C   UNL     1       1.529   8.294  20.229  0.00  0.00    +0.000 A 
ATOM      6  C   UNL     1       2.240   7.190  19.781  0.00  0.00    +0.000 A 
ATOM      7  C   UNL     1       1.047   8.575  21.618  0.00  0.00    +0.000 C 
ATOM      8  C   UNL     1      -0.023   9.647  21.352  0.00  0.00    +0.000 C 
ATOM      9  C   UNL     1       0.412  10.406  20.080  0.00  0.00    +0.000 C 
ENDROOT
BRANCH   1  12
ATOM     10  C   UNL     1       4.938   4.947  16.980  0.00  0.00    +0.000 A 
ATOM     11  N   UNL     1       4.519   6.178  17.155  0.00  0.00    +0.000 NA
ATOM     12  C   UNL     1       3.380   6.001  17.911  0.00  0.00    +0.000 A 
ATOM     13  N   UNL     1       3.089   4.712  18.161  0.00  0.00    +0.000 NA
ATOM     14  O   UNL     1       4.124   4.013  17.544  0.00  0.00    +0.000 OA
BRANCH  10  16
ATOM     15  C   UNL     1       5.930   4.070  14.905  0.00  0.00    +0.000 C 
ATOM     16  C   UNL     1       6.186   4.466  16.351  0.00  0.00    +0.000 C 
ENDBRANCH  10  16
ENDBRANCH   1  12
BRANCH   9  17
ATOM     17  N   UNL     1       1.219  11.574  20.369  0.00  0.00    +0.000 N 
ATOM     18  C   UNL     1       1.157  12.671  19.535  0.00  0.00    +0.000 C 
ATOM     19  O   UNL     1       0.458  12.705  18.529  0.00  0.00    +0.000 OA
ATOM     20  H   UNL     1       1.643  11.637  21.284  0.00  0.00    +0.000 HD
BRANCH  18  21
ATOM     21  C   UNL     1       1.962  13.858  19.896  0.00  0.00    +0.000 A 
ATOM     22  C   UNL     1       2.919  13.868  20.904  0.00  0.00    +0.000 A 
ATOM     23  C   UNL     1       3.624  15.040  21.105  0.00  0.00    +0.000 A 
ATOM     24  N   UNL     1       3.413  16.155  20.376  0.00  0.00    +0.000 NA
ATOM     25  N   UNL     1       2.484  16.144  19.385  0.00  0.00    +0.000 NA
ATOM     26  C   UNL     1       1.785  15.012  19.150  0.00  0.00    +0.000 A 
ENDBRANCH  18  21
ENDBRANCH   9  17
TORSDOF 4
ENDMDL
