MODEL 1
REMARK VINA RESULT:      -7.6      0.000      0.000
REMARK  Name = 
REMARK  4 active torsions:
REMARK  status: ('A' for Active; 'I' for Inactive)
REMARK    1  A    between atoms: C_1  and  C_2
REMARK    2  A    between atoms: C_2  and  C_3
REMARK    3  A    between atoms: C_14  and  C_15
REMARK    4  A    between atoms: C_15  and  O_17
REMARK                            x       y       z     vdW  Elec       q    Type
REMARK                         _______ _______ _______ _____ _____    ______ ____
ROOT
ATOM      1  C   UNL     1       2.489   3.588  17.361  0.00  0.00    +0.000 C 
ATOM      2  C   UNL     1       3.288   4.130  18.585  0.00  0.00    +0.000 C 
ATOM      3  C   UNL     1       2.520   5.421  19.042  0.00  0.00    +0.000 C 
ATOM      4  C   UNL     1       1.832   5.463  20.402  0.00  0.00    +0.000 C 
ATOM      5  C   UNL     1       1.970   4.274  21.334  0.00  0.00    +0.000 C 
ATOM      6  C   UNL     1       2.710   3.088  20.823  0.00  0.00    +0.000 C 
ATOM      7  C   UNL     1       3.331   3.004  19.634  0.00  0.00    +0.000 C 
ENDROOT
BRANCH   2   8
ATOM      8  C   UNL     1       4.717   4.608  18.222  0.00  0.00    +0.000 A 
ATOM      9  C   UNL     1       5.586   5.163  19.176  0.00  0.00    +0.000 A 
ATOM     10  C   UNL     1       6.889   5.543  18.837  0.00  0.00    +0.000 A 
ATOM     11  C   UNL     1       7.351   5.377  17.534  0.00  0.00    +0.000 A 
ATOM     12  C   UNL     1       6.513   4.817  16.578  0.00  0.00    +0.000 A 
ATOM     13 CL   UNL     1       7.077   4.601  14.965  0.00  0.00    +0.000 Cl
ATOM     14  C   UNL     1       5.219   4.422  16.917  0.00  0.00    +0.000 A 
ENDBRANCH   2   8
BRANCH   7  15
ATOM     15  C   UNL     1       4.084   1.756  19.271  0.00  0.00    +0.000 C 
ATOM     16  O   UNL     1       3.764   0.997  18.371  0.00  0.00    +0.000 OA
BRANCH  15  17
ATOM     17  O   UNL     1       5.200   1.534  20.001  0.00  0.00    +0.000 OA
ATOM     18  H   UNL     1       5.486   0.607  20.045  0.00  0.00    +0.000 HD
ENDBRANCH  15  17
ENDBRANCH   7  15
TORSDOF 3
ENDMDL
MODEL 2
REMARK VINA RESULT:      -7.4      1.216      1.690
REMARK  Name = 
REMARK  4 active torsions:
REMARK  status: ('A' for Active; 'I' for Inactive)
REMARK    1  A    between atoms: C_1  and  C_2
REMARK    2  A    between atoms: C_2  and  C_3
REMARK    3  A    between atoms: C_14  and  C_15
REMARK    4  A    between atoms: C_15  and  O_17
REMARK                            x       y       z     vdW  Elec       q    Type
REMARK                         _______ _______ _______ _____ _____    ______ ____
ROOT
ATOM      1  C   UNL     1       2.375   3.352  17.152  0.00  0.00    +0.000 C 
ATOM      2  C   UNL     1       3.289   4.098  18.169  0.00  0.00    +0.000 C 
ATOM      3  C   UNL     1       2.619   5.502  18.378  0.00  0.00    +0.000 C 
ATOM      4  C   UNL     1       2.040   5.882  19.737  0.00  0.00    +0.000 C 
ATOM      5  C   UNL     1       2.196   4.919  20.898  0.00  0.00    +0.000 C 
ATOM      6  C   UNL     1       2.840   3.607  20.616  0.00  0.00    +0.000 C 
ATOM      7  C   UNL     1       3.362   3.228  19.437  0.00  0.00    +0.000 C 
ENDROOT
BRANCH   2   8
ATOM      8  C   UNL     1       4.707   4.397  17.617  0.00  0.00    +0.000 A 
ATOM      9  C   UNL     1       5.116   3.983  16.338  0.00  0.00    +0.000 A 
ATOM     10  C   UNL     1       6.383   4.305  15.841  0.00  0.00    +0.000 A 
ATOM     11  C   UNL     1       7.271   5.049  16.614  0.00  0.00    +0.000 A 
ATOM     12  C   UNL     1       6.883   5.480  17.876  0.00  0.00    +0.000 A 
ATOM     13 CL   UNL     1       7.971   6.405  18.838  0.00  0.00    +0.000 Cl
ATOM     14  C   UNL     1       5.614   5.174  18.368  0.00  0.00    +0.000 A 
ENDBRANCH   2   8
BRANCH   7  15
ATOM     15  C   UNL     1       4.028   1.887  19.311  0.00  0.00    +0.000 C 
ATOM     16  O   UNL     1       3.654   1.002  18.560  0.00  0.00    +0.000 OA
BRANCH  15  17
ATOM     17  O   UNL     1       5.129   1.726  20.080  0.00  0.00    +0.000 OA
ATOM     18  H   UNL     1       5.969   1.952  19.650  0.00  0.00    +0.000 HD
ENDBRANCH  15  17
ENDBRANCH   7  15
TORSDOF 3
ENDMDL
MODEL 3
REMARK VINA RESULT:      -7.4      1.730      1.987
REMARK  Name = 
REMARK  4 active torsions:
REMARK  status: ('A' for Active; 'I' for Inactive)
REMARK    1  A    between atoms: C_1  and  C_2
REMARK    2  A    between atoms: C_2  and  C_3
REMARK    3  A    between atoms: C_14  and  C_15
REMARK    4  A    between atoms: C_15  and  O_17
REMARK                            x       y       z     vdW  Elec       q    Type
REMARK                         _______ _______ _______ _____ _____    ______ ____
ROOT
ATOM      1  C   UNL     1       2.948   1.990  17.576  0.00  0.00    +0.000 C 
ATOM      2  C   UNL     1       2.799   3.309  18.392  0.00  0.00    +0.000 C 
ATOM      3  C   UNL     1       1.260   3.619  18.401  0.00  0.00    +0.000 C 
ATOM      4  C   UNL     1       0.478   3.582  19.710  0.00  0.00    +0.000 C 
ATOM      5  C   UNL     1       1.222   3.325  21.006  0.00  0.00    +0.000 C 
ATOM      6  C   UNL     1       2.680   3.037  20.910  0.00  0.00    +0.000 C 
ATOM      7  C   UNL     1       3.410   3.056  19.782  0.00  0.00    +0.000 C 
ENDROOT
BRANCH   2   8
ATOM      8  C   UNL     1       3.460   4.533  17.708  0.00  0.00    +0.000 A 
ATOM      9  C   UNL     1       3.238   5.849  18.148  0.00  0.00    +0.000 A 
ATOM     10  C   UNL     1       3.883   6.935  17.547  0.00  0.00    +0.000 A 
ATOM     11  C   UNL     1       4.765   6.727  16.489  0.00  0.00    +0.000 A 
ATOM     12  C   UNL     1       5.010   5.434  16.046  0.00  0.00    +0.000 A 
ATOM     13 CL   UNL     1       6.103   5.166  14.743  0.00  0.00    +0.000 Cl
ATOM     14  C   UNL     1       4.381   4.348  16.655  0.00  0.00    +0.000 A 
ENDBRANCH   2   8
BRANCH   7  15
ATOM     15  C   UNL     1       4.887   2.792  19.844  0.00  0.00    +0.000 C 
ATOM     16  O   UNL     1       5.746   3.632  19.629  0.00  0.00    +0.000 OA
BRANCH  15  17
ATOM     17  O   UNL     1       5.225   1.532  20.199  0.00  0.00    +0.000 OA
ATOM     18  H   UNL     1       5.249   0.890  19.471  0.00  0.00    +0.000 HD
ENDBRANCH  15  17
ENDBRANCH   7  15
TORSDOF 3
ENDMDL
MODEL 4
REMARK VINA RESULT:      -7.2      1.401      1.999
REMARK  Name = 
REMARK  4 active torsions:
REMARK  status: ('A' for Active; 'I' for Inactive)
REMARK    1  A    between atoms: C_1  and  C_2
REMARK    2  A    between atoms: C_2  and  C_3
REMARK    3  A    between atoms: C_14  and  C_15
REMARK    4  A    between atoms: C_15  and  O_17
REMARK                            x       y       z     vdW  Elec       q    Type
REMARK                         _______ _______ _______ _____ _____    ______ ____
ROOT
ATOM      1  C   UNL     1       2.012   4.064  17.164  0.00  0.00    +0.000 C 
ATOM      2  C   UNL     1       3.009   4.577  18.247  0.00  0.00    +0.000 C 
ATOM      3  C   UNL     1       2.655   6.093  18.451  0.00  0.00    +0.000 C 
ATOM      4  C   UNL     1       2.096   6.577  19.785  0.00  0.00    +0.000 C 
ATOM      5  C   UNL     1       1.967   5.592  20.930  0.00  0.00    +0.000 C 
ATOM      6  C   UNL     1       2.320   4.173  20.653  0.00  0.00    +0.000 C 
ATOM      7  C   UNL     1       2.814   3.699  19.496  0.00  0.00    +0.000 C 
ENDROOT
BRANCH   2   8
ATOM      8  C   UNL     1       4.487   4.559  17.779  0.00  0.00    +0.000 A 
ATOM      9  C   UNL     1       4.867   4.086  16.512  0.00  0.00    +0.000 A 
ATOM     10  C   UNL     1       6.201   4.124  16.092  0.00  0.00    +0.000 A 
ATOM     11  C   UNL     1       7.186   4.635  16.934  0.00  0.00    +0.000 A 
ATOM     12  C   UNL     1       6.831   5.120  18.186  0.00  0.00    +0.000 A 
ATOM     13 CL   UNL     1       8.040   5.760  19.231  0.00  0.00    +0.000 Cl
ATOM     14  C   UNL     1       5.499   5.099  18.601  0.00  0.00    +0.000 A 
ENDBRANCH   2   8
BRANCH   7  15
ATOM     15  C   UNL     1       3.172   2.245  19.376  0.00  0.00    +0.000 C 
ATOM     16  O   UNL     1       4.265   1.781  19.657  0.00  0.00    +0.000 OA
BRANCH  15  17
ATOM     17  O   UNL     1       2.166   1.445  18.957  0.00  0.00    +0.000 OA
ATOM     18  H   UNL     1       1.885   1.583  18.039  0.00  0.00    +0.000 HD
ENDBRANCH  15  17
ENDBRANCH   7  15
TORSDOF 3
ENDMDL
MODEL 5
REMARK VINA RESULT:      -7.1      0.870      1.154
REMARK  Name = 
REMARK  4 active torsions:
REMARK  status: ('A' for Active; 'I' for Inactive)
REMARK    1  A    between atoms: C_1  and  C_2
REMARK    2  A    between atoms: C_2  and  C_3
REMARK    3  A    between atoms: C_14  and  C_15
REMARK    4  A    between atoms: C_15  and  O_17
REMARK                            x       y       z     vdW  Elec       q    Type
REMARK                         _______ _______ _______ _____ _____    ______ ____
ROOT
ATOM      1  C   UNL     1       2.400   2.302  17.665  0.00  0.00    +0.000 C 
ATOM      2  C   UNL     1       2.982   3.327  18.685  0.00  0.00    +0.000 C 
ATOM      3  C   UNL     1       1.850   4.394  18.893  0.00  0.00    +0.000 C 
ATOM      4  C   UNL     1       1.172   4.537  20.251  0.00  0.00    +0.000 C 
ATOM      5  C   UNL     1       1.663   3.694  21.412  0.00  0.00    +0.000 C 
ATOM      6  C   UNL     1       2.737   2.704  21.131  0.00  0.00    +0.000 C 
ATOM      7  C   UNL     1       3.363   2.540  19.952  0.00  0.00    +0.000 C 
ENDROOT
BRANCH   2   8
ATOM      8  C   UNL     1       4.197   4.118  18.135  0.00  0.00    +0.000 A 
ATOM      9  C   UNL     1       4.927   5.018  18.929  0.00  0.00    +0.000 A 
ATOM     10  C   UNL     1       6.049   5.685  18.427  0.00  0.00    +0.000 A 
ATOM     11  C   UNL     1       6.466   5.466  17.116  0.00  0.00    +0.000 A 
ATOM     12  C   UNL     1       5.767   4.570  16.317  0.00  0.00    +0.000 A 
ATOM     13 CL   UNL     1       6.278   4.287  14.697  0.00  0.00    +0.000 Cl
ATOM     14  C   UNL     1       4.658   3.891  16.821  0.00  0.00    +0.000 A 
ENDBRANCH   2   8
BRANCH   7  15
ATOM     15  C   UNL     1       4.468   1.530  19.827  0.00  0.00    +0.000 C 
ATOM     16  O   UNL     1       5.391   1.419  20.617  0.00  0.00    +0.000 OA
BRANCH  15  17
ATOM     17  O   UNL     1       4.358   0.696  18.768  0.00  0.00    +0.000 OA
ATOM     18  H   UNL     1       4.906  -0.103  18.814  0.00  0.00    +0.000 HD
ENDBRANCH  15  17
ENDBRANCH   7  15
TORSDOF 3
ENDMDL
MODEL 6
REMARK VINA RESULT:      -7.1      2.366      2.825
REMARK  Name = 
REMARK  4 active torsions:
REMARK  status: ('A' for Active; 'I' for Inactive)
REMARK    1  A    between atoms: C_1  and  C_2
REMARK    2  A    between atoms: C_2  and  C_3
REMARK    3  A    between atoms: C_14  and  C_15
REMARK    4  A    between atoms: C_15  and  O_17
REMARK                            x       y       z     vdW  Elec       q    Type
REMARK                         _______ _______ _______ _____ _____    ______ ____
ROOT
ATOM      1  C   UNL     1       2.993   2.072  17.504  0.00  0.00    +0.000 C 
ATOM      2  C   UNL     1       2.762   3.320  18.409  0.00  0.00    +0.000 C 
ATOM      3  C   UNL     1       1.208   3.544  18.418  0.00  0.00    +0.000 C 
ATOM      4  C   UNL     1       0.416   3.371  19.709  0.00  0.00    +0.000 C 
ATOM      5  C   UNL     1       1.160   3.063  20.994  0.00  0.00    +0.000 C 
ATOM      6  C   UNL     1       2.632   2.862  20.899  0.00  0.00    +0.000 C 
ATOM      7  C   UNL     1       3.372   3.001  19.786  0.00  0.00    +0.000 C 
ENDROOT
BRANCH   2   8
ATOM      8  C   UNL     1       3.362   4.624  17.823  0.00  0.00    +0.000 A 
ATOM      9  C   UNL     1       4.416   4.612  16.893  0.00  0.00    +0.000 A 
ATOM     10  C   UNL     1       4.910   5.798  16.341  0.00  0.00    +0.000 A 
ATOM     11  C   UNL     1       4.361   7.024  16.707  0.00  0.00    +0.000 A 
ATOM     12  C   UNL     1       3.309   7.059  17.615  0.00  0.00    +0.000 A 
ATOM     13 CL   UNL     1       2.619   8.569  18.070  0.00  0.00    +0.000 Cl
ATOM     14  C   UNL     1       2.804   5.876  18.155  0.00  0.00    +0.000 A 
ENDBRANCH   2   8
BRANCH   7  15
ATOM     15  C   UNL     1       4.861   2.815  19.850  0.00  0.00    +0.000 C 
ATOM     16  O   UNL     1       5.674   3.707  19.671  0.00  0.00    +0.000 OA
BRANCH  15  17
ATOM     17  O   UNL     1       5.263   1.563  20.165  0.00  0.00    +0.000 OA
ATOM     18  H   UNL     1       5.189   1.330  21.104  0.00  0.00    +0.000 HD
ENDBRANCH  15  17
ENDBRANCH   7  15
TORSDOF 3
ENDMDL
MODEL 7
REMARK VINA RESULT:      -7.1      0.721      1.094
REMARK  Name = 
REMARK  4 active torsions:
REMARK  status: ('A' for Active; 'I' for Inactive)
REMARK    1  A    between atoms: C_1  and  C_2
REMARK    2  A    between atoms: C_2  and  C_3
REMARK    3  A    between atoms: C_14  and  C_15
REMARK    4  A    between atoms: C_15  and  O_17
REMARK                            x       y       z     vdW  Elec       q    Type
REMARK                         _______ _______ _______ _____ _____    ______ ____
ROOT
ATOM      1  C   UNL     1       2.313   3.494  17.192  0.00  0.00    +0.000 C 
ATOM      2  C   UNL     1       3.255   4.225  18.196  0.00  0.00    +0.000 C 
ATOM      3  C   UNL     1       2.657   5.668  18.351  0.00  0.00    +0.000 C 
ATOM      4  C   UNL     1       2.085   6.121  19.690  0.00  0.00    +0.000 C 
ATOM      5  C   UNL     1       2.179   5.190  20.884  0.00  0.00    +0.000 C 
ATOM      6  C   UNL     1       2.756   3.839  20.652  0.00  0.00    +0.000 C 
ATOM      7  C   UNL     1       3.270   3.394  19.492  0.00  0.00    +0.000 C 
ENDROOT
BRANCH   2   8
ATOM      8  C   UNL     1       4.692   4.432  17.651  0.00  0.00    +0.000 A 
ATOM      9  C   UNL     1       5.762   4.805  18.481  0.00  0.00    +0.000 A 
ATOM     10  C   UNL     1       7.060   4.940  17.977  0.00  0.00    +0.000 A 
ATOM     11  C   UNL     1       7.315   4.704  16.628  0.00  0.00    +0.000 A 
ATOM     12  C   UNL     1       6.275   4.321  15.792  0.00  0.00    +0.000 A 
ATOM     13 CL   UNL     1       6.582   4.021  14.124  0.00  0.00    +0.000 Cl
ATOM     14  C   UNL     1       4.983   4.170  16.295  0.00  0.00    +0.000 A 
ENDBRANCH   2   8
BRANCH   7  15
ATOM     15  C   UNL     1       3.866   2.018  19.417  0.00  0.00    +0.000 C 
ATOM     16  O   UNL     1       4.877   1.673  20.008  0.00  0.00    +0.000 OA
BRANCH  15  17
ATOM     17  O   UNL     1       3.173   1.139  18.658  0.00  0.00    +0.000 OA
ATOM     18  H   UNL     1       2.209   1.253  18.672  0.00  0.00    +0.000 HD
ENDBRANCH  15  17
ENDBRANCH   7  15
TORSDOF 3
ENDMDL
MODEL 8
REMARK VINA RESULT:      -7.1      0.918      1.268
REMARK  Name = 
REMARK  4 active torsions:
REMARK  status: ('A' for Active; 'I' for Inactive)
REMARK    1  A    between atoms: C_1  and  C_2
REMARK    2  A    between atoms: C_2  and  C_3
REMARK    3  A    between atoms: C_14  and  C_15
REMARK    4  A    between atoms: C_15  and  O_17
REMARK                            x       y       z     vdW  Elec       q    Type
REMARK                         _______ _______ _______ _____ _____    ______ ____
ROOT
ATOM      1  C   UNL     1       1.760   4.530  17.555  0.00  0.00    +0.000 C 
ATOM      2  C   UNL     1       2.862   4.358  18.644  0.00  0.00    +0.000 C 
ATOM      3  C   UNL     1       2.644   5.547  19.646  0.00  0.00    +0.000 C 
ATOM      4  C   UNL     1       2.213   5.270  21.082  0.00  0.00    +0.000 C 
ATOM      5  C   UNL     1       2.080   3.833  21.547  0.00  0.00    +0.000 C 
ATOM      6  C   UNL     1       2.300   2.764  20.534  0.00  0.00    +0.000 C 
ATOM      7  C   UNL     1       2.678   2.959  19.259  0.00  0.00    +0.000 C 
ENDROOT
BRANCH   2   8
ATOM      8  C   UNL     1       4.301   4.540  18.096  0.00  0.00    +0.000 A 
ATOM      9  C   UNL     1       5.380   4.891  18.925  0.00  0.00    +0.000 A 
ATOM     10  C   UNL     1       6.679   5.004  18.418  0.00  0.00    +0.000 A 
ATOM     11  C   UNL     1       6.927   4.768  17.068  0.00  0.00    +0.000 A 
ATOM     12  C   UNL     1       5.877   4.406  16.233  0.00  0.00    +0.000 A 
ATOM     13 CL   UNL     1       6.174   4.106  14.564  0.00  0.00    +0.000 Cl
ATOM     14  C   UNL     1       4.584   4.278  16.739  0.00  0.00    +0.000 A 
ENDBRANCH   2   8
BRANCH   7  15
ATOM     15  C   UNL     1       2.911   1.778  18.360  0.00  0.00    +0.000 C 
ATOM     16  O   UNL     1       3.862   1.020  18.454  0.00  0.00    +0.000 OA
BRANCH  15  17
ATOM     17  O   UNL     1       1.951   1.575  17.430  0.00  0.00    +0.000 OA
ATOM     18  H   UNL     1       1.085   1.314  17.782  0.00  0.00    +0.000 HD
ENDBRANCH  15  17
ENDBRANCH   7  15
TORSDOF 3
ENDMDL
MODEL 9
REMARK VINA RESULT:      -7.0      1.330      1.926
REMARK  Name = 
REMARK  4 active torsions:
REMARK  status: ('A' for Active; 'I' for Inactive)
REMARK    1  A    between atoms: C_1  and  C_2
REMARK    2  A    between atoms: C_2  and  C_3
REMARK    3  A    between atoms: C_14  and  C_15
REMARK    4  A    between atoms: C_15  and  O_17
REMARK                            x       y       z     vdW  Elec       q    Type
REMARK                         _______ _______ _______ _____ _____    ______ ____
ROOT
ATOM      1  C   UNL     1       2.564   2.333  17.536  0.00  0.00    +0.000 C 
ATOM      2  C   UNL     1       3.246   3.363  18.486  0.00  0.00    +0.000 C 
ATOM      3  C   UNL     1       2.240   4.564  18.587  0.00  0.00    +0.000 C 
ATOM      4  C   UNL     1       1.566   4.890  19.916  0.00  0.00    +0.000 C 
ATOM      5  C   UNL     1       1.944   4.091  21.149  0.00  0.00    +0.000 C 
ATOM      6  C   UNL     1       2.903   2.967  20.966  0.00  0.00    +0.000 C 
ATOM      7  C   UNL     1       3.520   2.642  19.818  0.00  0.00    +0.000 C 
ENDROOT
BRANCH   2   8
ATOM      8  C   UNL     1       4.550   3.967  17.902  0.00  0.00    +0.000 A 
ATOM      9  C   UNL     1       4.809   3.998  16.522  0.00  0.00    +0.000 A 
ATOM     10  C   UNL     1       5.970   4.590  16.013  0.00  0.00    +0.000 A 
ATOM     11  C   UNL     1       6.898   5.166  16.877  0.00  0.00    +0.000 A 
ATOM     12  C   UNL     1       6.656   5.159  18.245  0.00  0.00    +0.000 A 
ATOM     13 CL   UNL     1       7.795   5.873  19.321  0.00  0.00    +0.000 Cl
ATOM     14  C   UNL     1       5.492   4.583  18.753  0.00  0.00    +0.000 A 
ENDBRANCH   2   8
BRANCH   7  15
ATOM     15  C   UNL     1       4.505   1.507  19.793  0.00  0.00    +0.000 C 
ATOM     16  O   UNL     1       5.406   1.362  20.603  0.00  0.00    +0.000 OA
BRANCH  15  17
ATOM     17  O   UNL     1       4.305   0.603  18.808  0.00  0.00    +0.000 OA
ATOM     18  H   UNL     1       5.101   0.353  18.311  0.00  0.00    +0.000 HD
ENDBRANCH  15  17
ENDBRANCH   7  15
TORSDOF 3
ENDMDL
