MODEL 1
REMARK VINA RESULT:      -7.2      0.000      0.000
REMARK  Name = 
REMARK  10 active torsions:
REMARK  status: ('A' for Active; 'I' for Inactive)
REMARK    1  A    between atoms: C_1  and  C_2
REMARK    2  A    between atoms: C_2  and  N_3
REMARK    3  A    between atoms: C_4  and  C_5
REMARK    4  A    between atoms: C_7  and  C_8
REMARK    5  A    between atoms: N_10  and  C_11
REMARK    6  A    between atoms: C_11  and  C_12
REMARK    7  A    between atoms: C_16  and  S_17
REMARK    8  A    between atoms: S_17  and  N_20
REMARK    9  A    between atoms: N_20  and  C_21
REMARK   10  A    between atoms: C_23  and  C_24
REMARK                            x       y       z     vdW  Elec       q    Type
REMARK                         _______ _______ _______ _____ _____    ______ ____
ROOT
ATOM      1  C   UNL     1       3.053   6.986  17.837  0.00  0.00    +0.000 C 
ATOM      2  O   UNL     1       3.986   7.387  17.152  0.00  0.00    +0.000 OA
ATOM      3  N   UNL     1       2.081   7.844  18.309  0.00  0.00    +0.000 N 
ATOM      4  H   UNL     1       1.299   7.475  18.824  0.00  0.00    +0.000 HD
ENDROOT
BRANCH   1   9
ATOM      5  N   UNL     1       3.333   3.489  18.936  0.00  0.00    +0.000 N 
ATOM      6  C   UNL     1       2.004   3.486  18.573  0.00  0.00    +0.000 A 
ATOM      7  C   UNL     1       1.084   2.314  18.664  0.00  0.00    +0.000 C 
ATOM      8  C   UNL     1       1.710   4.756  18.115  0.00  0.00    +0.000 A 
ATOM      9  C   UNL     1       2.876   5.575  18.218  0.00  0.00    +0.000 A 
ATOM     10  C   UNL     1       3.854   4.764  18.791  0.00  0.00    +0.000 A 
ATOM     11  C   UNL     1       5.252   5.100  19.203  0.00  0.00    +0.000 C 
BRANCH   5  13
ATOM     12  C   UNL     1       4.028   2.103  20.869  0.00  0.00    +0.000 C 
ATOM     13  C   UNL     1       4.103   2.329  19.370  0.00  0.00    +0.000 C 
ENDBRANCH   5  13
ENDBRANCH   1   9
BRANCH   3  14
ATOM     14  C   UNL     1       2.126   9.256  18.031  0.00  0.00    +0.000 C 
BRANCH  14  15
ATOM     15  C   UNL     1       0.943   9.998  18.603  0.00  0.00    +0.000 A 
ATOM     16  C   UNL     1       1.012  10.508  19.911  0.00  0.00    +0.000 A 
ATOM     17  C   UNL     1      -0.092  11.128  20.499  0.00  0.00    +0.000 A 
ATOM     18  C   UNL     1      -1.285  11.245  19.788  0.00  0.00    +0.000 A 
ATOM     19  C   UNL     1      -1.357  10.768  18.475  0.00  0.00    +0.000 A 
ATOM     20  C   UNL     1      -0.245  10.161  17.872  0.00  0.00    +0.000 A 
BRANCH  19  21
ATOM     21  S   UNL     1      -2.921  10.792  17.633  0.00  0.00    +0.000 S 
ATOM     22  O   UNL     1      -3.366   9.422  17.510  0.00  0.00    +0.000 OA
ATOM     23  O   UNL     1      -3.762  11.811  18.227  0.00  0.00    +0.000 OA
BRANCH  21  24
ATOM     24  N   UNL     1      -2.542  11.296  16.069  0.00  0.00    +0.000 NA
ATOM     25  C   UNL     1      -3.049  10.476  14.970  0.00  0.00    +0.000 C 
ATOM     26  H   UNL     1      -1.553  11.547  16.021  0.00  0.00    +0.000 HD
ENDBRANCH  21  24
ENDBRANCH  19  21
ENDBRANCH  14  15
ENDBRANCH   3  14
TORSDOF 6
ENDMDL
MODEL 2
REMARK VINA RESULT:      -7.2      3.774      8.630
REMARK  Name = 
REMARK  10 active torsions:
REMARK  status: ('A' for Active; 'I' for Inactive)
REMARK    1  A    between atoms: C_1  and  C_2
REMARK    2  A    between atoms: C_2  and  N_3
REMARK    3  A    between atoms: C_4  and  C_5
REMARK    4  A    between atoms: C_7  and  C_8
REMARK    5  A    between atoms: N_10  and  C_11
REMARK    6  A    between atoms: C_11  and  C_12
REMARK    7  A    between atoms: C_16  and  S_17
REMARK    8  A    between atoms: S_17  and  N_20
REMARK    9  A    between atoms: N_20  and  C_21
REMARK   10  A    between atoms: C_23  and  C_24
REMARK                            x       y       z     vdW  Elec       q    Type
REMARK                         _______ _______ _______ _____ _____    ______ ____
ROOT
ATOM      1  C   UNL     1       1.477  10.012  18.646  0.00  0.00    +0.000 C 
ATOM      2  O   UNL     1       2.101  10.814  17.962  0.00  0.00    +0.000 OA
ATOM      3  N   UNL     1       1.612   8.651  18.468  0.00  0.00    +0.000 N 
ATOM      4  H   UNL     1       1.127   8.018  19.083  0.00  0.00    +0.000 HD
ENDROOT
BRANCH   1   9
ATOM      5  N   UNL     1      -1.133  11.469  20.786  0.00  0.00    +0.000 N 
ATOM      6  C   UNL     1      -0.540  10.642  21.715  0.00  0.00    +0.000 A 
ATOM      7  C   UNL     1      -0.961  10.500  23.141  0.00  0.00    +0.000 C 
ATOM      8  C   UNL     1       0.500   9.997  21.074  0.00  0.00    +0.000 A 
ATOM      9  C   UNL     1       0.540  10.412  19.708  0.00  0.00    +0.000 A 
ATOM     10  C   UNL     1      -0.533  11.287  19.551  0.00  0.00    +0.000 A 
ATOM     11  C   UNL     1      -1.030  11.977  18.320  0.00  0.00    +0.000 C 
BRANCH   5  13
ATOM     12  C   UNL     1      -1.680  13.814  21.371  0.00  0.00    +0.000 C 
ATOM     13  C   UNL     1      -2.202  12.425  21.051  0.00  0.00    +0.000 C 
ENDBRANCH   5  13
ENDBRANCH   1   9
BRANCH   3  14
ATOM     14  C   UNL     1       2.482   8.107  17.459  0.00  0.00    +0.000 C 
BRANCH  14  15
ATOM     15  C   UNL     1       3.380   7.017  17.992  0.00  0.00    +0.000 A 
ATOM     16  C   UNL     1       2.935   6.210  19.053  0.00  0.00    +0.000 A 
ATOM     17  C   UNL     1       3.770   5.247  19.622  0.00  0.00    +0.000 A 
ATOM     18  C   UNL     1       5.066   5.079  19.141  0.00  0.00    +0.000 A 
ATOM     19  C   UNL     1       5.512   5.855  18.066  0.00  0.00    +0.000 A 
ATOM     20  C   UNL     1       4.670   6.811  17.477  0.00  0.00    +0.000 A 
BRANCH  19  21
ATOM     21  S   UNL     1       7.209   5.733  17.557  0.00  0.00    +0.000 S 
ATOM     22  O   UNL     1       7.747   4.521  18.132  0.00  0.00    +0.000 OA
ATOM     23  O   UNL     1       7.296   6.000  16.137  0.00  0.00    +0.000 OA
BRANCH  21  24
ATOM     24  N   UNL     1       7.975   7.003  18.359  0.00  0.00    +0.000 NA
ATOM     25  C   UNL     1       7.931   8.314  17.712  0.00  0.00    +0.000 C 
ATOM     26  H   UNL     1       8.892   6.697  18.687  0.00  0.00    +0.000 HD
ENDBRANCH  21  24
ENDBRANCH  19  21
ENDBRANCH  14  15
ENDBRANCH   3  14
TORSDOF 6
ENDMDL
MODEL 3
REMARK VINA RESULT:      -7.2      1.041      1.309
REMARK  Name = 
REMARK  10 active torsions:
REMARK  status: ('A' for Active; 'I' for Inactive)
REMARK    1  A    between atoms: C_1  and  C_2
REMARK    2  A    between atoms: C_2  and  N_3
REMARK    3  A    between atoms: C_4  and  C_5
REMARK    4  A    between atoms: C_7  and  C_8
REMARK    5  A    between atoms: N_10  and  C_11
REMARK    6  A    between atoms: C_11  and  C_12
REMARK    7  A    between atoms: C_16  and  S_17
REMARK    8  A    between atoms: S_17  and  N_20
REMARK    9  A    between atoms: N_20  and  C_21
REMARK   10  A    between atoms: C_23  and  C_24
REMARK                            x       y       z     vdW  Elec       q    Type
REMARK                         _______ _______ _______ _____ _____    ______ ____
ROOT
ATOM      1  C   UNL     1       2.960   6.913  18.385  0.00  0.00    +0.000 C 
ATOM      2  O   UNL     1       3.961   7.206  17.742  0.00  0.00    +0.000 OA
ATOM      3  N   UNL     1       1.959   7.833  18.622  0.00  0.00    +0.000 N 
ATOM      4  H   UNL     1       1.125   7.546  19.107  0.00  0.00    +0.000 HD
ENDROOT
BRANCH   1   9
ATOM      5  N   UNL     1       2.500   3.342  19.125  0.00  0.00    +0.000 N 
ATOM      6  C   UNL     1       2.211   3.851  20.372  0.00  0.00    +0.000 A 
ATOM      7  C   UNL     1       1.836   3.044  21.571  0.00  0.00    +0.000 C 
ATOM      8  C   UNL     1       2.330   5.225  20.283  0.00  0.00    +0.000 A 
ATOM      9  C   UNL     1       2.727   5.577  18.957  0.00  0.00    +0.000 A 
ATOM     10  C   UNL     1       2.881   4.370  18.278  0.00  0.00    +0.000 A 
ATOM     11  C   UNL     1       3.351   4.113  16.882  0.00  0.00    +0.000 C 
BRANCH   5  13
ATOM     12  C   UNL     1       3.725   1.222  18.742  0.00  0.00    +0.000 C 
ATOM     13  C   UNL     1       2.390   1.943  18.726  0.00  0.00    +0.000 C 
ENDBRANCH   5  13
ENDBRANCH   1   9
BRANCH   3  14
ATOM     14  C   UNL     1       2.050   9.185  18.137  0.00  0.00    +0.000 C 
BRANCH  14  15
ATOM     15  C   UNL     1       0.905  10.049  18.607  0.00  0.00    +0.000 A 
ATOM     16  C   UNL     1       1.020  10.753  19.818  0.00  0.00    +0.000 A 
ATOM     17  C   UNL     1      -0.050  11.496  20.320  0.00  0.00    +0.000 A 
ATOM     18  C   UNL     1      -1.253  11.543  19.621  0.00  0.00    +0.000 A 
ATOM     19  C   UNL     1      -1.371  10.871  18.400  0.00  0.00    +0.000 A 
ATOM     20  C   UNL     1      -0.293  10.139  17.880  0.00  0.00    +0.000 A 
BRANCH  19  21
ATOM     21  S   UNL     1      -2.952  10.819  17.592  0.00  0.00    +0.000 S 
ATOM     22  O   UNL     1      -3.351   9.432  17.514  0.00  0.00    +0.000 OA
ATOM     23  O   UNL     1      -3.815  11.823  18.178  0.00  0.00    +0.000 OA
BRANCH  21  24
ATOM     24  N   UNL     1      -2.624  11.294  16.008  0.00  0.00    +0.000 NA
ATOM     25  C   UNL     1      -3.318  10.569  14.944  0.00  0.00    +0.000 C 
ATOM     26  H   UNL     1      -1.616  11.409  15.887  0.00  0.00    +0.000 HD
ENDBRANCH  21  24
ENDBRANCH  19  21
ENDBRANCH  14  15
ENDBRANCH   3  14
TORSDOF 6
ENDMDL
MODEL 4
REMARK VINA RESULT:      -7.1      3.296      7.886
REMARK  Name = 
REMARK  10 active torsions:
REMARK  status: ('A' for Active; 'I' for Inactive)
REMARK    1  A    between atoms: C_1  and  C_2
REMARK    2  A    between atoms: C_2  and  N_3
REMARK    3  A    between atoms: C_4  and  C_5
REMARK    4  A    between atoms: C_7  and  C_8
REMARK    5  A    between atoms: N_10  and  C_11
REMARK    6  A    between atoms: C_11  and  C_12
REMARK    7  A    between atoms: C_16  and  S_17
REMARK    8  A    between atoms: S_17  and  N_20
REMARK    9  A    between atoms: N_20  and  C_21
REMARK   10  A    between atoms: C_23  and  C_24
REMARK                            x       y       z     vdW  Elec       q    Type
REMARK                         _______ _______ _______ _____ _____    ______ ____
ROOT
ATOM      1  C   UNL     1       1.698   9.031  18.526  0.00  0.00    +0.000 C 
ATOM      2  O   UNL     1       1.598   9.590  17.441  0.00  0.00    +0.000 OA
ATOM      3  N   UNL     1       2.536   7.950  18.708  0.00  0.00    +0.000 N 
ATOM      4  H   UNL     1       2.637   7.547  19.625  0.00  0.00    +0.000 HD
ENDROOT
BRANCH   1   9
ATOM      5  N   UNL     1      -0.417  10.614  21.082  0.00  0.00    +0.000 N 
ATOM      6  C   UNL     1       0.139   9.621  21.859  0.00  0.00    +0.000 A 
ATOM      7  C   UNL     1      -0.144   9.394  23.308  0.00  0.00    +0.000 C 
ATOM      8  C   UNL     1       0.995   8.905  21.045  0.00  0.00    +0.000 A 
ATOM      9  C   UNL     1       0.951   9.448  19.724  0.00  0.00    +0.000 A 
ATOM     10  C   UNL     1       0.013  10.477  19.773  0.00  0.00    +0.000 A 
ATOM     11  C   UNL     1      -0.503  11.352  18.675  0.00  0.00    +0.000 C 
BRANCH   5  13
ATOM     12  C   UNL     1      -0.529  12.856  22.130  0.00  0.00    +0.000 C 
ATOM     13  C   UNL     1      -1.294  11.679  21.555  0.00  0.00    +0.000 C 
ENDBRANCH   5  13
ENDBRANCH   1   9
BRANCH   3  14
ATOM     14  C   UNL     1       3.323   7.418  17.626  0.00  0.00    +0.000 C 
BRANCH  14  15
ATOM     15  C   UNL     1       3.429   5.913  17.670  0.00  0.00    +0.000 A 
ATOM     16  C   UNL     1       4.435   5.268  16.932  0.00  0.00    +0.000 A 
ATOM     17  C   UNL     1       4.511   3.874  16.887  0.00  0.00    +0.000 A 
ATOM     18  C   UNL     1       3.578   3.104  17.577  0.00  0.00    +0.000 A 
ATOM     19  C   UNL     1       2.589   3.734  18.340  0.00  0.00    +0.000 A 
ATOM     20  C   UNL     1       2.520   5.134  18.405  0.00  0.00    +0.000 A 
BRANCH  19  21
ATOM     21  S   UNL     1       1.321   2.747  19.096  0.00  0.00    +0.000 S 
ATOM     22  O   UNL     1       0.138   2.858  18.272  0.00  0.00    +0.000 OA
ATOM     23  O   UNL     1       1.876   1.458  19.452  0.00  0.00    +0.000 OA
BRANCH  21  24
ATOM     24  N   UNL     1       0.963   3.559  20.529  0.00  0.00    +0.000 NA
ATOM     25  C   UNL     1       1.516   2.998  21.762  0.00  0.00    +0.000 C 
ATOM     26  H   UNL     1      -0.032   3.792  20.552  0.00  0.00    +0.000 HD
ENDBRANCH  21  24
ENDBRANCH  19  21
ENDBRANCH  14  15
ENDBRANCH   3  14
TORSDOF 6
ENDMDL
MODEL 5
REMARK VINA RESULT:      -7.1      1.335      1.508
REMARK  Name = 
REMARK  10 active torsions:
REMARK  status: ('A' for Active; 'I' for Inactive)
REMARK    1  A    between atoms: C_1  and  C_2
REMARK    2  A    between atoms: C_2  and  N_3
REMARK    3  A    between atoms: C_4  and  C_5
REMARK    4  A    between atoms: C_7  and  C_8
REMARK    5  A    between atoms: N_10  and  C_11
REMARK    6  A    between atoms: C_11  and  C_12
REMARK    7  A    between atoms: C_16  and  S_17
REMARK    8  A    between atoms: S_17  and  N_20
REMARK    9  A    between atoms: N_20  and  C_21
REMARK   10  A    between atoms: C_23  and  C_24
REMARK                            x       y       z     vdW  Elec       q    Type
REMARK                         _______ _______ _______ _____ _____    ______ ____
ROOT
ATOM      1  C   UNL     1       3.078   7.010  18.311  0.00  0.00    +0.000 C 
ATOM      2  O   UNL     1       3.815   7.220  17.356  0.00  0.00    +0.000 OA
ATOM      3  N   UNL     1       2.207   7.973  18.778  0.00  0.00    +0.000 N 
ATOM      4  H   UNL     1       1.576   7.750  19.531  0.00  0.00    +0.000 HD
ENDROOT
BRANCH   1   9
ATOM      5  N   UNL     1       3.540   3.628  19.677  0.00  0.00    +0.000 N 
ATOM      6  C   UNL     1       2.479   4.026  20.462  0.00  0.00    +0.000 A 
ATOM      7  C   UNL     1       1.825   3.197  21.517  0.00  0.00    +0.000 C 
ATOM      8  C   UNL     1       2.153   5.311  20.075  0.00  0.00    +0.000 A 
ATOM      9  C   UNL     1       3.046   5.733  19.043  0.00  0.00    +0.000 A 
ATOM     10  C   UNL     1       3.936   4.676  18.863  0.00  0.00    +0.000 A 
ATOM     11  C   UNL     1       5.131   4.576  17.969  0.00  0.00    +0.000 C 
BRANCH   5  13
ATOM     12  C   UNL     1       3.542   1.398  18.598  0.00  0.00    +0.000 C 
ATOM     13  C   UNL     1       4.141   2.299  19.661  0.00  0.00    +0.000 C 
ENDBRANCH   5  13
ENDBRANCH   1   9
BRANCH   3  14
ATOM     14  C   UNL     1       2.133   9.276  18.173  0.00  0.00    +0.000 C 
BRANCH  14  15
ATOM     15  C   UNL     1       0.851  10.000  18.508  0.00  0.00    +0.000 A 
ATOM     16  C   UNL     1       0.758  10.727  19.707  0.00  0.00    +0.000 A 
ATOM     17  C   UNL     1      -0.438  11.340  20.084  0.00  0.00    +0.000 A 
ATOM     18  C   UNL     1      -1.562  11.232  19.269  0.00  0.00    +0.000 A 
ATOM     19  C   UNL     1      -1.476  10.536  18.059  0.00  0.00    +0.000 A 
ATOM     20  C   UNL     1      -0.271   9.934  17.665  0.00  0.00    +0.000 A 
BRANCH  19  21
ATOM     21  S   UNL     1      -2.949  10.282  17.101  0.00  0.00    +0.000 S 
ATOM     22  O   UNL     1      -2.539  10.029  15.737  0.00  0.00    +0.000 OA
ATOM     23  O   UNL     1      -3.821   9.368  17.810  0.00  0.00    +0.000 OA
BRANCH  21  24
ATOM     24  N   UNL     1      -3.700  11.791  17.086  0.00  0.00    +0.000 NA
ATOM     25  C   UNL     1      -5.116  11.828  17.450  0.00  0.00    +0.000 C 
ATOM     26  H   UNL     1      -3.445  12.291  16.232  0.00  0.00    +0.000 HD
ENDBRANCH  21  24
ENDBRANCH  19  21
ENDBRANCH  14  15
ENDBRANCH   3  14
TORSDOF 6
ENDMDL
MODEL 6
REMARK VINA RESULT:      -7.1      3.694      8.613
REMARK  Name = 
REMARK  10 active torsions:
REMARK  status: ('A' for Active; 'I' for Inactive)
REMARK    1  A    between atoms: C_1  and  C_2
REMARK    2  A    between atoms: C_2  and  N_3
REMARK    3  A    between atoms: C_4  and  C_5
REMARK    4  A    between atoms: C_7  and  C_8
REMARK    5  A    between atoms: N_10  and  C_11
REMARK    6  A    between atoms: C_11  and  C_12
REMARK    7  A    between atoms: C_16  and  S_17
REMARK    8  A    between atoms: S_17  and  N_20
REMARK    9  A    between atoms: N_20  and  C_21
REMARK   10  A    between atoms: C_23  and  C_24
REMARK                            x       y       z     vdW  Elec       q    Type
REMARK                         _______ _______ _______ _____ _____    ______ ____
ROOT
ATOM      1  C   UNL     1       0.939   9.464  18.595  0.00  0.00    +0.000 C 
ATOM      2  O   UNL     1       0.383   9.574  17.509  0.00  0.00    +0.000 OA
ATOM      3  N   UNL     1       2.087   8.713  18.747  0.00  0.00    +0.000 N 
ATOM      4  H   UNL     1       2.549   8.687  19.641  0.00  0.00    +0.000 HD
ENDROOT
BRANCH   1   9
ATOM      5  N   UNL     1      -0.086  11.699  21.328  0.00  0.00    +0.000 N 
ATOM      6  C   UNL     1      -0.369  10.492  21.930  0.00  0.00    +0.000 A 
ATOM      7  C   UNL     1      -0.928  10.320  23.304  0.00  0.00    +0.000 C 
ATOM      8  C   UNL     1      -0.032   9.503  21.026  0.00  0.00    +0.000 A 
ATOM      9  C   UNL     1       0.449  10.108  19.825  0.00  0.00    +0.000 A 
ATOM     10  C   UNL     1       0.345  11.483  20.029  0.00  0.00    +0.000 A 
ATOM     11  C   UNL     1       0.633  12.612  19.093  0.00  0.00    +0.000 C 
BRANCH   5  13
ATOM     12  C   UNL     1      -1.572  13.606  21.870  0.00  0.00    +0.000 C 
ATOM     13  C   UNL     1      -0.179  13.011  21.958  0.00  0.00    +0.000 C 
ENDBRANCH   5  13
ENDBRANCH   1   9
BRANCH   3  14
ATOM     14  C   UNL     1       2.679   8.013  17.638  0.00  0.00    +0.000 C 
BRANCH  14  15
ATOM     15  C   UNL     1       3.482   6.811  18.072  0.00  0.00    +0.000 A 
ATOM     16  C   UNL     1       3.070   6.070  19.193  0.00  0.00    +0.000 A 
ATOM     17  C   UNL     1       3.834   5.003  19.669  0.00  0.00    +0.000 A 
ATOM     18  C   UNL     1       5.025   4.661  19.032  0.00  0.00    +0.000 A 
ATOM     19  C   UNL     1       5.431   5.372  17.898  0.00  0.00    +0.000 A 
ATOM     20  C   UNL     1       4.658   6.433  17.404  0.00  0.00    +0.000 A 
BRANCH  19  21
ATOM     21  S   UNL     1       7.019   5.023  17.183  0.00  0.00    +0.000 S 
ATOM     22  O   UNL     1       7.405   6.178  16.405  0.00  0.00    +0.000 OA
ATOM     23  O   UNL     1       7.887   4.475  18.205  0.00  0.00    +0.000 OA
BRANCH  21  24
ATOM     24  N   UNL     1       6.712   3.796  16.068  0.00  0.00    +0.000 NA
ATOM     25  C   UNL     1       5.921   4.156  14.891  0.00  0.00    +0.000 C 
ATOM     26  H   UNL     1       6.419   2.951  16.561  0.00  0.00    +0.000 HD
ENDBRANCH  21  24
ENDBRANCH  19  21
ENDBRANCH  14  15
ENDBRANCH   3  14
TORSDOF 6
ENDMDL
MODEL 7
REMARK VINA RESULT:      -7.0      3.685      8.519
REMARK  Name = 
REMARK  10 active torsions:
REMARK  status: ('A' for Active; 'I' for Inactive)
REMARK    1  A    between atoms: C_1  and  C_2
REMARK    2  A    between atoms: C_2  and  N_3
REMARK    3  A    between atoms: C_4  and  C_5
REMARK    4  A    between atoms: C_7  and  C_8
REMARK    5  A    between atoms: N_10  and  C_11
REMARK    6  A    between atoms: C_11  and  C_12
REMARK    7  A    between atoms: C_16  and  S_17
REMARK    8  A    between atoms: S_17  and  N_20
REMARK    9  A    between atoms: N_20  and  C_21
REMARK   10  A    between atoms: C_23  and  C_24
REMARK                            x       y       z     vdW  Elec       q    Type
REMARK                         _______ _______ _______ _____ _____    ______ ____
ROOT
ATOM      1  C   UNL     1       0.807   9.710  18.576  0.00  0.00    +0.000 C 
ATOM      2  O   UNL     1       0.029   9.555  17.643  0.00  0.00    +0.000 OA
ATOM      3  N   UNL     1       2.044   9.097  18.594  0.00  0.00    +0.000 N 
ATOM      4  H   UNL     1       2.682   9.288  19.348  0.00  0.00    +0.000 HD
ENDROOT
BRANCH   1   9
ATOM      5  N   UNL     1      -0.213  11.182  21.786  0.00  0.00    +0.000 N 
ATOM      6  C   UNL     1       0.257  12.323  21.174  0.00  0.00    +0.000 A 
ATOM      7  C   UNL     1       0.274  13.687  21.783  0.00  0.00    +0.000 C 
ATOM      8  C   UNL     1       0.691  11.955  19.915  0.00  0.00    +0.000 A 
ATOM      9  C   UNL     1       0.510  10.548  19.748  0.00  0.00    +0.000 A 
ATOM     10  C   UNL     1      -0.002  10.089  20.960  0.00  0.00    +0.000 A 
ATOM     11  C   UNL     1      -0.320   8.694  21.395  0.00  0.00    +0.000 C 
BRANCH   5  13
ATOM     12  C   UNL     1      -2.252  11.750  23.075  0.00  0.00    +0.000 C 
ATOM     13  C   UNL     1      -0.872  11.117  23.085  0.00  0.00    +0.000 C 
ENDBRANCH   5  13
ENDBRANCH   1   9
BRANCH   3  14
ATOM     14  C   UNL     1       2.472   8.236  17.523  0.00  0.00    +0.000 C 
BRANCH  14  15
ATOM     15  C   UNL     1       3.353   7.108  18.002  0.00  0.00    +0.000 A 
ATOM     16  C   UNL     1       2.976   6.369  19.137  0.00  0.00    +0.000 A 
ATOM     17  C   UNL     1       3.808   5.373  19.652  0.00  0.00    +0.000 A 
ATOM     18  C   UNL     1       5.031   5.103  19.044  0.00  0.00    +0.000 A 
ATOM     19  C   UNL     1       5.404   5.811  17.897  0.00  0.00    +0.000 A 
ATOM     20  C   UNL     1       4.564   6.800  17.362  0.00  0.00    +0.000 A 
BRANCH  19  21
ATOM     21  S   UNL     1       7.025   5.560  17.216  0.00  0.00    +0.000 S 
ATOM     22  O   UNL     1       7.597   6.865  16.971  0.00  0.00    +0.000 OA
ATOM     23  O   UNL     1       7.720   4.566  18.006  0.00  0.00    +0.000 OA
BRANCH  21  24
ATOM     24  N   UNL     1       6.738   4.890  15.696  0.00  0.00    +0.000 NA
ATOM     25  C   UNL     1       5.854   3.726  15.645  0.00  0.00    +0.000 C 
ATOM     26  H   UNL     1       7.619   4.804  15.188  0.00  0.00    +0.000 HD
ENDBRANCH  21  24
ENDBRANCH  19  21
ENDBRANCH  14  15
ENDBRANCH   3  14
TORSDOF 6
ENDMDL
MODEL 8
REMARK VINA RESULT:      -7.0      3.965      8.144
REMARK  Name = 
REMARK  10 active torsions:
REMARK  status: ('A' for Active; 'I' for Inactive)
REMARK    1  A    between atoms: C_1  and  C_2
REMARK    2  A    between atoms: C_2  and  N_3
REMARK    3  A    between atoms: C_4  and  C_5
REMARK    4  A    between atoms: C_7  and  C_8
REMARK    5  A    between atoms: N_10  and  C_11
REMARK    6  A    between atoms: C_11  and  C_12
REMARK    7  A    between atoms: C_16  and  S_17
REMARK    8  A    between atoms: S_17  and  N_20
REMARK    9  A    between atoms: N_20  and  C_21
REMARK   10  A    between atoms: C_23  and  C_24
REMARK                            x       y       z     vdW  Elec       q    Type
REMARK                         _______ _______ _______ _____ _____    ______ ____
ROOT
ATOM      1  C   UNL     1       2.412   6.543  19.286  0.00  0.00    +0.000 C 
ATOM      2  O   UNL     1       2.237   6.214  18.120  0.00  0.00    +0.000 OA
ATOM      3  N   UNL     1       3.251   5.831  20.120  0.00  0.00    +0.000 N 
ATOM      4  H   UNL     1       3.416   6.159  21.057  0.00  0.00    +0.000 HD
ENDROOT
BRANCH   1   9
ATOM      5  N   UNL     1       0.915   9.777  20.185  0.00  0.00    +0.000 N 
ATOM      6  C   UNL     1       0.764   9.136  21.395  0.00  0.00    +0.000 A 
ATOM      7  C   UNL     1       0.148   9.729  22.619  0.00  0.00    +0.000 C 
ATOM      8  C   UNL     1       1.292   7.868  21.246  0.00  0.00    +0.000 A 
ATOM      9  C   UNL     1       1.760   7.708  19.906  0.00  0.00    +0.000 A 
ATOM     10  C   UNL     1       1.453   8.902  19.257  0.00  0.00    +0.000 A 
ATOM     11  C   UNL     1       1.641   9.285  17.823  0.00  0.00    +0.000 C 
BRANCH   5  13
ATOM     12  C   UNL     1       1.695  12.122  20.371  0.00  0.00    +0.000 C 
ATOM     13  C   UNL     1       0.600  11.175  19.914  0.00  0.00    +0.000 C 
ENDBRANCH   5  13
ENDBRANCH   1   9
BRANCH   3  14
ATOM     14  C   UNL     1       3.950   4.660  19.661  0.00  0.00    +0.000 C 
BRANCH  14  15
ATOM     15  C   UNL     1       5.207   4.996  18.896  0.00  0.00    +0.000 A 
ATOM     16  C   UNL     1       6.355   5.407  19.595  0.00  0.00    +0.000 A 
ATOM     17  C   UNL     1       7.507   5.802  18.914  0.00  0.00    +0.000 A 
ATOM     18  C   UNL     1       7.529   5.795  17.521  0.00  0.00    +0.000 A 
ATOM     19  C   UNL     1       6.404   5.360  16.814  0.00  0.00    +0.000 A 
ATOM     20  C   UNL     1       5.249   4.944  17.493  0.00  0.00    +0.000 A 
BRANCH  19  21
ATOM     21  S   UNL     1       6.392   5.494  15.043  0.00  0.00    +0.000 S 
ATOM     22  O   UNL     1       5.424   6.509  14.692  0.00  0.00    +0.000 OA
ATOM     23  O   UNL     1       7.758   5.554  14.565  0.00  0.00    +0.000 OA
BRANCH  21  24
ATOM     24  N   UNL     1       5.737   4.031  14.521  0.00  0.00    +0.000 NA
ATOM     25  C   UNL     1       6.095   3.590  13.173  0.00  0.00    +0.000 C 
ATOM     26  H   UNL     1       4.742   4.000  14.751  0.00  0.00    +0.000 HD
ENDBRANCH  21  24
ENDBRANCH  19  21
ENDBRANCH  14  15
ENDBRANCH   3  14
TORSDOF 6
ENDMDL
MODEL 9
REMARK VINA RESULT:      -7.0      3.433      8.290
REMARK  Name = 
REMARK  10 active torsions:
REMARK  status: ('A' for Active; 'I' for Inactive)
REMARK    1  A    between atoms: C_1  and  C_2
REMARK    2  A    between atoms: C_2  and  N_3
REMARK    3  A    between atoms: C_4  and  C_5
REMARK    4  A    between atoms: C_7  and  C_8
REMARK    5  A    between atoms: N_10  and  C_11
REMARK    6  A    between atoms: C_11  and  C_12
REMARK    7  A    between atoms: C_16  and  S_17
REMARK    8  A    between atoms: S_17  and  N_20
REMARK    9  A    between atoms: N_20  and  C_21
REMARK   10  A    between atoms: C_23  and  C_24
REMARK                            x       y       z     vdW  Elec       q    Type
REMARK                         _______ _______ _______ _____ _____    ______ ____
ROOT
ATOM      1  C   UNL     1       1.702   9.167  18.547  0.00  0.00    +0.000 C 
ATOM      2  O   UNL     1       1.872   9.887  17.571  0.00  0.00    +0.000 OA
ATOM      3  N   UNL     1       2.223   7.891  18.604  0.00  0.00    +0.000 N 
ATOM      4  H   UNL     1       2.112   7.345  19.442  0.00  0.00    +0.000 HD
ENDROOT
BRANCH   1   9
ATOM      5  N   UNL     1      -0.454  10.738  21.077  0.00  0.00    +0.000 N 
ATOM      6  C   UNL     1       0.116   9.763  21.866  0.00  0.00    +0.000 A 
ATOM      7  C   UNL     1      -0.171   9.545  23.315  0.00  0.00    +0.000 C 
ATOM      8  C   UNL     1       0.988   9.054  21.063  0.00  0.00    +0.000 A 
ATOM      9  C   UNL     1       0.941   9.583  19.737  0.00  0.00    +0.000 A 
ATOM     10  C   UNL     1      -0.015  10.596  19.771  0.00  0.00    +0.000 A 
ATOM     11  C   UNL     1      -0.540  11.451  18.662  0.00  0.00    +0.000 C 
BRANCH   5  13
ATOM     12  C   UNL     1      -0.611  12.983  22.112  0.00  0.00    +0.000 C 
ATOM     13  C   UNL     1      -1.352  11.792  21.534  0.00  0.00    +0.000 C 
ENDBRANCH   5  13
ENDBRANCH   1   9
BRANCH   3  14
ATOM     14  C   UNL     1       2.980   7.339  17.511  0.00  0.00    +0.000 C 
BRANCH  14  15
ATOM     15  C   UNL     1       3.950   6.272  17.957  0.00  0.00    +0.000 A 
ATOM     16  C   UNL     1       5.305   6.375  17.600  0.00  0.00    +0.000 A 
ATOM     17  C   UNL     1       6.212   5.365  17.927  0.00  0.00    +0.000 A 
ATOM     18  C   UNL     1       5.777   4.234  18.613  0.00  0.00    +0.000 A 
ATOM     19  C   UNL     1       4.437   4.133  19.000  0.00  0.00    +0.000 A 
ATOM     20  C   UNL     1       3.524   5.153  18.691  0.00  0.00    +0.000 A 
BRANCH  19  21
ATOM     21  S   UNL     1       3.864   2.626  19.745  0.00  0.00    +0.000 S 
ATOM     22  O   UNL     1       3.057   1.938  18.762  0.00  0.00    +0.000 OA
ATOM     23  O   UNL     1       4.976   1.972  20.402  0.00  0.00    +0.000 OA
BRANCH  21  24
ATOM     24  N   UNL     1       2.795   3.136  20.945  0.00  0.00    +0.000 NA
ATOM     25  C   UNL     1       1.381   2.819  20.747  0.00  0.00    +0.000 C 
ATOM     26  H   UNL     1       3.005   4.102  21.202  0.00  0.00    +0.000 HD
ENDBRANCH  21  24
ENDBRANCH  19  21
ENDBRANCH  14  15
ENDBRANCH   3  14
TORSDOF 6
ENDMDL
