MODEL 1
REMARK VINA RESULT:      -7.7      0.000      0.000
REMARK  Name = 
REMARK  9 active torsions:
REMARK  status: ('A' for Active; 'I' for Inactive)
REMARK    1  A    between atoms: C_2  and  O_3
REMARK    2  A    between atoms: C_2  and  C_4
REMARK    3  A    between atoms: N_8  and  C_9
REMARK    4  A    between atoms: C_9  and  C_10
REMARK    5  A    between atoms: C_10  and  C_11
REMARK    6  A    between atoms: C_12  and  C_13
REMARK    7  A    between atoms: C_12  and  C_19
REMARK    8  A    between atoms: C_24  and  O_25
REMARK    9  A    between atoms: O_25  and  C_26
REMARK                            x       y       z     vdW  Elec       q    Type
REMARK                         _______ _______ _______ _____ _____    ______ ____
ROOT
ATOM      1  C   UNL     1       0.351   9.416  17.995  0.00  0.00    +0.000 C 
ATOM      2  C   UNL     1      -0.367  10.519  18.314  0.00  0.00    +0.000 C 
ENDROOT
BRANCH   2   3
ATOM      3  C   UNL     1      -1.724  10.667  17.732  0.00  0.00    +0.000 A 
ATOM      4  C   UNL     1      -2.099   9.943  16.593  0.00  0.00    +0.000 A 
ATOM      5  C   UNL     1      -3.389  10.063  16.065  0.00  0.00    +0.000 A 
ATOM      6  C   UNL     1      -4.316  10.911  16.667  0.00  0.00    +0.000 A 
ATOM      7  C   UNL     1      -3.953  11.641  17.799  0.00  0.00    +0.000 A 
ATOM      8  C   UNL     1      -2.663  11.520  18.328  0.00  0.00    +0.000 A 
ENDBRANCH   2   3
BRANCH   2   9
ATOM      9  C   UNL     1       0.180  11.466  19.315  0.00  0.00    +0.000 A 
ATOM     10  C   UNL     1       0.949  12.532  18.818  0.00  0.00    +0.000 A 
ATOM     11  C   UNL     1       1.415  13.528  19.669  0.00  0.00    +0.000 A 
ATOM     12  C   UNL     1       1.089  13.482  21.020  0.00  0.00    +0.000 A 
ATOM     13  C   UNL     1       0.334  12.421  21.529  0.00  0.00    +0.000 A 
ATOM     14  C   UNL     1      -0.083  11.376  20.696  0.00  0.00    +0.000 A 
BRANCH  14  15
ATOM     15  O   UNL     1      -0.791  10.289  21.122  0.00  0.00    +0.000 OA
BRANCH  15  16
ATOM     16  C   UNL     1      -0.127   9.278  21.868  0.00  0.00    +0.000 C 
ATOM     17  F   UNL     1      -0.497   8.018  21.554  0.00  0.00    +0.000 F 
ATOM     18  F   UNL     1       1.208   9.394  21.692  0.00  0.00    +0.000 F 
ATOM     19  F   UNL     1      -0.393   9.464  23.182  0.00  0.00    +0.000 F 
ENDBRANCH  15  16
ENDBRANCH  14  15
ENDBRANCH   2   9
BRANCH   1  20
ATOM     20  C   UNL     1       1.774   9.092  18.410  0.00  0.00    +0.000 C 
BRANCH  20  21
ATOM     21  C   UNL     1       2.427   7.833  17.787  0.00  0.00    +0.000 C 
BRANCH  21  26
ATOM     22  C   UNL     1       2.827   4.207  18.783  0.00  0.00    +0.000 C 
ATOM     23  C   UNL     1       2.699   4.307  20.304  0.00  0.00    +0.000 C 
ATOM     24  C   UNL     1       1.859   5.510  20.731  0.00  0.00    +0.000 C 
ATOM     25  C   UNL     1       2.247   6.790  19.981  0.00  0.00    +0.000 C 
ATOM     26  N   UNL     1       2.216   6.564  18.516  0.00  0.00    +0.000 NA
ATOM     27  C   UNL     1       3.230   5.545  18.166  0.00  0.00    +0.000 C 
BRANCH  22  29
ATOM     28  O   UNL     1       0.974   2.668  18.622  0.00  0.00    +0.000 OA
ATOM     29  C   UNL     1       1.548   3.654  18.175  0.00  0.00    +0.000 C 
BRANCH  29  30
ATOM     30  O   UNL     1       1.039   4.360  17.143  0.00  0.00    +0.000 OA
ATOM     31  H   UNL     1       0.212   4.836  17.401  0.00  0.00    +0.000 HD
ENDBRANCH  29  30
ENDBRANCH  22  29
ENDBRANCH  21  26
ENDBRANCH  20  21
ENDBRANCH   1  20
TORSDOF 9
ENDMDL
MODEL 2
REMARK VINA RESULT:      -7.7      3.320      8.254
REMARK  Name = 
REMARK  9 active torsions:
REMARK  status: ('A' for Active; 'I' for Inactive)
REMARK    1  A    between atoms: C_2  and  O_3
REMARK    2  A    between atoms: C_2  and  C_4
REMARK    3  A    between atoms: N_8  and  C_9
REMARK    4  A    between atoms: C_9  and  C_10
REMARK    5  A    between atoms: C_10  and  C_11
REMARK    6  A    between atoms: C_12  and  C_13
REMARK    7  A    between atoms: C_12  and  C_19
REMARK    8  A    between atoms: C_24  and  O_25
REMARK    9  A    between atoms: O_25  and  C_26
REMARK                            x       y       z     vdW  Elec       q    Type
REMARK                         _______ _______ _______ _____ _____    ______ ____
ROOT
ATOM      1  C   UNL     1       3.278   7.665  17.584  0.00  0.00    +0.000 C 
ATOM      2  C   UNL     1       3.661   6.427  17.975  0.00  0.00    +0.000 C 
ENDROOT
BRANCH   2   3
ATOM      3  C   UNL     1       5.011   5.952  17.581  0.00  0.00    +0.000 A 
ATOM      4  C   UNL     1       5.939   5.547  18.550  0.00  0.00    +0.000 A 
ATOM      5  C   UNL     1       7.200   5.071  18.173  0.00  0.00    +0.000 A 
ATOM      6  C   UNL     1       7.547   5.000  16.826  0.00  0.00    +0.000 A 
ATOM      7  C   UNL     1       6.634   5.405  15.853  0.00  0.00    +0.000 A 
ATOM      8  C   UNL     1       5.373   5.880  16.229  0.00  0.00    +0.000 A 
ENDBRANCH   2   3
BRANCH   2   9
ATOM      9  C   UNL     1       2.772   5.651  18.872  0.00  0.00    +0.000 A 
ATOM     10  C   UNL     1       2.329   6.300  20.036  0.00  0.00    +0.000 A 
ATOM     11  C   UNL     1       1.411   5.690  20.883  0.00  0.00    +0.000 A 
ATOM     12  C   UNL     1       0.904   4.438  20.557  0.00  0.00    +0.000 A 
ATOM     13  C   UNL     1       1.344   3.775  19.406  0.00  0.00    +0.000 A 
ATOM     14  C   UNL     1       2.320   4.348  18.582  0.00  0.00    +0.000 A 
BRANCH  14  15
ATOM     15  O   UNL     1       2.827   3.751  17.463  0.00  0.00    +0.000 OA
BRANCH  15  16
ATOM     16  C   UNL     1       3.741   2.672  17.607  0.00  0.00    +0.000 C 
ATOM     17  F   UNL     1       3.174   1.448  17.558  0.00  0.00    +0.000 F 
ATOM     18  F   UNL     1       4.684   2.751  16.641  0.00  0.00    +0.000 F 
ATOM     19  F   UNL     1       4.361   2.787  18.804  0.00  0.00    +0.000 F 
ENDBRANCH  15  16
ENDBRANCH  14  15
ENDBRANCH   2   9
BRANCH   1  20
ATOM     20  C   UNL     1       1.930   8.325  17.808  0.00  0.00    +0.000 C 
BRANCH  20  21
ATOM     21  C   UNL     1       1.917   9.858  18.032  0.00  0.00    +0.000 C 
BRANCH  21  26
ATOM     22  C   UNL     1      -0.096  12.211  20.203  0.00  0.00    +0.000 C 
ATOM     23  C   UNL     1      -1.492  12.041  19.600  0.00  0.00    +0.000 C 
ATOM     24  C   UNL     1      -1.672  10.670  18.950  0.00  0.00    +0.000 C 
ATOM     25  C   UNL     1      -0.482  10.280  18.065  0.00  0.00    +0.000 C 
ATOM     26  N   UNL     1       0.787  10.389  18.825  0.00  0.00    +0.000 NA
ATOM     27  C   UNL     1       0.994  11.801  19.215  0.00  0.00    +0.000 C 
BRANCH  22  29
ATOM     28  O   UNL     1      -0.900  11.432  22.342  0.00  0.00    +0.000 OA
ATOM     29  C   UNL     1       0.010  11.462  21.522  0.00  0.00    +0.000 C 
BRANCH  29  30
ATOM     30  O   UNL     1       1.153  10.768  21.709  0.00  0.00    +0.000 OA
ATOM     31  H   UNL     1       0.974   9.810  21.875  0.00  0.00    +0.000 HD
ENDBRANCH  29  30
ENDBRANCH  22  29
ENDBRANCH  21  26
ENDBRANCH  20  21
ENDBRANCH   1  20
TORSDOF 9
ENDMDL
MODEL 3
REMARK VINA RESULT:      -7.7      3.477      8.137
REMARK  Name = 
REMARK  9 active torsions:
REMARK  status: ('A' for Active; 'I' for Inactive)
REMARK    1  A    between atoms: C_2  and  O_3
REMARK    2  A    between atoms: C_2  and  C_4
REMARK    3  A    between atoms: N_8  and  C_9
REMARK    4  A    between atoms: C_9  and  C_10
REMARK    5  A    between atoms: C_10  and  C_11
REMARK    6  A    between atoms: C_12  and  C_13
REMARK    7  A    between atoms: C_12  and  C_19
REMARK    8  A    between atoms: C_24  and  O_25
REMARK    9  A    between atoms: O_25  and  C_26
REMARK                            x       y       z     vdW  Elec       q    Type
REMARK                         _______ _______ _______ _____ _____    ______ ____
ROOT
ATOM      1  C   UNL     1       3.204   7.809  17.516  0.00  0.00    +0.000 C 
ATOM      2  C   UNL     1       3.590   6.561  17.872  0.00  0.00    +0.000 C 
ENDROOT
BRANCH   2   3
ATOM      3  C   UNL     1       4.904   6.067  17.389  0.00  0.00    +0.000 A 
ATOM      4  C   UNL     1       5.902   5.683  18.294  0.00  0.00    +0.000 A 
ATOM      5  C   UNL     1       7.128   5.190  17.835  0.00  0.00    +0.000 A 
ATOM      6  C   UNL     1       7.371   5.080  16.467  0.00  0.00    +0.000 A 
ATOM      7  C   UNL     1       6.388   5.465  15.556  0.00  0.00    +0.000 A 
ATOM      8  C   UNL     1       5.160   5.957  16.015  0.00  0.00    +0.000 A 
ENDBRANCH   2   3
BRANCH   2   9
ATOM      9  C   UNL     1       2.747   5.791  18.816  0.00  0.00    +0.000 A 
ATOM     10  C   UNL     1       2.336   6.459  19.982  0.00  0.00    +0.000 A 
ATOM     11  C   UNL     1       1.458   5.854  20.875  0.00  0.00    +0.000 A 
ATOM     12  C   UNL     1       0.960   4.587  20.593  0.00  0.00    +0.000 A 
ATOM     13  C   UNL     1       1.369   3.906  19.442  0.00  0.00    +0.000 A 
ATOM     14  C   UNL     1       2.305   4.475  18.571  0.00  0.00    +0.000 A 
BRANCH  14  15
ATOM     15  O   UNL     1       2.781   3.862  17.447  0.00  0.00    +0.000 OA
BRANCH  15  16
ATOM     16  C   UNL     1       3.673   2.764  17.582  0.00  0.00    +0.000 C 
ATOM     17  F   UNL     1       3.078   1.552  17.551  0.00  0.00    +0.000 F 
ATOM     18  F   UNL     1       4.600   2.817  16.599  0.00  0.00    +0.000 F 
ATOM     19  F   UNL     1       4.316   2.872  18.767  0.00  0.00    +0.000 F 
ENDBRANCH  15  16
ENDBRANCH  14  15
ENDBRANCH   2   9
BRANCH   1  20
ATOM     20  C   UNL     1       1.885   8.489  17.831  0.00  0.00    +0.000 C 
BRANCH  20  21
ATOM     21  C   UNL     1       1.944   9.857  18.556  0.00  0.00    +0.000 C 
BRANCH  21  26
ATOM     22  C   UNL     1      -1.637  11.011  18.934  0.00  0.00    +0.000 C 
ATOM     23  C   UNL     1      -1.437  12.509  19.167  0.00  0.00    +0.000 C 
ATOM     24  C   UNL     1      -0.146  13.021  18.529  0.00  0.00    +0.000 C 
ATOM     25  C   UNL     1       1.051  12.108  18.818  0.00  0.00    +0.000 C 
ATOM     26  N   UNL     1       0.742  10.709  18.435  0.00  0.00    +0.000 NA
ATOM     27  C   UNL     1      -0.376  10.218  19.271  0.00  0.00    +0.000 C 
BRANCH  22  29
ATOM     28  O   UNL     1      -3.035  11.381  17.000  0.00  0.00    +0.000 OA
ATOM     29  C   UNL     1      -2.119  10.751  17.515  0.00  0.00    +0.000 C 
BRANCH  29  30
ATOM     30  O   UNL     1      -1.426   9.821  16.824  0.00  0.00    +0.000 OA
ATOM     31  H   UNL     1      -2.028   9.171  16.384  0.00  0.00    +0.000 HD
ENDBRANCH  29  30
ENDBRANCH  22  29
ENDBRANCH  21  26
ENDBRANCH  20  21
ENDBRANCH   1  20
TORSDOF 9
ENDMDL
MODEL 4
REMARK VINA RESULT:      -7.6      3.547      8.344
REMARK  Name = 
REMARK  9 active torsions:
REMARK  status: ('A' for Active; 'I' for Inactive)
REMARK    1  A    between atoms: C_2  and  O_3
REMARK    2  A    between atoms: C_2  and  C_4
REMARK    3  A    between atoms: N_8  and  C_9
REMARK    4  A    between atoms: C_9  and  C_10
REMARK    5  A    between atoms: C_10  and  C_11
REMARK    6  A    between atoms: C_12  and  C_13
REMARK    7  A    between atoms: C_12  and  C_19
REMARK    8  A    between atoms: C_24  and  O_25
REMARK    9  A    between atoms: O_25  and  C_26
REMARK                            x       y       z     vdW  Elec       q    Type
REMARK                         _______ _______ _______ _____ _____    ______ ____
ROOT
ATOM      1  C   UNL     1       3.257   7.705  17.618  0.00  0.00    +0.000 C 
ATOM      2  C   UNL     1       3.640   6.462  17.989  0.00  0.00    +0.000 C 
ENDROOT
BRANCH   2   3
ATOM      3  C   UNL     1       4.983   5.986  17.572  0.00  0.00    +0.000 A 
ATOM      4  C   UNL     1       5.909   5.531  18.519  0.00  0.00    +0.000 A 
ATOM      5  C   UNL     1       7.163   5.056  18.120  0.00  0.00    +0.000 A 
ATOM      6  C   UNL     1       7.505   5.035  16.769  0.00  0.00    +0.000 A 
ATOM      7  C   UNL     1       6.595   5.490  15.817  0.00  0.00    +0.000 A 
ATOM      8  C   UNL     1       5.340   5.964  16.216  0.00  0.00    +0.000 A 
ENDBRANCH   2   3
BRANCH   2   9
ATOM      9  C   UNL     1       2.761   5.677  18.888  0.00  0.00    +0.000 A 
ATOM     10  C   UNL     1       2.338   6.314  20.068  0.00  0.00    +0.000 A 
ATOM     11  C   UNL     1       1.429   5.697  20.920  0.00  0.00    +0.000 A 
ATOM     12  C   UNL     1       0.911   4.452  20.584  0.00  0.00    +0.000 A 
ATOM     13  C   UNL     1       1.331   3.803  19.418  0.00  0.00    +0.000 A 
ATOM     14  C   UNL     1       2.297   4.381  18.588  0.00  0.00    +0.000 A 
BRANCH  14  15
ATOM     15  O   UNL     1       2.785   3.796  17.454  0.00  0.00    +0.000 OA
BRANCH  15  16
ATOM     16  C   UNL     1       3.705   2.719  17.569  0.00  0.00    +0.000 C 
ATOM     17  F   UNL     1       4.396   2.696  18.729  0.00  0.00    +0.000 F 
ATOM     18  F   UNL     1       3.042   1.548  17.437  0.00  0.00    +0.000 F 
ATOM     19  F   UNL     1       4.603   2.807  16.561  0.00  0.00    +0.000 F 
ENDBRANCH  15  16
ENDBRANCH  14  15
ENDBRANCH   2   9
BRANCH   1  20
ATOM     20  C   UNL     1       1.914   8.367  17.867  0.00  0.00    +0.000 C 
BRANCH  20  21
ATOM     21  C   UNL     1       1.867   9.915  17.834  0.00  0.00    +0.000 C 
BRANCH  21  26
ATOM     22  C   UNL     1       0.165  12.445  20.071  0.00  0.00    +0.000 C 
ATOM     23  C   UNL     1      -0.413  11.533  21.155  0.00  0.00    +0.000 C 
ATOM     24  C   UNL     1       0.398  10.248  21.315  0.00  0.00    +0.000 C 
ATOM     25  C   UNL     1       0.736   9.598  19.967  0.00  0.00    +0.000 C 
ATOM     26  N   UNL     1       1.391  10.577  19.068  0.00  0.00    +0.000 NA
ATOM     27  C   UNL     1       0.443  11.676  18.781  0.00  0.00    +0.000 C 
BRANCH  22  29
ATOM     28  O   UNL     1       1.466  13.645  21.714  0.00  0.00    +0.000 OA
ATOM     29  C   UNL     1       1.399  13.171  20.586  0.00  0.00    +0.000 C 
BRANCH  29  30
ATOM     30  O   UNL     1       2.452  13.203  19.742  0.00  0.00    +0.000 OA
ATOM     31  H   UNL     1       2.168  13.085  18.802  0.00  0.00    +0.000 HD
ENDBRANCH  29  30
ENDBRANCH  22  29
ENDBRANCH  21  26
ENDBRANCH  20  21
ENDBRANCH   1  20
TORSDOF 9
ENDMDL
MODEL 5
REMARK VINA RESULT:      -7.5      3.479      8.155
REMARK  Name = 
REMARK  9 active torsions:
REMARK  status: ('A' for Active; 'I' for Inactive)
REMARK    1  A    between atoms: C_2  and  O_3
REMARK    2  A    between atoms: C_2  and  C_4
REMARK    3  A    between atoms: N_8  and  C_9
REMARK    4  A    between atoms: C_9  and  C_10
REMARK    5  A    between atoms: C_10  and  C_11
REMARK    6  A    between atoms: C_12  and  C_13
REMARK    7  A    between atoms: C_12  and  C_19
REMARK    8  A    between atoms: C_24  and  O_25
REMARK    9  A    between atoms: O_25  and  C_26
REMARK                            x       y       z     vdW  Elec       q    Type
REMARK                         _______ _______ _______ _____ _____    ______ ____
ROOT
ATOM      1  C   UNL     1       3.161   7.726  17.543  0.00  0.00    +0.000 C 
ATOM      2  C   UNL     1       3.555   6.484  17.911  0.00  0.00    +0.000 C 
ENDROOT
BRANCH   2   3
ATOM      3  C   UNL     1       4.883   6.004  17.454  0.00  0.00    +0.000 A 
ATOM      4  C   UNL     1       5.189   5.932  16.089  0.00  0.00    +0.000 A 
ATOM      5  C   UNL     1       6.453   5.507  15.663  0.00  0.00    +0.000 A 
ATOM      6  C   UNL     1       7.421   5.145  16.598  0.00  0.00    +0.000 A 
ATOM      7  C   UNL     1       7.127   5.207  17.959  0.00  0.00    +0.000 A 
ATOM      8  C   UNL     1       5.863   5.633  18.385  0.00  0.00    +0.000 A 
ENDBRANCH   2   3
BRANCH   2   9
ATOM      9  C   UNL     1       2.704   5.708  18.844  0.00  0.00    +0.000 A 
ATOM     10  C   UNL     1       2.311   6.359  20.026  0.00  0.00    +0.000 A 
ATOM     11  C   UNL     1       1.428   5.750  20.911  0.00  0.00    +0.000 A 
ATOM     12  C   UNL     1       0.908   4.497  20.606  0.00  0.00    +0.000 A 
ATOM     13  C   UNL     1       1.299   3.834  19.439  0.00  0.00    +0.000 A 
ATOM     14  C   UNL     1       2.240   4.406  18.574  0.00  0.00    +0.000 A 
BRANCH  14  15
ATOM     15  O   UNL     1       2.699   3.808  17.436  0.00  0.00    +0.000 OA
BRANCH  15  16
ATOM     16  C   UNL     1       3.651   2.757  17.539  0.00  0.00    +0.000 C 
ATOM     17  F   UNL     1       4.609   2.775  16.589  0.00  0.00    +0.000 F 
ATOM     18  F   UNL     1       4.243   2.807  18.754  0.00  0.00    +0.000 F 
ATOM     19  F   UNL     1       3.001   1.575  17.440  0.00  0.00    +0.000 F 
ENDBRANCH  15  16
ENDBRANCH  14  15
ENDBRANCH   2   9
BRANCH   1  20
ATOM     20  C   UNL     1       1.828   8.391  17.830  0.00  0.00    +0.000 C 
BRANCH  20  21
ATOM     21  C   UNL     1       1.846   9.674  18.699  0.00  0.00    +0.000 C 
BRANCH  21  26
ATOM     22  C   UNL     1      -1.653  11.097  18.886  0.00  0.00    +0.000 C 
ATOM     23  C   UNL     1      -1.352  12.583  19.087  0.00  0.00    +0.000 C 
ATOM     24  C   UNL     1      -0.001  12.980  18.494  0.00  0.00    +0.000 C 
ATOM     25  C   UNL     1       1.112  11.991  18.860  0.00  0.00    +0.000 C 
ATOM     26  N   UNL     1       0.716  10.607  18.502  0.00  0.00    +0.000 NA
ATOM     27  C   UNL     1      -0.469  10.225  19.300  0.00  0.00    +0.000 C 
BRANCH  22  29
ATOM     28  O   UNL     1      -1.887   9.764  16.887  0.00  0.00    +0.000 OA
ATOM     29  C   UNL     1      -2.092  10.830  17.454  0.00  0.00    +0.000 C 
BRANCH  29  30
ATOM     30  O   UNL     1      -2.788  11.823  16.862  0.00  0.00    +0.000 OA
ATOM     31  H   UNL     1      -3.760  11.639  16.868  0.00  0.00    +0.000 HD
ENDBRANCH  29  30
ENDBRANCH  22  29
ENDBRANCH  21  26
ENDBRANCH  20  21
ENDBRANCH   1  20
TORSDOF 9
ENDMDL
MODEL 6
REMARK VINA RESULT:      -7.5      4.246      8.415
REMARK  Name = 
REMARK  9 active torsions:
REMARK  status: ('A' for Active; 'I' for Inactive)
REMARK    1  A    between atoms: C_2  and  O_3
REMARK    2  A    between atoms: C_2  and  C_4
REMARK    3  A    between atoms: N_8  and  C_9
REMARK    4  A    between atoms: C_9  and  C_10
REMARK    5  A    between atoms: C_10  and  C_11
REMARK    6  A    between atoms: C_12  and  C_13
REMARK    7  A    between atoms: C_12  and  C_19
REMARK    8  A    between atoms: C_24  and  O_25
REMARK    9  A    between atoms: O_25  and  C_26
REMARK                            x       y       z     vdW  Elec       q    Type
REMARK                         _______ _______ _______ _____ _____    ______ ____
ROOT
ATOM      1  C   UNL     1       2.800   6.395  17.884  0.00  0.00    +0.000 C 
ATOM      2  C   UNL     1       3.584   5.318  18.119  0.00  0.00    +0.000 C 
ENDROOT
BRANCH   2   3
ATOM      3  C   UNL     1       2.932   3.992  18.265  0.00  0.00    +0.000 A 
ATOM      4  C   UNL     1       3.680   2.811  18.172  0.00  0.00    +0.000 A 
ATOM      5  C   UNL     1       3.067   1.565  18.340  0.00  0.00    +0.000 A 
ATOM      6  C   UNL     1       1.701   1.486  18.599  0.00  0.00    +0.000 A 
ATOM      7  C   UNL     1       0.944   2.654  18.689  0.00  0.00    +0.000 A 
ATOM      8  C   UNL     1       1.558   3.901  18.522  0.00  0.00    +0.000 A 
ENDBRANCH   2   3
BRANCH   2   9
ATOM      9  C   UNL     1       5.057   5.484  18.102  0.00  0.00    +0.000 A 
ATOM     10  C   UNL     1       5.687   5.636  19.349  0.00  0.00    +0.000 A 
ATOM     11  C   UNL     1       7.074   5.694  19.441  0.00  0.00    +0.000 A 
ATOM     12  C   UNL     1       7.842   5.569  18.290  0.00  0.00    +0.000 A 
ATOM     13  C   UNL     1       7.228   5.428  17.041  0.00  0.00    +0.000 A 
ATOM     14  C   UNL     1       5.833   5.439  16.927  0.00  0.00    +0.000 A 
BRANCH  14  15
ATOM     15  O   UNL     1       5.159   5.343  15.743  0.00  0.00    +0.000 OA
BRANCH  15  16
ATOM     16  C   UNL     1       5.642   4.462  14.739  0.00  0.00    +0.000 C 
ATOM     17  F   UNL     1       6.061   3.264  15.200  0.00  0.00    +0.000 F 
ATOM     18  F   UNL     1       4.674   4.258  13.817  0.00  0.00    +0.000 F 
ATOM     19  F   UNL     1       6.692   5.049  14.118  0.00  0.00    +0.000 F 
ENDBRANCH  15  16
ENDBRANCH  14  15
ENDBRANCH   2   9
BRANCH   1  20
ATOM     20  C   UNL     1       3.236   7.845  17.772  0.00  0.00    +0.000 C 
BRANCH  20  21
ATOM     21  C   UNL     1       2.123   8.920  17.720  0.00  0.00    +0.000 C 
BRANCH  21  26
ATOM     22  C   UNL     1      -0.155  10.575  20.245  0.00  0.00    +0.000 C 
ATOM     23  C   UNL     1      -0.105   9.563  21.390  0.00  0.00    +0.000 C 
ATOM     24  C   UNL     1       1.200   8.768  21.396  0.00  0.00    +0.000 C 
ATOM     25  C   UNL     1       1.581   8.258  20.001  0.00  0.00    +0.000 C 
ATOM     26  N   UNL     1       1.598   9.375  19.026  0.00  0.00    +0.000 NA
ATOM     27  C   UNL     1       0.233   9.935  18.914  0.00  0.00    +0.000 C 
BRANCH  22  29
ATOM     28  O   UNL     1       0.729  12.301  21.684  0.00  0.00    +0.000 OA
ATOM     29  C   UNL     1       0.699  11.792  20.570  0.00  0.00    +0.000 C 
BRANCH  29  30
ATOM     30  O   UNL     1       1.482  12.240  19.566  0.00  0.00    +0.000 OA
ATOM     31  H   UNL     1       0.946  12.509  18.779  0.00  0.00    +0.000 HD
ENDBRANCH  29  30
ENDBRANCH  22  29
ENDBRANCH  21  26
ENDBRANCH  20  21
ENDBRANCH   1  20
TORSDOF 9
ENDMDL
MODEL 7
REMARK VINA RESULT:      -7.4      1.187      1.636
REMARK  Name = 
REMARK  9 active torsions:
REMARK  status: ('A' for Active; 'I' for Inactive)
REMARK    1  A    between atoms: C_2  and  O_3
REMARK    2  A    between atoms: C_2  and  C_4
REMARK    3  A    between atoms: N_8  and  C_9
REMARK    4  A    between atoms: C_9  and  C_10
REMARK    5  A    between atoms: C_10  and  C_11
REMARK    6  A    between atoms: C_12  and  C_13
REMARK    7  A    between atoms: C_12  and  C_19
REMARK    8  A    between atoms: C_24  and  O_25
REMARK    9  A    between atoms: O_25  and  C_26
REMARK                            x       y       z     vdW  Elec       q    Type
REMARK                         _______ _______ _______ _____ _____    ______ ____
ROOT
ATOM      1  C   UNL     1       0.461   9.293  18.142  0.00  0.00    +0.000 C 
ATOM      2  C   UNL     1      -0.255  10.414  18.393  0.00  0.00    +0.000 C 
ENDROOT
BRANCH   2   3
ATOM      3  C   UNL     1      -1.592  10.550  17.762  0.00  0.00    +0.000 A 
ATOM      4  C   UNL     1      -1.929   9.802  16.627  0.00  0.00    +0.000 A 
ATOM      5  C   UNL     1      -3.200   9.911  16.053  0.00  0.00    +0.000 A 
ATOM      6  C   UNL     1      -4.146  10.772  16.606  0.00  0.00    +0.000 A 
ATOM      7  C   UNL     1      -3.821  11.526  17.733  0.00  0.00    +0.000 A 
ATOM      8  C   UNL     1      -2.549  11.416  18.307  0.00  0.00    +0.000 A 
ENDBRANCH   2   3
BRANCH   2   9
ATOM      9  C   UNL     1       0.269  11.397  19.370  0.00  0.00    +0.000 A 
ATOM     10  C   UNL     1       1.062  12.436  18.855  0.00  0.00    +0.000 A 
ATOM     11  C   UNL     1       1.511  13.462  19.679  0.00  0.00    +0.000 A 
ATOM     12  C   UNL     1       1.145  13.473  21.020  0.00  0.00    +0.000 A 
ATOM     13  C   UNL     1       0.365  12.440  21.549  0.00  0.00    +0.000 A 
ATOM     14  C   UNL     1      -0.035  11.365  20.746  0.00  0.00    +0.000 A 
BRANCH  14  15
ATOM     15  O   UNL     1      -0.765  10.302  21.194  0.00  0.00    +0.000 OA
BRANCH  15  16
ATOM     16  C   UNL     1      -0.129   9.307  21.985  0.00  0.00    +0.000 C 
ATOM     17  F   UNL     1      -0.328   9.438  23.314  0.00  0.00    +0.000 F 
ATOM     18  F   UNL     1      -0.560   8.085  21.600  0.00  0.00    +0.000 F 
ATOM     19  F   UNL     1       1.205   9.368  21.765  0.00  0.00    +0.000 F 
ENDBRANCH  15  16
ENDBRANCH  14  15
ENDBRANCH   2   9
BRANCH   1  20
ATOM     20  C   UNL     1       1.867   8.974  18.615  0.00  0.00    +0.000 C 
BRANCH  20  21
ATOM     21  C   UNL     1       2.667   7.920  17.808  0.00  0.00    +0.000 C 
BRANCH  21  26
ATOM     22  C   UNL     1       2.364   4.443  19.263  0.00  0.00    +0.000 C 
ATOM     23  C   UNL     1       3.777   3.906  19.031  0.00  0.00    +0.000 C 
ATOM     24  C   UNL     1       4.815   5.026  18.988  0.00  0.00    +0.000 C 
ATOM     25  C   UNL     1       4.369   6.205  18.115  0.00  0.00    +0.000 C 
ATOM     26  N   UNL     1       3.029   6.684  18.534  0.00  0.00    +0.000 NA
ATOM     27  C   UNL     1       2.043   5.602  18.321  0.00  0.00    +0.000 C 
BRANCH  22  29
ATOM     28  O   UNL     1       2.304   4.010  21.637  0.00  0.00    +0.000 OA
ATOM     29  C   UNL     1       2.166   4.815  20.724  0.00  0.00    +0.000 C 
BRANCH  29  30
ATOM     30  O   UNL     1       1.893   6.116  20.963  0.00  0.00    +0.000 OA
ATOM     31  H   UNL     1       1.743   6.616  20.123  0.00  0.00    +0.000 HD
ENDBRANCH  29  30
ENDBRANCH  22  29
ENDBRANCH  21  26
ENDBRANCH  20  21
ENDBRANCH   1  20
TORSDOF 9
ENDMDL
MODEL 8
REMARK VINA RESULT:      -7.4      4.171      8.089
REMARK  Name = 
REMARK  9 active torsions:
REMARK  status: ('A' for Active; 'I' for Inactive)
REMARK    1  A    between atoms: C_2  and  O_3
REMARK    2  A    between atoms: C_2  and  C_4
REMARK    3  A    between atoms: N_8  and  C_9
REMARK    4  A    between atoms: C_9  and  C_10
REMARK    5  A    between atoms: C_10  and  C_11
REMARK    6  A    between atoms: C_12  and  C_13
REMARK    7  A    between atoms: C_12  and  C_19
REMARK    8  A    between atoms: C_24  and  O_25
REMARK    9  A    between atoms: O_25  and  C_26
REMARK                            x       y       z     vdW  Elec       q    Type
REMARK                         _______ _______ _______ _____ _____    ______ ____
ROOT
ATOM      1  C   UNL     1       2.760   6.577  17.912  0.00  0.00    +0.000 C 
ATOM      2  C   UNL     1       3.480   5.456  18.149  0.00  0.00    +0.000 C 
ENDROOT
BRANCH   2   3
ATOM      3  C   UNL     1       2.753   4.171  18.303  0.00  0.00    +0.000 A 
ATOM      4  C   UNL     1       3.244   2.995  17.721  0.00  0.00    +0.000 A 
ATOM      5  C   UNL     1       2.571   1.780  17.894  0.00  0.00    +0.000 A 
ATOM      6  C   UNL     1       1.399   1.730  18.645  0.00  0.00    +0.000 A 
ATOM      7  C   UNL     1       0.897   2.895  19.224  0.00  0.00    +0.000 A 
ATOM      8  C   UNL     1       1.570   4.110  19.053  0.00  0.00    +0.000 A 
ENDBRANCH   2   3
BRANCH   2   9
ATOM      9  C   UNL     1       4.960   5.536  18.126  0.00  0.00    +0.000 A 
ATOM     10  C   UNL     1       5.603   5.667  19.369  0.00  0.00    +0.000 A 
ATOM     11  C   UNL     1       6.990   5.645  19.457  0.00  0.00    +0.000 A 
ATOM     12  C   UNL     1       7.746   5.461  18.305  0.00  0.00    +0.000 A 
ATOM     13  C   UNL     1       7.121   5.340  17.060  0.00  0.00    +0.000 A 
ATOM     14  C   UNL     1       5.728   5.430  16.949  0.00  0.00    +0.000 A 
BRANCH  14  15
ATOM     15  O   UNL     1       5.045   5.359  15.769  0.00  0.00    +0.000 OA
BRANCH  15  16
ATOM     16  C   UNL     1       5.542   4.527  14.730  0.00  0.00    +0.000 C 
ATOM     17  F   UNL     1       4.648   4.256  13.754  0.00  0.00    +0.000 F 
ATOM     18  F   UNL     1       6.629   5.106  14.172  0.00  0.00    +0.000 F 
ATOM     19  F   UNL     1       5.927   3.346  15.267  0.00  0.00    +0.000 F 
ENDBRANCH  15  16
ENDBRANCH  14  15
ENDBRANCH   2   9
BRANCH   1  20
ATOM     20  C   UNL     1       3.279   7.997  17.794  0.00  0.00    +0.000 C 
BRANCH  20  21
ATOM     21  C   UNL     1       2.239   9.115  17.530  0.00  0.00    +0.000 C 
BRANCH  21  26
ATOM     22  C   UNL     1       0.611   9.938  20.842  0.00  0.00    +0.000 C 
ATOM     23  C   UNL     1      -0.708  10.555  20.373  0.00  0.00    +0.000 C 
ATOM     24  C   UNL     1      -1.134  10.023  19.005  0.00  0.00    +0.000 C 
ATOM     25  C   UNL     1       0.021  10.006  17.997  0.00  0.00    +0.000 C 
ATOM     26  N   UNL     1       1.186   9.277  18.555  0.00  0.00    +0.000 NA
ATOM     27  C   UNL     1       1.677   9.998  19.750  0.00  0.00    +0.000 C 
BRANCH  22  29
ATOM     28  O   UNL     1      -0.683   8.147  21.813  0.00  0.00    +0.000 OA
ATOM     29  C   UNL     1       0.387   8.523  21.352  0.00  0.00    +0.000 C 
BRANCH  29  30
ATOM     30  O   UNL     1       1.429   7.678  21.203  0.00  0.00    +0.000 OA
ATOM     31  H   UNL     1       1.256   6.807  21.641  0.00  0.00    +0.000 HD
ENDBRANCH  29  30
ENDBRANCH  22  29
ENDBRANCH  21  26
ENDBRANCH  20  21
ENDBRANCH   1  20
TORSDOF 9
ENDMDL
MODEL 9
REMARK VINA RESULT:      -7.3      1.650      2.669
REMARK  Name = 
REMARK  9 active torsions:
REMARK  status: ('A' for Active; 'I' for Inactive)
REMARK    1  A    between atoms: C_2  and  O_3
REMARK    2  A    between atoms: C_2  and  C_4
REMARK    3  A    between atoms: N_8  and  C_9
REMARK    4  A    between atoms: C_9  and  C_10
REMARK    5  A    between atoms: C_10  and  C_11
REMARK    6  A    between atoms: C_12  and  C_13
REMARK    7  A    between atoms: C_12  and  C_19
REMARK    8  A    between atoms: C_24  and  O_25
REMARK    9  A    between atoms: O_25  and  C_26
REMARK                            x       y       z     vdW  Elec       q    Type
REMARK                         _______ _______ _______ _____ _____    ______ ____
ROOT
ATOM      1  C   UNL     1       0.408   9.509  17.824  0.00  0.00    +0.000 C 
ATOM      2  C   UNL     1      -0.629  10.048  18.506  0.00  0.00    +0.000 C 
ENDROOT
BRANCH   2   3
ATOM      3  C   UNL     1      -1.875  10.358  17.761  0.00  0.00    +0.000 A 
ATOM      4  C   UNL     1      -2.866  11.170  18.328  0.00  0.00    +0.000 A 
ATOM      5  C   UNL     1      -4.026  11.484  17.612  0.00  0.00    +0.000 A 
ATOM      6  C   UNL     1      -4.209  10.987  16.323  0.00  0.00    +0.000 A 
ATOM      7  C   UNL     1      -3.233  10.173  15.750  0.00  0.00    +0.000 A 
ATOM      8  C   UNL     1      -2.072   9.860  16.466  0.00  0.00    +0.000 A 
ENDBRANCH   2   3
BRANCH   2   9
ATOM      9  C   UNL     1      -0.522  10.196  19.977  0.00  0.00    +0.000 A 
ATOM     10  C   UNL     1      -0.624   9.018  20.737  0.00  0.00    +0.000 A 
ATOM     11  C   UNL     1      -0.431   9.043  22.114  0.00  0.00    +0.000 A 
ATOM     12  C   UNL     1      -0.104  10.241  22.738  0.00  0.00    +0.000 A 
ATOM     13  C   UNL     1      -0.010  11.423  21.995  0.00  0.00    +0.000 A 
ATOM     14  C   UNL     1      -0.270  11.424  20.620  0.00  0.00    +0.000 A 
BRANCH  14  15
ATOM     15  O   UNL     1      -0.234  12.539  19.832  0.00  0.00    +0.000 OA
BRANCH  15  16
ATOM     16  C   UNL     1       1.023  13.112  19.498  0.00  0.00    +0.000 C 
ATOM     17  F   UNL     1       1.114  13.556  18.226  0.00  0.00    +0.000 F 
ATOM     18  F   UNL     1       1.285  14.139  20.336  0.00  0.00    +0.000 F 
ATOM     19  F   UNL     1       1.985  12.176  19.672  0.00  0.00    +0.000 F 
ENDBRANCH  15  16
ENDBRANCH  14  15
ENDBRANCH   2   9
BRANCH   1  20
ATOM     20  C   UNL     1       1.790   9.181  18.358  0.00  0.00    +0.000 C 
BRANCH  20  21
ATOM     21  C   UNL     1       2.481   7.908  17.808  0.00  0.00    +0.000 C 
BRANCH  21  26
ATOM     22  C   UNL     1       2.788   4.296  18.884  0.00  0.00    +0.000 C 
ATOM     23  C   UNL     1       2.616   4.427  20.398  0.00  0.00    +0.000 C 
ATOM     24  C   UNL     1       1.784   5.653  20.776  0.00  0.00    +0.000 C 
ATOM     25  C   UNL     1       2.217   6.911  20.014  0.00  0.00    +0.000 C 
ATOM     26  N   UNL     1       2.227   6.657  18.554  0.00  0.00    +0.000 NA
ATOM     27  C   UNL     1       3.233   5.614  18.254  0.00  0.00    +0.000 C 
BRANCH  22  29
ATOM     28  O   UNL     1       0.876   2.829  18.734  0.00  0.00    +0.000 OA
ATOM     29  C   UNL     1       1.518   3.753  18.248  0.00  0.00    +0.000 C 
BRANCH  29  30
ATOM     30  O   UNL     1       1.098   4.399  17.139  0.00  0.00    +0.000 OA
ATOM     31  H   UNL     1       0.972   5.365  17.308  0.00  0.00    +0.000 HD
ENDBRANCH  29  30
ENDBRANCH  22  29
ENDBRANCH  21  26
ENDBRANCH  20  21
ENDBRANCH   1  20
TORSDOF 9
ENDMDL
