MODEL 1
REMARK VINA RESULT:      -8.1      0.000      0.000
REMARK  Name = 
REMARK  6 active torsions:
REMARK  status: ('A' for Active; 'I' for Inactive)
REMARK    1  A    between atoms: C_1  and  C_2
REMARK    2  A    between atoms: C_2  and  O_3
REMARK    3  A    between atoms: O_3  and  C_4
REMARK    4  A    between atoms: C_4  and  C_6
REMARK    5  A    between atoms: C_12  and  C_13
REMARK    6  A    between atoms: C_17  and  C_18
REMARK                            x       y       z     vdW  Elec       q    Type
REMARK                         _______ _______ _______ _____ _____    ______ ____
ROOT
ATOM      1  C   UNL     1       4.278   4.669  17.451  0.00  0.00    +0.000 C 
ATOM      2  C   UNL     1       5.096   4.451  16.411  0.00  0.00    +0.000 C 
ATOM      3  C   UNL     1       4.643   4.404  14.962  0.00  0.00    +0.000 C 
ATOM      4  C   UNL     1       5.975   4.232  14.225  0.00  0.00    +0.000 C 
ATOM      5  C   UNL     1       7.006   4.953  15.101  0.00  0.00    +0.000 C 
ATOM      6  N   UNL     1       6.304   5.136  16.382  0.00  0.00    +0.000 N 
ATOM      7  C   UNL     1       6.402   6.317  17.093  0.00  0.00    +0.000 C 
ATOM      8  N   UNL     1       5.470   6.920  17.753  0.00  0.00    +0.000 NA
ATOM      9  C   UNL     1       4.317   6.038  18.129  0.00  0.00    +0.000 C 
ENDROOT
BRANCH   9  10
ATOM     10  C   UNL     1       2.963   6.707  18.475  0.00  0.00    +0.000 A 
ATOM     11  C   UNL     1       2.597   7.796  17.656  0.00  0.00    +0.000 A 
ATOM     12  C   UNL     1       1.760   8.813  18.127  0.00  0.00    +0.000 A 
ATOM     13  C   UNL     1       1.278   8.759  19.422  0.00  0.00    +0.000 A 
ATOM     14  F   UNL     1       0.583   9.794  19.920  0.00  0.00    +0.000 F 
ATOM     15  C   UNL     1       1.525   7.658  20.223  0.00  0.00    +0.000 A 
ATOM     16  C   UNL     1       2.310   6.603  19.732  0.00  0.00    +0.000 A 
ATOM     17 CL   UNL     1       2.402   5.228  20.783  0.00  0.00    +0.000 Cl
ENDBRANCH   9  10
BRANCH   7  18
ATOM     18  C   UNL     1       7.791   6.800  17.276  0.00  0.00    +0.000 C 
ATOM     19  C   UNL     1       8.036   8.193  17.820  0.00  0.00    +0.000 C 
ATOM     20  C   UNL     1       8.236   7.015  18.720  0.00  0.00    +0.000 C 
ENDBRANCH   7  18
BRANCH   1  21
ATOM     21  C   UNL     1       4.401   3.626  18.567  0.00  0.00    +0.000 C 
ATOM     22  O   UNL     1       5.149   3.662  19.524  0.00  0.00    +0.000 OA
BRANCH  21  23
ATOM     23  O   UNL     1       3.411   2.720  18.358  0.00  0.00    +0.000 OA
BRANCH  23  25
ATOM     24  C   UNL     1       1.012   2.496  18.777  0.00  0.00    +0.000 C 
ATOM     25  C   UNL     1       2.107   3.111  17.917  0.00  0.00    +0.000 C 
ENDBRANCH  23  25
ENDBRANCH  21  23
ENDBRANCH   1  21
TORSDOF 5
ENDMDL
MODEL 2
REMARK VINA RESULT:      -7.6      1.053      1.373
REMARK  Name = 
REMARK  6 active torsions:
REMARK  status: ('A' for Active; 'I' for Inactive)
REMARK    1  A    between atoms: C_1  and  C_2
REMARK    2  A    between atoms: C_2  and  O_3
REMARK    3  A    between atoms: O_3  and  C_4
REMARK    4  A    between atoms: C_4  and  C_6
REMARK    5  A    between atoms: C_12  and  C_13
REMARK    6  A    between atoms: C_17  and  C_18
REMARK                            x       y       z     vdW  Elec       q    Type
REMARK                         _______ _______ _______ _____ _____    ______ ____
ROOT
ATOM      1  C   UNL     1       3.886   4.508  17.185  0.00  0.00    +0.000 C 
ATOM      2  C   UNL     1       4.856   4.241  16.298  0.00  0.00    +0.000 C 
ATOM      3  C   UNL     1       4.769   4.558  14.815  0.00  0.00    +0.000 C 
ATOM      4  C   UNL     1       6.160   4.141  14.326  0.00  0.00    +0.000 C 
ATOM      5  C   UNL     1       7.088   4.393  15.519  0.00  0.00    +0.000 C 
ATOM      6  N   UNL     1       6.162   4.555  16.652  0.00  0.00    +0.000 N 
ATOM      7  C   UNL     1       6.362   5.530  17.610  0.00  0.00    +0.000 C 
ATOM      8  N   UNL     1       5.468   6.255  18.196  0.00  0.00    +0.000 NA
ATOM      9  C   UNL     1       4.084   5.682  18.143  0.00  0.00    +0.000 C 
ENDROOT
BRANCH   9  10
ATOM     10  C   UNL     1       2.885   6.640  18.362  0.00  0.00    +0.000 A 
ATOM     11  C   UNL     1       2.785   7.709  17.447  0.00  0.00    +0.000 A 
ATOM     12  C   UNL     1       2.159   8.911  17.796  0.00  0.00    +0.000 A 
ATOM     13  C   UNL     1       1.625   9.062  19.063  0.00  0.00    +0.000 A 
ATOM     14  F   UNL     1       1.141  10.254  19.444  0.00  0.00    +0.000 F 
ATOM     15  C   UNL     1       1.606   8.005  19.954  0.00  0.00    +0.000 A 
ATOM     16  C   UNL     1       2.174   6.775  19.585  0.00  0.00    +0.000 A 
ATOM     17 CL   UNL     1       1.938   5.501  20.737  0.00  0.00    +0.000 Cl
ENDBRANCH   9  10
BRANCH   7  18
ATOM     18  C   UNL     1       7.740   5.568  18.156  0.00  0.00    +0.000 C 
ATOM     19  C   UNL     1       8.234   6.816  18.860  0.00  0.00    +0.000 C 
ATOM     20  C   UNL     1       7.850   5.624  19.678  0.00  0.00    +0.000 C 
ENDBRANCH   7  18
BRANCH   1  21
ATOM     21  C   UNL     1       3.484   3.306  18.047  0.00  0.00    +0.000 C 
ATOM     22  O   UNL     1       2.754   2.388  17.727  0.00  0.00    +0.000 OA
BRANCH  21  23
ATOM     23  O   UNL     1       4.212   3.391  19.190  0.00  0.00    +0.000 OA
BRANCH  23  25
ATOM     24  C   UNL     1       3.091   2.427  21.138  0.00  0.00    +0.000 C 
ATOM     25  C   UNL     1       4.243   2.329  20.148  0.00  0.00    +0.000 C 
ENDBRANCH  23  25
ENDBRANCH  21  23
ENDBRANCH   1  21
TORSDOF 5
ENDMDL
MODEL 3
REMARK VINA RESULT:      -7.4      2.545      4.493
REMARK  Name = 
REMARK  6 active torsions:
REMARK  status: ('A' for Active; 'I' for Inactive)
REMARK    1  A    between atoms: C_1  and  C_2
REMARK    2  A    between atoms: C_2  and  O_3
REMARK    3  A    between atoms: O_3  and  C_4
REMARK    4  A    between atoms: C_4  and  C_6
REMARK    5  A    between atoms: C_12  and  C_13
REMARK    6  A    between atoms: C_17  and  C_18
REMARK                            x       y       z     vdW  Elec       q    Type
REMARK                         _______ _______ _______ _____ _____    ______ ____
ROOT
ATOM      1  C   UNL     1       4.150   5.837  18.632  0.00  0.00    +0.000 C 
ATOM      2  C   UNL     1       5.402   6.162  18.276  0.00  0.00    +0.000 C 
ATOM      3  C   UNL     1       6.629   5.900  19.131  0.00  0.00    +0.000 C 
ATOM      4  C   UNL     1       7.758   6.370  18.207  0.00  0.00    +0.000 C 
ATOM      5  C   UNL     1       7.246   6.096  16.789  0.00  0.00    +0.000 C 
ATOM      6  N   UNL     1       5.804   5.867  16.979  0.00  0.00    +0.000 N 
ATOM      7  C   UNL     1       5.141   4.861  16.303  0.00  0.00    +0.000 C 
ATOM      8  N   UNL     1       4.206   4.092  16.752  0.00  0.00    +0.000 NA
ATOM      9  C   UNL     1       3.496   4.632  17.958  0.00  0.00    +0.000 C 
ENDROOT
BRANCH   9  10
ATOM     10  C   UNL     1       2.722   3.637  18.860  0.00  0.00    +0.000 A 
ATOM     11  C   UNL     1       1.344   3.901  19.013  0.00  0.00    +0.000 A 
ATOM     12  C   UNL     1       0.646   3.492  20.154  0.00  0.00    +0.000 A 
ATOM     13  C   UNL     1       1.312   2.814  21.158  0.00  0.00    +0.000 A 
ATOM     14  F   UNL     1       0.680   2.534  22.308  0.00  0.00    +0.000 F 
ATOM     15  C   UNL     1       2.635   2.441  21.003  0.00  0.00    +0.000 A 
ATOM     16  C   UNL     1       3.324   2.792  19.830  0.00  0.00    +0.000 A 
ATOM     17 CL   UNL     1       4.918   2.125  19.708  0.00  0.00    +0.000 Cl
ENDBRANCH   9  10
BRANCH   7  18
ATOM     18  C   UNL     1       5.405   4.836  14.845  0.00  0.00    +0.000 C 
ATOM     19  C   UNL     1       6.832   4.770  14.341  0.00  0.00    +0.000 C 
ATOM     20  C   UNL     1       5.987   3.536  14.297  0.00  0.00    +0.000 C 
ENDBRANCH   7  18
BRANCH   1  21
ATOM     21  C   UNL     1       3.152   6.994  18.520  0.00  0.00    +0.000 C 
ATOM     22  O   UNL     1       2.866   7.620  17.519  0.00  0.00    +0.000 OA
BRANCH  21  23
ATOM     23  O   UNL     1       2.542   7.093  19.730  0.00  0.00    +0.000 OA
BRANCH  23  25
ATOM     24  C   UNL     1       1.050   8.020  21.432  0.00  0.00    +0.000 C 
ATOM     25  C   UNL     1       1.652   8.170  20.042  0.00  0.00    +0.000 C 
ENDBRANCH  23  25
ENDBRANCH  21  23
ENDBRANCH   1  21
TORSDOF 5
ENDMDL
MODEL 4
REMARK VINA RESULT:      -6.7      2.615      4.611
REMARK  Name = 
REMARK  6 active torsions:
REMARK  status: ('A' for Active; 'I' for Inactive)
REMARK    1  A    between atoms: C_1  and  C_2
REMARK    2  A    between atoms: C_2  and  O_3
REMARK    3  A    between atoms: O_3  and  C_4
REMARK    4  A    between atoms: C_4  and  C_6
REMARK    5  A    between atoms: C_12  and  C_13
REMARK    6  A    between atoms: C_17  and  C_18
REMARK                            x       y       z     vdW  Elec       q    Type
REMARK                         _______ _______ _______ _____ _____    ______ ____
ROOT
ATOM      1  C   UNL     1       4.162   5.622  18.989  0.00  0.00    +0.000 C 
ATOM      2  C   UNL     1       5.394   5.959  18.580  0.00  0.00    +0.000 C 
ATOM      3  C   UNL     1       6.665   5.656  19.355  0.00  0.00    +0.000 C 
ATOM      4  C   UNL     1       7.744   6.162  18.392  0.00  0.00    +0.000 C 
ATOM      5  C   UNL     1       7.154   5.951  16.994  0.00  0.00    +0.000 C 
ATOM      6  N   UNL     1       5.724   5.718  17.252  0.00  0.00    +0.000 N 
ATOM      7  C   UNL     1       5.019   4.745  16.571  0.00  0.00    +0.000 C 
ATOM      8  N   UNL     1       4.106   3.960  17.037  0.00  0.00    +0.000 NA
ATOM      9  C   UNL     1       3.465   4.450  18.301  0.00  0.00    +0.000 C 
ENDROOT
BRANCH   9  10
ATOM     10  C   UNL     1       2.735   3.420  19.201  0.00  0.00    +0.000 A 
ATOM     11  C   UNL     1       1.336   3.574  19.290  0.00  0.00    +0.000 A 
ATOM     12  C   UNL     1       0.624   3.140  20.413  0.00  0.00    +0.000 A 
ATOM     13  C   UNL     1       1.300   2.546  21.464  0.00  0.00    +0.000 A 
ATOM     14  F   UNL     1       0.643   2.247  22.595  0.00  0.00    +0.000 F 
ATOM     15  C   UNL     1       2.654   2.280  21.374  0.00  0.00    +0.000 A 
ATOM     16  C   UNL     1       3.361   2.654  20.221  0.00  0.00    +0.000 A 
ATOM     17 CL   UNL     1       5.008   2.116  20.183  0.00  0.00    +0.000 Cl
ENDBRANCH   9  10
BRANCH   7  18
ATOM     18  C   UNL     1       5.203   4.781  15.100  0.00  0.00    +0.000 C 
ATOM     19  C   UNL     1       6.590   4.975  14.522  0.00  0.00    +0.000 C 
ATOM     20  C   UNL     1       5.977   3.611  14.498  0.00  0.00    +0.000 C 
ENDBRANCH   7  18
BRANCH   1  21
ATOM     21  C   UNL     1       3.165   6.787  18.982  0.00  0.00    +0.000 C 
ATOM     22  O   UNL     1       2.476   7.166  19.908  0.00  0.00    +0.000 OA
BRANCH  21  23
ATOM     23  O   UNL     1       3.303   7.404  17.780  0.00  0.00    +0.000 OA
BRANCH  23  25
ATOM     24  C   UNL     1       1.406   8.946  17.729  0.00  0.00    +0.000 C 
ATOM     25  C   UNL     1       2.909   8.764  17.578  0.00  0.00    +0.000 C 
ENDBRANCH  23  25
ENDBRANCH  21  23
ENDBRANCH   1  21
TORSDOF 5
ENDMDL
MODEL 5
REMARK VINA RESULT:      -6.6      3.002      6.271
REMARK  Name = 
REMARK  6 active torsions:
REMARK  status: ('A' for Active; 'I' for Inactive)
REMARK    1  A    between atoms: C_1  and  C_2
REMARK    2  A    between atoms: C_2  and  O_3
REMARK    3  A    between atoms: O_3  and  C_4
REMARK    4  A    between atoms: C_4  and  C_6
REMARK    5  A    between atoms: C_12  and  C_13
REMARK    6  A    between atoms: C_17  and  C_18
REMARK                            x       y       z     vdW  Elec       q    Type
REMARK                         _______ _______ _______ _____ _____    ______ ____
ROOT
ATOM      1  C   UNL     1       4.305   5.365  18.754  0.00  0.00    +0.000 C 
ATOM      2  C   UNL     1       3.337   5.843  19.549  0.00  0.00    +0.000 C 
ATOM      3  C   UNL     1       2.854   7.283  19.538  0.00  0.00    +0.000 C 
ATOM      4  C   UNL     1       1.702   7.232  20.547  0.00  0.00    +0.000 C 
ATOM      5  C   UNL     1       1.137   5.812  20.428  0.00  0.00    +0.000 C 
ATOM      6  N   UNL     1       2.183   5.083  19.693  0.00  0.00    +0.000 N 
ATOM      7  C   UNL     1       1.865   4.185  18.692  0.00  0.00    +0.000 C 
ATOM      8  N   UNL     1       2.486   3.994  17.576  0.00  0.00    +0.000 NA
ATOM      9  C   UNL     1       3.904   4.482  17.573  0.00  0.00    +0.000 C 
ENDROOT
BRANCH   9  10
ATOM     10  C   UNL     1       4.583   4.756  16.208  0.00  0.00    +0.000 A 
ATOM     11  C   UNL     1       5.092   3.620  15.543  0.00  0.00    +0.000 A 
ATOM     12  C   UNL     1       6.162   3.719  14.647  0.00  0.00    +0.000 A 
ATOM     13  C   UNL     1       6.739   4.951  14.403  0.00  0.00    +0.000 A 
ATOM     14  F   UNL     1       7.846   5.032  13.647  0.00  0.00    +0.000 F 
ATOM     15  C   UNL     1       6.205   6.104  14.950  0.00  0.00    +0.000 A 
ATOM     16  C   UNL     1       5.090   6.019  15.798  0.00  0.00    +0.000 A 
ATOM     17 CL   UNL     1       4.436   7.550  16.280  0.00  0.00    +0.000 Cl
ENDBRANCH   9  10
BRANCH   7  18
ATOM     18  C   UNL     1       0.822   3.201  19.072  0.00  0.00    +0.000 C 
ATOM     19  C   UNL     1       1.038   1.730  18.783  0.00  0.00    +0.000 C 
ATOM     20  C   UNL     1       1.201   2.227  20.184  0.00  0.00    +0.000 C 
ENDBRANCH   7  18
BRANCH   1  21
ATOM     21  C   UNL     1       5.411   4.614  19.503  0.00  0.00    +0.000 C 
ATOM     22  O   UNL     1       5.452   3.425  19.748  0.00  0.00    +0.000 OA
BRANCH  21  23
ATOM     23  O   UNL     1       6.408   5.511  19.719  0.00  0.00    +0.000 OA
BRANCH  23  25
ATOM     24  C   UNL     1       7.831   4.631  17.935  0.00  0.00    +0.000 C 
ATOM     25  C   UNL     1       7.350   5.857  18.698  0.00  0.00    +0.000 C 
ENDBRANCH  23  25
ENDBRANCH  21  23
ENDBRANCH   1  21
TORSDOF 5
ENDMDL
MODEL 6
REMARK VINA RESULT:      -6.4      2.833      5.653
REMARK  Name = 
REMARK  6 active torsions:
REMARK  status: ('A' for Active; 'I' for Inactive)
REMARK    1  A    between atoms: C_1  and  C_2
REMARK    2  A    between atoms: C_2  and  O_3
REMARK    3  A    between atoms: O_3  and  C_4
REMARK    4  A    between atoms: C_4  and  C_6
REMARK    5  A    between atoms: C_12  and  C_13
REMARK    6  A    between atoms: C_17  and  C_18
REMARK                            x       y       z     vdW  Elec       q    Type
REMARK                         _______ _______ _______ _____ _____    ______ ____
ROOT
ATOM      1  C   UNL     1       3.880   3.923  18.481  0.00  0.00    +0.000 C 
ATOM      2  C   UNL     1       3.154   3.427  19.494  0.00  0.00    +0.000 C 
ATOM      3  C   UNL     1       3.721   2.570  20.612  0.00  0.00    +0.000 C 
ATOM      4  C   UNL     1       2.495   2.385  21.513  0.00  0.00    +0.000 C 
ATOM      5  C   UNL     1       1.673   3.666  21.328  0.00  0.00    +0.000 C 
ATOM      6  N   UNL     1       2.252   4.278  20.121  0.00  0.00    +0.000 N 
ATOM      7  C   UNL     1       2.476   5.639  20.041  0.00  0.00    +0.000 C 
ATOM      8  N   UNL     1       3.477   6.244  19.495  0.00  0.00    +0.000 NA
ATOM      9  C   UNL     1       4.224   5.412  18.496  0.00  0.00    +0.000 C 
ENDROOT
BRANCH   9  10
ATOM     10  C   UNL     1       5.678   5.817  18.144  0.00  0.00    +0.000 A 
ATOM     11  C   UNL     1       6.652   5.484  19.108  0.00  0.00    +0.000 A 
ATOM     12  C   UNL     1       7.837   6.217  19.230  0.00  0.00    +0.000 A 
ATOM     13  C   UNL     1       8.066   7.294  18.393  0.00  0.00    +0.000 A 
ATOM     14  F   UNL     1       9.138   8.077  18.590  0.00  0.00    +0.000 F 
ATOM     15  C   UNL     1       7.188   7.590  17.365  0.00  0.00    +0.000 A 
ATOM     16  C   UNL     1       6.029   6.816  17.196  0.00  0.00    +0.000 A 
ATOM     17 CL   UNL     1       5.109   7.202  15.779  0.00  0.00    +0.000 Cl
ENDBRANCH   9  10
BRANCH   7  18
ATOM     18  C   UNL     1       1.314   6.467  20.444  0.00  0.00    +0.000 C 
ATOM     19  C   UNL     1       1.528   7.686  21.318  0.00  0.00    +0.000 C 
ATOM     20  C   UNL     1       1.266   7.875  19.857  0.00  0.00    +0.000 C 
ENDBRANCH   7  18
BRANCH   1  21
ATOM     21  C   UNL     1       3.299   3.624  17.095  0.00  0.00    +0.000 C 
ATOM     22  O   UNL     1       2.183   3.214  16.842  0.00  0.00    +0.000 OA
BRANCH  21  23
ATOM     23  O   UNL     1       4.223   4.041  16.191  0.00  0.00    +0.000 OA
BRANCH  23  25
ATOM     24  C   UNL     1       6.265   3.950  14.849  0.00  0.00    +0.000 C 
ATOM     25  C   UNL     1       5.403   3.282  15.910  0.00  0.00    +0.000 C 
ENDBRANCH  23  25
ENDBRANCH  21  23
ENDBRANCH   1  21
TORSDOF 5
ENDMDL
MODEL 7
REMARK VINA RESULT:      -6.4      3.736      6.899
REMARK  Name = 
REMARK  6 active torsions:
REMARK  status: ('A' for Active; 'I' for Inactive)
REMARK    1  A    between atoms: C_1  and  C_2
REMARK    2  A    between atoms: C_2  and  O_3
REMARK    3  A    between atoms: O_3  and  C_4
REMARK    4  A    between atoms: C_4  and  C_6
REMARK    5  A    between atoms: C_12  and  C_13
REMARK    6  A    between atoms: C_17  and  C_18
REMARK                            x       y       z     vdW  Elec       q    Type
REMARK                         _______ _______ _______ _____ _____    ______ ____
ROOT
ATOM      1  C   UNL     1       5.721   5.821  16.270  0.00  0.00    +0.000 C 
ATOM      2  C   UNL     1       4.807   6.342  17.103  0.00  0.00    +0.000 C 
ATOM      3  C   UNL     1       3.894   7.503  16.751  0.00  0.00    +0.000 C 
ATOM      4  C   UNL     1       3.016   7.598  18.004  0.00  0.00    +0.000 C 
ATOM      5  C   UNL     1       2.925   6.162  18.531  0.00  0.00    +0.000 C 
ATOM      6  N   UNL     1       4.002   5.460  17.814  0.00  0.00    +0.000 N 
ATOM      7  C   UNL     1       3.818   4.190  17.304  0.00  0.00    +0.000 C 
ATOM      8  N   UNL     1       4.259   3.716  16.187  0.00  0.00    +0.000 NA
ATOM      9  C   UNL     1       5.421   4.473  15.617  0.00  0.00    +0.000 C 
ENDROOT
BRANCH   9  10
ATOM     10  C   UNL     1       5.724   4.324  14.105  0.00  0.00    +0.000 A 
ATOM     11  C   UNL     1       4.797   3.551  13.373  0.00  0.00    +0.000 A 
ATOM     12  C   UNL     1       5.173   2.874  12.207  0.00  0.00    +0.000 A 
ATOM     13  C   UNL     1       6.477   2.958  11.757  0.00  0.00    +0.000 A 
ATOM     14  F   UNL     1       6.873   2.209  10.716  0.00  0.00    +0.000 F 
ATOM     15  C   UNL     1       7.391   3.787  12.383  0.00  0.00    +0.000 A 
ATOM     16  C   UNL     1       7.001   4.521  13.515  0.00  0.00    +0.000 A 
ATOM     17 CL   UNL     1       8.197   5.632  14.095  0.00  0.00    +0.000 Cl
ENDBRANCH   9  10
BRANCH   7  18
ATOM     18  C   UNL     1       3.230   3.230  18.269  0.00  0.00    +0.000 C 
ATOM     19  C   UNL     1       3.554   1.754  18.153  0.00  0.00    +0.000 C 
ATOM     20  C   UNL     1       4.216   2.561  19.225  0.00  0.00    +0.000 C 
ENDBRANCH   7  18
BRANCH   1  21
ATOM     21  C   UNL     1       7.123   5.710  16.878  0.00  0.00    +0.000 C 
ATOM     22  O   UNL     1       7.715   4.690  17.171  0.00  0.00    +0.000 OA
BRANCH  21  23
ATOM     23  O   UNL     1       7.636   6.967  16.896  0.00  0.00    +0.000 OA
BRANCH  23  25
ATOM     24  C   UNL     1       8.165   9.112  17.946  0.00  0.00    +0.000 C 
ATOM     25  C   UNL     1       8.037   7.604  18.113  0.00  0.00    +0.000 C 
ENDBRANCH  23  25
ENDBRANCH  21  23
ENDBRANCH   1  21
TORSDOF 5
ENDMDL
MODEL 8
REMARK VINA RESULT:      -6.4      5.641      8.268
REMARK  Name = 
REMARK  6 active torsions:
REMARK  status: ('A' for Active; 'I' for Inactive)
REMARK    1  A    between atoms: C_1  and  C_2
REMARK    2  A    between atoms: C_2  and  O_3
REMARK    3  A    between atoms: O_3  and  C_4
REMARK    4  A    between atoms: C_4  and  C_6
REMARK    5  A    between atoms: C_12  and  C_13
REMARK    6  A    between atoms: C_17  and  C_18
REMARK                            x       y       z     vdW  Elec       q    Type
REMARK                         _______ _______ _______ _____ _____    ______ ____
ROOT
ATOM      1  C   UNL     1       0.061  11.292  18.747  0.00  0.00    +0.000 C 
ATOM      2  C   UNL     1       0.715  10.126  18.631  0.00  0.00    +0.000 C 
ATOM      3  C   UNL     1       1.976   9.933  17.808  0.00  0.00    +0.000 C 
ATOM      4  C   UNL     1       2.327   8.473  18.115  0.00  0.00    +0.000 C 
ATOM      5  C   UNL     1       1.818   8.238  19.542  0.00  0.00    +0.000 C 
ATOM      6  N   UNL     1       0.927   9.384  19.785  0.00  0.00    +0.000 N 
ATOM      7  C   UNL     1       0.924  10.048  20.997  0.00  0.00    +0.000 C 
ATOM      8  N   UNL     1       0.807  11.317  21.201  0.00  0.00    +0.000 NA
ATOM      9  C   UNL     1       0.190  12.067  20.058  0.00  0.00    +0.000 C 
ENDROOT
BRANCH   9  10
ATOM     10  C   UNL     1       0.431  13.595  19.967  0.00  0.00    +0.000 A 
ATOM     11  C   UNL     1      -0.659  14.406  20.351  0.00  0.00    +0.000 A 
ATOM     12  C   UNL     1      -0.826  15.695  19.834  0.00  0.00    +0.000 A 
ATOM     13  C   UNL     1       0.092  16.193  18.927  0.00  0.00    +0.000 A 
ATOM     14  F   UNL     1      -0.133  17.374  18.331  0.00  0.00    +0.000 F 
ATOM     15  C   UNL     1       1.229  15.475  18.604  0.00  0.00    +0.000 A 
ATOM     16  C   UNL     1       1.436  14.208  19.171  0.00  0.00    +0.000 A 
ATOM     17 CL   UNL     1       2.973  13.498  18.801  0.00  0.00    +0.000 Cl
ENDBRANCH   9  10
BRANCH   7  18
ATOM     18  C   UNL     1       0.829   9.154  22.176  0.00  0.00    +0.000 C 
ATOM     19  C   UNL     1       0.025   9.589  23.385  0.00  0.00    +0.000 C 
ATOM     20  C   UNL     1      -0.552   8.568  22.456  0.00  0.00    +0.000 C 
ENDBRANCH   7  18
BRANCH   1  21
ATOM     21  C   UNL     1      -1.438  11.197  18.444  0.00  0.00    +0.000 C 
ATOM     22  O   UNL     1      -2.292  12.022  18.703  0.00  0.00    +0.000 OA
BRANCH  21  23
ATOM     23  O   UNL     1      -1.611  10.072  17.702  0.00  0.00    +0.000 OA
BRANCH  23  25
ATOM     24  C   UNL     1      -2.748  10.494  15.578  0.00  0.00    +0.000 C 
ATOM     25  C   UNL     1      -2.805   9.837  16.950  0.00  0.00    +0.000 C 
ENDBRANCH  23  25
ENDBRANCH  21  23
ENDBRANCH   1  21
TORSDOF 5
ENDMDL
MODEL 9
REMARK VINA RESULT:      -6.4      5.595      8.117
REMARK  Name = 
REMARK  6 active torsions:
REMARK  status: ('A' for Active; 'I' for Inactive)
REMARK    1  A    between atoms: C_1  and  C_2
REMARK    2  A    between atoms: C_2  and  O_3
REMARK    3  A    between atoms: O_3  and  C_4
REMARK    4  A    between atoms: C_4  and  C_6
REMARK    5  A    between atoms: C_12  and  C_13
REMARK    6  A    between atoms: C_17  and  C_18
REMARK                            x       y       z     vdW  Elec       q    Type
REMARK                         _______ _______ _______ _____ _____    ______ ____
ROOT
ATOM      1  C   UNL     1       0.140  10.860  18.422  0.00  0.00    +0.000 C 
ATOM      2  C   UNL     1       0.754   9.676  18.571  0.00  0.00    +0.000 C 
ATOM      3  C   UNL     1       2.018   9.271  17.833  0.00  0.00    +0.000 C 
ATOM      4  C   UNL     1       2.313   7.901  18.453  0.00  0.00    +0.000 C 
ATOM      5  C   UNL     1       1.779   7.994  19.886  0.00  0.00    +0.000 C 
ATOM      6  N   UNL     1       0.925   9.193  19.861  0.00  0.00    +0.000 N 
ATOM      7  C   UNL     1       0.931  10.101  20.903  0.00  0.00    +0.000 C 
ATOM      8  N   UNL     1       0.856  11.388  20.828  0.00  0.00    +0.000 NA
ATOM      9  C   UNL     1       0.280  11.894  19.539  0.00  0.00    +0.000 C 
ENDROOT
BRANCH   9  10
ATOM     10  C   UNL     1       0.575  13.359  19.128  0.00  0.00    +0.000 A 
ATOM     11  C   UNL     1       1.782  13.561  18.425  0.00  0.00    +0.000 A 
ATOM     12  C   UNL     1       2.453  14.788  18.468  0.00  0.00    +0.000 A 
ATOM     13  C   UNL     1       1.931  15.829  19.215  0.00  0.00    +0.000 A 
ATOM     14  F   UNL     1       2.635  16.961  19.364  0.00  0.00    +0.000 F 
ATOM     15  C   UNL     1       0.699  15.708  19.832  0.00  0.00    +0.000 A 
ATOM     16  C   UNL     1      -0.011  14.501  19.737  0.00  0.00    +0.000 A 
ATOM     17 CL   UNL     1      -1.602  14.548  20.423  0.00  0.00    +0.000 Cl
ENDBRANCH   9  10
BRANCH   7  18
ATOM     18  C   UNL     1       0.790   9.485  22.244  0.00  0.00    +0.000 C 
ATOM     19  C   UNL     1      -0.240  10.026  23.214  0.00  0.00    +0.000 C 
ATOM     20  C   UNL     1      -0.519   8.742  22.499  0.00  0.00    +0.000 C 
ENDBRANCH   7  18
BRANCH   1  21
ATOM     21  C   UNL     1      -1.358  10.749  18.117  0.00  0.00    +0.000 C 
ATOM     22  O   UNL     1      -2.259  11.378  18.636  0.00  0.00    +0.000 OA
BRANCH  21  23
ATOM     23  O   UNL     1      -1.473   9.913  17.053  0.00  0.00    +0.000 OA
BRANCH  23  25
ATOM     24  C   UNL     1      -2.883  10.500  15.143  0.00  0.00    +0.000 C 
ATOM     25  C   UNL     1      -2.730   9.673  16.411  0.00  0.00    +0.000 C 
ENDBRANCH  23  25
ENDBRANCH  21  23
ENDBRANCH   1  21
TORSDOF 5
ENDMDL
