MODEL 1
REMARK VINA RESULT:      -6.6      0.000      0.000
REMARK  Name = 
REMARK  4 active torsions:
REMARK  status: ('A' for Active; 'I' for Inactive)
REMARK    1  A    between atoms: C_1  and  C_2
REMARK    2  A    between atoms: C_5  and  N_6
REMARK    3  A    between atoms: N_9  and  N_10
REMARK    4  A    between atoms: C_11  and  C_12
REMARK                            x       y       z     vdW  Elec       q    Type
REMARK                         _______ _______ _______ _____ _____    ______ ____
ROOT
ATOM      1  N   UNL     1       4.010   6.218  18.033  0.00  0.00    +0.000 N 
ATOM      2  C   UNL     1       3.613   7.632  17.992  0.00  0.00    +0.000 C 
ATOM      3  C   UNL     1       2.225   7.804  18.648  0.00  0.00    +0.000 C 
ATOM      4  N   UNL     1       2.210   7.232  20.011  0.00  0.00    +0.000 N 
ATOM      5  C   UNL     1       2.485   5.782  19.924  0.00  0.00    +0.000 C 
ATOM      6  C   UNL     1       3.901   5.578  19.352  0.00  0.00    +0.000 C 
ENDROOT
BRANCH   1  11
ATOM      7  C   UNL     1       6.321   3.604  13.507  0.00  0.00    +0.000 C 
ATOM      8  C   UNL     1       5.711   4.266  14.704  0.00  0.00    +0.000 A 
ATOM      9  C   UNL     1       5.189   3.521  15.763  0.00  0.00    +0.000 A 
ATOM     10  C   UNL     1       4.626   4.169  16.870  0.00  0.00    +0.000 A 
ATOM     11  C   UNL     1       4.557   5.562  16.953  0.00  0.00    +0.000 A 
ATOM     12  C   UNL     1       5.102   6.286  15.880  0.00  0.00    +0.000 A 
ATOM     13  C   UNL     1       5.667   5.654  14.774  0.00  0.00    +0.000 A 
ENDBRANCH   1  11
BRANCH   4  14
ATOM     14  N   UNL     1       1.280   7.728  20.870  0.00  0.00    +0.000 NA
ATOM     15  C   UNL     1       1.520   8.961  21.206  0.00  0.00    +0.000 C 
BRANCH  15  16
ATOM     16  C   UNL     1       0.538   9.775  21.881  0.00  0.00    +0.000 A 
ATOM     17  C   UNL     1      -0.212   9.506  23.006  0.00  0.00    +0.000 A 
ATOM     18  C   UNL     1      -1.183  10.521  23.261  0.00  0.00    +0.000 A 
ATOM     19  C   UNL     1      -1.129  11.534  22.330  0.00  0.00    +0.000 A 
ATOM     20  S   UNL     1       0.104  11.275  21.175  0.00  0.00    +0.000 S 
ENDBRANCH  15  16
ENDBRANCH   4  14
TORSDOF 3
ENDMDL
MODEL 2
REMARK VINA RESULT:      -6.6      4.939      6.798
REMARK  Name = 
REMARK  4 active torsions:
REMARK  status: ('A' for Active; 'I' for Inactive)
REMARK    1  A    between atoms: C_1  and  C_2
REMARK    2  A    between atoms: C_5  and  N_6
REMARK    3  A    between atoms: N_9  and  N_10
REMARK    4  A    between atoms: C_11  and  C_12
REMARK                            x       y       z     vdW  Elec       q    Type
REMARK                         _______ _______ _______ _____ _____    ______ ____
ROOT
ATOM      1  N   UNL     1       5.290   5.325  17.516  0.00  0.00    +0.000 N 
ATOM      2  C   UNL     1       5.271   6.544  16.697  0.00  0.00    +0.000 C 
ATOM      3  C   UNL     1       6.121   7.641  17.374  0.00  0.00    +0.000 C 
ATOM      4  N   UNL     1       7.486   7.151  17.661  0.00  0.00    +0.000 N 
ATOM      5  C   UNL     1       7.397   6.012  18.601  0.00  0.00    +0.000 C 
ATOM      6  C   UNL     1       6.626   4.865  17.920  0.00  0.00    +0.000 C 
ENDROOT
BRANCH   1  11
ATOM      7  C   UNL     1       0.662   2.190  18.707  0.00  0.00    +0.000 C 
ATOM      8  C   UNL     1       1.859   3.031  18.391  0.00  0.00    +0.000 A 
ATOM      9  C   UNL     1       1.731   4.364  17.998  0.00  0.00    +0.000 A 
ATOM     10  C   UNL     1       2.870   5.127  17.709  0.00  0.00    +0.000 A 
ATOM     11  C   UNL     1       4.157   4.591  17.793  0.00  0.00    +0.000 A 
ATOM     12  C   UNL     1       4.258   3.252  18.204  0.00  0.00    +0.000 A 
ATOM     13  C   UNL     1       3.133   2.483  18.496  0.00  0.00    +0.000 A 
ENDBRANCH   1  11
BRANCH   4  14
ATOM     14  N   UNL     1       8.461   8.091  17.776  0.00  0.00    +0.000 NA
ATOM     15  C   UNL     1       7.984   9.275  18.028  0.00  0.00    +0.000 C 
BRANCH  15  16
ATOM     16  C   UNL     1       8.828  10.364  18.457  0.00  0.00    +0.000 A 
ATOM     17  C   UNL     1       9.758  10.416  19.474  0.00  0.00    +0.000 A 
ATOM     18  C   UNL     1      10.272  11.733  19.667  0.00  0.00    +0.000 A 
ATOM     19  C   UNL     1       9.726  12.636  18.780  0.00  0.00    +0.000 A 
ATOM     20  S   UNL     1       8.626  11.891  17.706  0.00  0.00    +0.000 S 
ENDBRANCH  15  16
ENDBRANCH   4  14
TORSDOF 3
ENDMDL
MODEL 3
REMARK VINA RESULT:      -6.5      4.691      6.991
REMARK  Name = 
REMARK  4 active torsions:
REMARK  status: ('A' for Active; 'I' for Inactive)
REMARK    1  A    between atoms: C_1  and  C_2
REMARK    2  A    between atoms: C_5  and  N_6
REMARK    3  A    between atoms: N_9  and  N_10
REMARK    4  A    between atoms: C_11  and  C_12
REMARK                            x       y       z     vdW  Elec       q    Type
REMARK                         _______ _______ _______ _____ _____    ______ ____
ROOT
ATOM      1  N   UNL     1       5.388   5.507  17.509  0.00  0.00    +0.000 N 
ATOM      2  C   UNL     1       5.366   6.700  16.652  0.00  0.00    +0.000 C 
ATOM      3  C   UNL     1       6.233   7.812  17.282  0.00  0.00    +0.000 C 
ATOM      4  N   UNL     1       7.599   7.320  17.565  0.00  0.00    +0.000 N 
ATOM      5  C   UNL     1       7.515   6.213  18.542  0.00  0.00    +0.000 C 
ATOM      6  C   UNL     1       6.727   5.050  17.909  0.00  0.00    +0.000 C 
ENDROOT
BRANCH   1  11
ATOM      7  C   UNL     1       0.655   2.622  18.902  0.00  0.00    +0.000 C 
ATOM      8  C   UNL     1       1.898   3.362  18.517  0.00  0.00    +0.000 A 
ATOM      9  C   UNL     1       2.674   2.968  17.425  0.00  0.00    +0.000 A 
ATOM     10  C   UNL     1       3.832   3.681  17.089  0.00  0.00    +0.000 A 
ATOM     11  C   UNL     1       4.254   4.791  17.825  0.00  0.00    +0.000 A 
ATOM     12  C   UNL     1       3.448   5.174  18.909  0.00  0.00    +0.000 A 
ATOM     13  C   UNL     1       2.293   4.474  19.253  0.00  0.00    +0.000 A 
ENDBRANCH   1  11
BRANCH   4  14
ATOM     14  N   UNL     1       8.581   8.257  17.636  0.00  0.00    +0.000 NA
ATOM     15  C   UNL     1       8.175   9.366  18.180  0.00  0.00    +0.000 C 
BRANCH  15  16
ATOM     16  C   UNL     1       9.095  10.392  18.605  0.00  0.00    +0.000 A 
ATOM     17  C   UNL     1       9.972  11.157  17.865  0.00  0.00    +0.000 A 
ATOM     18  C   UNL     1      10.818  11.958  18.690  0.00  0.00    +0.000 A 
ATOM     19  C   UNL     1      10.546  11.786  20.030  0.00  0.00    +0.000 A 
ATOM     20  S   UNL     1       9.260  10.689  20.285  0.00  0.00    +0.000 S 
ENDBRANCH  15  16
ENDBRANCH   4  14
TORSDOF 3
ENDMDL
MODEL 4
REMARK VINA RESULT:      -6.4      0.247      1.097
REMARK  Name = 
REMARK  4 active torsions:
REMARK  status: ('A' for Active; 'I' for Inactive)
REMARK    1  A    between atoms: C_1  and  C_2
REMARK    2  A    between atoms: C_5  and  N_6
REMARK    3  A    between atoms: N_9  and  N_10
REMARK    4  A    between atoms: C_11  and  C_12
REMARK                            x       y       z     vdW  Elec       q    Type
REMARK                         _______ _______ _______ _____ _____    ______ ____
ROOT
ATOM      1  N   UNL     1       3.910   6.391  18.142  0.00  0.00    +0.000 N 
ATOM      2  C   UNL     1       3.539   7.812  18.103  0.00  0.00    +0.000 C 
ATOM      3  C   UNL     1       2.130   8.001  18.709  0.00  0.00    +0.000 C 
ATOM      4  N   UNL     1       2.055   7.413  20.064  0.00  0.00    +0.000 N 
ATOM      5  C   UNL     1       2.309   5.959  19.969  0.00  0.00    +0.000 C 
ATOM      6  C   UNL     1       3.741   5.738  19.448  0.00  0.00    +0.000 C 
ENDROOT
BRANCH   1  11
ATOM      7  C   UNL     1       6.250   3.577  13.753  0.00  0.00    +0.000 C 
ATOM      8  C   UNL     1       5.643   4.336  14.892  0.00  0.00    +0.000 A 
ATOM      9  C   UNL     1       5.671   5.731  14.935  0.00  0.00    +0.000 A 
ATOM     10  C   UNL     1       5.093   6.414  16.013  0.00  0.00    +0.000 A 
ATOM     11  C   UNL     1       4.485   5.738  17.074  0.00  0.00    +0.000 A 
ATOM     12  C   UNL     1       4.459   4.337  16.998  0.00  0.00    +0.000 A 
ATOM     13  C   UNL     1       5.029   3.645  15.930  0.00  0.00    +0.000 A 
ENDBRANCH   1  11
BRANCH   4  14
ATOM     14  N   UNL     1       1.103   7.916  20.894  0.00  0.00    +0.000 NA
ATOM     15  C   UNL     1       1.353   9.139  21.258  0.00  0.00    +0.000 C 
BRANCH  15  16
ATOM     16  C   UNL     1       0.362   9.962  21.906  0.00  0.00    +0.000 A 
ATOM     17  C   UNL     1      -0.336   9.751  23.077  0.00  0.00    +0.000 A 
ATOM     18  C   UNL     1      -1.340  10.743  23.292  0.00  0.00    +0.000 A 
ATOM     19  C   UNL     1      -1.362  11.683  22.285  0.00  0.00    +0.000 A 
ATOM     20  S   UNL     1      -0.161  11.385  21.107  0.00  0.00    +0.000 S 
ENDBRANCH  15  16
ENDBRANCH   4  14
TORSDOF 3
ENDMDL
MODEL 5
REMARK VINA RESULT:      -6.3      5.597      7.037
REMARK  Name = 
REMARK  4 active torsions:
REMARK  status: ('A' for Active; 'I' for Inactive)
REMARK    1  A    between atoms: C_1  and  C_2
REMARK    2  A    between atoms: C_5  and  N_6
REMARK    3  A    between atoms: N_9  and  N_10
REMARK    4  A    between atoms: C_11  and  C_12
REMARK                            x       y       z     vdW  Elec       q    Type
REMARK                         _______ _______ _______ _____ _____    ______ ____
ROOT
ATOM      1  N   UNL     1       5.987   5.487  17.636  0.00  0.00    +0.000 N 
ATOM      2  C   UNL     1       5.806   6.583  16.674  0.00  0.00    +0.000 C 
ATOM      3  C   UNL     1       6.405   7.886  17.248  0.00  0.00    +0.000 C 
ATOM      4  N   UNL     1       7.814   7.687  17.649  0.00  0.00    +0.000 N 
ATOM      5  C   UNL     1       7.867   6.664  18.716  0.00  0.00    +0.000 C 
ATOM      6  C   UNL     1       7.355   5.327  18.148  0.00  0.00    +0.000 C 
ENDROOT
BRANCH   1  11
ATOM      7  C   UNL     1       1.884   1.772  19.059  0.00  0.00    +0.000 C 
ATOM      8  C   UNL     1       2.946   2.751  18.665  0.00  0.00    +0.000 A 
ATOM      9  C   UNL     1       2.863   3.478  17.476  0.00  0.00    +0.000 A 
ATOM     10  C   UNL     1       3.871   4.388  17.135  0.00  0.00    +0.000 A 
ATOM     11  C   UNL     1       4.986   4.595  17.952  0.00  0.00    +0.000 A 
ATOM     12  C   UNL     1       5.037   3.861  19.148  0.00  0.00    +0.000 A 
ATOM     13  C   UNL     1       4.040   2.953  19.499  0.00  0.00    +0.000 A 
ENDBRANCH   1  11
BRANCH   4  14
ATOM     14  N   UNL     1       8.599   8.797  17.690  0.00  0.00    +0.000 NA
ATOM     15  C   UNL     1       8.522   9.421  18.828  0.00  0.00    +0.000 C 
BRANCH  15  16
ATOM     16  C   UNL     1       9.458  10.454  19.198  0.00  0.00    +0.000 A 
ATOM     17  C   UNL     1       9.785  10.948  20.444  0.00  0.00    +0.000 A 
ATOM     18  C   UNL     1      10.651  12.079  20.365  0.00  0.00    +0.000 A 
ATOM     19  C   UNL     1      10.965  12.400  19.062  0.00  0.00    +0.000 A 
ATOM     20  S   UNL     1      10.243  11.324  17.948  0.00  0.00    +0.000 S 
ENDBRANCH  15  16
ENDBRANCH   4  14
TORSDOF 3
ENDMDL
MODEL 6
REMARK VINA RESULT:      -6.2      5.044      6.947
REMARK  Name = 
REMARK  4 active torsions:
REMARK  status: ('A' for Active; 'I' for Inactive)
REMARK    1  A    between atoms: C_1  and  C_2
REMARK    2  A    between atoms: C_5  and  N_6
REMARK    3  A    between atoms: N_9  and  N_10
REMARK    4  A    between atoms: C_11  and  C_12
REMARK                            x       y       z     vdW  Elec       q    Type
REMARK                         _______ _______ _______ _____ _____    ______ ____
ROOT
ATOM      1  N   UNL     1       5.634   5.538  17.669  0.00  0.00    +0.000 N 
ATOM      2  C   UNL     1       5.583   6.716  16.793  0.00  0.00    +0.000 C 
ATOM      3  C   UNL     1       6.388   7.873  17.427  0.00  0.00    +0.000 C 
ATOM      4  N   UNL     1       7.765   7.443  17.750  0.00  0.00    +0.000 N 
ATOM      5  C   UNL     1       7.703   6.347  18.741  0.00  0.00    +0.000 C 
ATOM      6  C   UNL     1       6.980   5.144  18.107  0.00  0.00    +0.000 C 
ENDROOT
BRANCH   1  11
ATOM      7  C   UNL     1       1.035   2.338  18.801  0.00  0.00    +0.000 C 
ATOM      8  C   UNL     1       2.241   3.183  18.529  0.00  0.00    +0.000 A 
ATOM      9  C   UNL     1       2.845   3.938  19.536  0.00  0.00    +0.000 A 
ATOM     10  C   UNL     1       3.973   4.719  19.252  0.00  0.00    +0.000 A 
ATOM     11  C   UNL     1       4.524   4.779  17.969  0.00  0.00    +0.000 A 
ATOM     12  C   UNL     1       3.905   3.999  16.979  0.00  0.00    +0.000 A 
ATOM     13  C   UNL     1       2.784   3.217  17.249  0.00  0.00    +0.000 A 
ENDBRANCH   1  11
BRANCH   4  14
ATOM     14  N   UNL     1       8.705   8.421  17.830  0.00  0.00    +0.000 NA
ATOM     15  C   UNL     1       8.357   9.384  18.631  0.00  0.00    +0.000 C 
BRANCH  15  16
ATOM     16  C   UNL     1       9.295  10.383  19.082  0.00  0.00    +0.000 A 
ATOM     17  C   UNL     1       9.625  10.775  20.362  0.00  0.00    +0.000 A 
ATOM     18  C   UNL     1      10.494  11.906  20.373  0.00  0.00    +0.000 A 
ATOM     19  C   UNL     1      10.808  12.329  19.099  0.00  0.00    +0.000 A 
ATOM     20  S   UNL     1      10.083  11.347  17.904  0.00  0.00    +0.000 S 
ENDBRANCH  15  16
ENDBRANCH   4  14
TORSDOF 3
ENDMDL
MODEL 7
REMARK VINA RESULT:      -6.2      2.221      4.114
REMARK  Name = 
REMARK  4 active torsions:
REMARK  status: ('A' for Active; 'I' for Inactive)
REMARK    1  A    between atoms: C_1  and  C_2
REMARK    2  A    between atoms: C_5  and  N_6
REMARK    3  A    between atoms: N_9  and  N_10
REMARK    4  A    between atoms: C_11  and  C_12
REMARK                            x       y       z     vdW  Elec       q    Type
REMARK                         _______ _______ _______ _____ _____    ______ ____
ROOT
ATOM      1  N   UNL     1       1.451   8.378  19.974  0.00  0.00    +0.000 N 
ATOM      2  C   UNL     1       1.023   7.971  21.320  0.00  0.00    +0.000 C 
ATOM      3  C   UNL     1       1.090   9.181  22.277  0.00  0.00    +0.000 C 
ATOM      4  N   UNL     1       0.321  10.324  21.739  0.00  0.00    +0.000 N 
ATOM      5  C   UNL     1       0.919  10.739  20.452  0.00  0.00    +0.000 C 
ATOM      6  C   UNL     1       0.790   9.580  19.446  0.00  0.00    +0.000 C 
ENDROOT
BRANCH   1  11
ATOM      7  C   UNL     1       5.062   5.379  16.715  0.00  0.00    +0.000 C 
ATOM      8  C   UNL     1       4.117   6.146  17.586  0.00  0.00    +0.000 A 
ATOM      9  C   UNL     1       3.662   5.629  18.800  0.00  0.00    +0.000 A 
ATOM     10  C   UNL     1       2.778   6.371  19.595  0.00  0.00    +0.000 A 
ATOM     11  C   UNL     1       2.318   7.631  19.206  0.00  0.00    +0.000 A 
ATOM     12  C   UNL     1       2.803   8.133  17.988  0.00  0.00    +0.000 A 
ATOM     13  C   UNL     1       3.683   7.406  17.189  0.00  0.00    +0.000 A 
ENDBRANCH   1  11
BRANCH   4  14
ATOM     14  N   UNL     1      -0.127  11.236  22.642  0.00  0.00    +0.000 NA
ATOM     15  C   UNL     1      -1.224  11.820  22.259  0.00  0.00    +0.000 C 
BRANCH  15  16
ATOM     16  C   UNL     1      -2.023  12.614  23.159  0.00  0.00    +0.000 A 
ATOM     17  C   UNL     1      -3.284  12.377  23.667  0.00  0.00    +0.000 A 
ATOM     18  C   UNL     1      -3.783  13.489  24.410  0.00  0.00    +0.000 A 
ATOM     19  C   UNL     1      -2.879  14.528  24.455  0.00  0.00    +0.000 A 
ATOM     20  S   UNL     1      -1.430  14.150  23.632  0.00  0.00    +0.000 S 
ENDBRANCH  15  16
ENDBRANCH   4  14
TORSDOF 3
ENDMDL
MODEL 8
REMARK VINA RESULT:      -6.1      2.871      9.118
REMARK  Name = 
REMARK  4 active torsions:
REMARK  status: ('A' for Active; 'I' for Inactive)
REMARK    1  A    between atoms: C_1  and  C_2
REMARK    2  A    between atoms: C_5  and  N_6
REMARK    3  A    between atoms: N_9  and  N_10
REMARK    4  A    between atoms: C_11  and  C_12
REMARK                            x       y       z     vdW  Elec       q    Type
REMARK                         _______ _______ _______ _____ _____    ______ ____
ROOT
ATOM      1  N   UNL     1       0.374  10.355  20.894  0.00  0.00    +0.000 N 
ATOM      2  C   UNL     1       1.104   9.322  21.643  0.00  0.00    +0.000 C 
ATOM      3  C   UNL     1       1.319   8.082  20.747  0.00  0.00    +0.000 C 
ATOM      4  N   UNL     1       1.974   8.456  19.476  0.00  0.00    +0.000 N 
ATOM      5  C   UNL     1       1.094   9.390  18.741  0.00  0.00    +0.000 C 
ATOM      6  C   UNL     1       0.929  10.676  19.572  0.00  0.00    +0.000 C 
ENDROOT
BRANCH   1  11
ATOM      7  C   UNL     1      -3.972  13.248  23.219  0.00  0.00    +0.000 C 
ATOM      8  C   UNL     1      -2.837  12.502  22.588  0.00  0.00    +0.000 A 
ATOM      9  C   UNL     1      -2.517  12.666  21.239  0.00  0.00    +0.000 A 
ATOM     10  C   UNL     1      -1.449  11.955  20.676  0.00  0.00    +0.000 A 
ATOM     11  C   UNL     1      -0.681  11.061  21.428  0.00  0.00    +0.000 A 
ATOM     12  C   UNL     1      -1.017  10.927  22.784  0.00  0.00    +0.000 A 
ATOM     13  C   UNL     1      -2.075  11.629  23.356  0.00  0.00    +0.000 A 
ENDBRANCH   1  11
BRANCH   4  14
ATOM     14  N   UNL     1       2.663   7.475  18.834  0.00  0.00    +0.000 NA
ATOM     15  C   UNL     1       2.241   6.285  19.142  0.00  0.00    +0.000 C 
BRANCH  15  16
ATOM     16  C   UNL     1       2.629   5.116  18.391  0.00  0.00    +0.000 A 
ATOM     17  C   UNL     1       1.854   4.108  17.859  0.00  0.00    +0.000 A 
ATOM     18  C   UNL     1       2.644   3.051  17.315  0.00  0.00    +0.000 A 
ATOM     19  C   UNL     1       3.994   3.298  17.438  0.00  0.00    +0.000 A 
ATOM     20  S   UNL     1       4.301   4.808  18.178  0.00  0.00    +0.000 S 
ENDBRANCH  15  16
ENDBRANCH   4  14
TORSDOF 3
ENDMDL
MODEL 9
REMARK VINA RESULT:      -6.1      2.359      4.497
REMARK  Name = 
REMARK  4 active torsions:
REMARK  status: ('A' for Active; 'I' for Inactive)
REMARK    1  A    between atoms: C_1  and  C_2
REMARK    2  A    between atoms: C_5  and  N_6
REMARK    3  A    between atoms: N_9  and  N_10
REMARK    4  A    between atoms: C_11  and  C_12
REMARK                            x       y       z     vdW  Elec       q    Type
REMARK                         _______ _______ _______ _____ _____    ______ ____
ROOT
ATOM      1  N   UNL     1       1.269   8.496  20.100  0.00  0.00    +0.000 N 
ATOM      2  C   UNL     1       0.808   8.011  21.408  0.00  0.00    +0.000 C 
ATOM      3  C   UNL     1       0.873   9.156  22.442  0.00  0.00    +0.000 C 
ATOM      4  N   UNL     1       0.132  10.343  21.965  0.00  0.00    +0.000 N 
ATOM      5  C   UNL     1       0.763  10.831  20.719  0.00  0.00    +0.000 C 
ATOM      6  C   UNL     1       0.637   9.740  19.638  0.00  0.00    +0.000 C 
ENDROOT
BRANCH   1  11
ATOM      7  C   UNL     1       4.866   5.455  16.863  0.00  0.00    +0.000 C 
ATOM      8  C   UNL     1       3.923   6.270  17.694  0.00  0.00    +0.000 A 
ATOM      9  C   UNL     1       3.502   7.537  17.287  0.00  0.00    +0.000 A 
ATOM     10  C   UNL     1       2.620   8.277  18.085  0.00  0.00    +0.000 A 
ATOM     11  C   UNL     1       2.140   7.787  19.303  0.00  0.00    +0.000 A 
ATOM     12  C   UNL     1       2.568   6.504  19.680  0.00  0.00    +0.000 A 
ATOM     13  C   UNL     1       3.445   5.758  18.895  0.00  0.00    +0.000 A 
ENDBRANCH   1  11
BRANCH   4  14
ATOM     14  N   UNL     1      -0.321  11.202  22.915  0.00  0.00    +0.000 NA
ATOM     15  C   UNL     1      -0.852  12.275  22.406  0.00  0.00    +0.000 C 
BRANCH  15  16
ATOM     16  C   UNL     1      -1.635  13.191  23.199  0.00  0.00    +0.000 A 
ATOM     17  C   UNL     1      -1.266  14.369  23.813  0.00  0.00    +0.000 A 
ATOM     18  C   UNL     1      -2.308  14.900  24.631  0.00  0.00    +0.000 A 
ATOM     19  C   UNL     1      -3.440  14.116  24.599  0.00  0.00    +0.000 A 
ATOM     20  S   UNL     1      -3.254  12.767  23.567  0.00  0.00    +0.000 S 
ENDBRANCH  15  16
ENDBRANCH   4  14
TORSDOF 3
ENDMDL
