MODEL 1
REMARK VINA RESULT:      -7.7      0.000      0.000
REMARK  Name = 
REMARK  8 active torsions:
REMARK  status: ('A' for Active; 'I' for Inactive)
REMARK    1  A    between atoms: C_1  and  C_2
REMARK    2  A    between atoms: C_2  and  C_3
REMARK    3  A    between atoms: C_3  and  C_4
REMARK    4  A    between atoms: C_4  and  C_5
REMARK    5  A    between atoms: C_8  and  C_9
REMARK    6  A    between atoms: C_11  and  C_12
REMARK    7  A    between atoms: C_12  and  N_13
REMARK    8  A    between atoms: N_13  and  C_14
REMARK                            x       y       z     vdW  Elec       q    Type
REMARK                         _______ _______ _______ _____ _____    ______ ____
ROOT
ATOM      1  C   UNL     1       3.102   6.948  18.036  0.00  0.00    +0.000 A 
ATOM      2  N   UNL     1       2.950   5.638  17.990  0.00  0.00    +0.000 NA
ATOM      3  C   UNL     1       4.057   5.196  17.293  0.00  0.00    +0.000 A 
ATOM      4  C   UNL     1       4.830   6.276  16.935  0.00  0.00    +0.000 A 
ATOM      5  O   UNL     1       4.229   7.402  17.401  0.00  0.00    +0.000 OA
ENDROOT
BRANCH   1   9
ATOM      6  C   UNL     1       0.503   9.792  19.888  0.00  0.00    +0.000 A 
ATOM      7  C   UNL     1       0.984  10.001  18.588  0.00  0.00    +0.000 A 
ATOM      8  C   UNL     1       1.860   9.085  18.002  0.00  0.00    +0.000 A 
ATOM      9  C   UNL     1       2.283   7.951  18.708  0.00  0.00    +0.000 A 
ATOM     10  C   UNL     1       1.858   7.787  20.032  0.00  0.00    +0.000 A 
ATOM     11  C   UNL     1       0.973   8.696  20.617  0.00  0.00    +0.000 A 
BRANCH   6  12
ATOM     12  C   UNL     1      -0.569  10.690  20.457  0.00  0.00    +0.000 C 
BRANCH  12  13
ATOM     13  C   UNL     1       0.064  11.934  21.089  0.00  0.00    +0.000 C 
BRANCH  13  15
ATOM     14  C   UNL     1      -1.390  11.289  23.021  0.00  0.00    +0.000 C 
ATOM     15  C   UNL     1      -0.722  12.444  22.291  0.00  0.00    +0.000 C 
ENDBRANCH  13  15
ENDBRANCH  12  13
ENDBRANCH   6  12
ENDBRANCH   1   9
BRANCH   3  16
ATOM     16  C   UNL     1       4.262   3.758  16.986  0.00  0.00    +0.000 C 
BRANCH  16  17
ATOM     17  N   UNL     1       4.744   3.036  18.171  0.00  0.00    +0.000 NA
ATOM     18  H   UNL     1       5.083   3.748  18.824  0.00  0.00    +0.000 HD
BRANCH  17  19
ATOM     19  C   UNL     1       3.741   2.207  18.871  0.00  0.00    +0.000 C 
ATOM     20  C   UNL     1       3.580   2.558  20.359  0.00  0.00    +0.000 C 
ATOM     21  C   UNL     1       2.834   3.863  20.616  0.00  0.00    +0.000 C 
ATOM     22  C   UNL     1       1.337   3.631  20.807  0.00  0.00    +0.000 C 
ATOM     23  C   UNL     1       0.575   3.174  19.565  0.00  0.00    +0.000 C 
ATOM     24  C   UNL     1       1.154   1.966  18.825  0.00  0.00    +0.000 C 
ATOM     25  C   UNL     1       2.434   2.304  18.057  0.00  0.00    +0.000 C 
ENDBRANCH  17  19
ENDBRANCH  16  17
ENDBRANCH   3  16
TORSDOF 7
ENDMDL
MODEL 2
REMARK VINA RESULT:      -7.6      5.080      8.584
REMARK  Name = 
REMARK  8 active torsions:
REMARK  status: ('A' for Active; 'I' for Inactive)
REMARK    1  A    between atoms: C_1  and  C_2
REMARK    2  A    between atoms: C_2  and  C_3
REMARK    3  A    between atoms: C_3  and  C_4
REMARK    4  A    between atoms: C_4  and  C_5
REMARK    5  A    between atoms: C_8  and  C_9
REMARK    6  A    between atoms: C_11  and  C_12
REMARK    7  A    between atoms: C_12  and  N_13
REMARK    8  A    between atoms: N_13  and  C_14
REMARK                            x       y       z     vdW  Elec       q    Type
REMARK                         _______ _______ _______ _____ _____    ______ ____
ROOT
ATOM      1  C   UNL     1       5.959   6.309  17.999  0.00  0.00    +0.000 A 
ATOM      2  N   UNL     1       6.246   7.484  17.470  0.00  0.00    +0.000 NA
ATOM      3  C   UNL     1       7.565   7.696  17.819  0.00  0.00    +0.000 A 
ATOM      4  C   UNL     1       8.015   6.630  18.564  0.00  0.00    +0.000 A 
ATOM      5  O   UNL     1       6.998   5.739  18.688  0.00  0.00    +0.000 OA
ENDROOT
BRANCH   1   9
ATOM      6  C   UNL     1       2.383   3.968  17.952  0.00  0.00    +0.000 A 
ATOM      7  C   UNL     1       3.642   3.355  17.887  0.00  0.00    +0.000 A 
ATOM      8  C   UNL     1       4.805   4.128  17.869  0.00  0.00    +0.000 A 
ATOM      9  C   UNL     1       4.732   5.526  17.901  0.00  0.00    +0.000 A 
ATOM     10  C   UNL     1       3.470   6.134  17.890  0.00  0.00    +0.000 A 
ATOM     11  C   UNL     1       2.305   5.363  17.920  0.00  0.00    +0.000 A 
BRANCH   6  12
ATOM     12  C   UNL     1       1.138   3.134  18.141  0.00  0.00    +0.000 C 
BRANCH  12  13
ATOM     13  C   UNL     1       1.294   2.222  19.362  0.00  0.00    +0.000 C 
BRANCH  13  15
ATOM     14  C   UNL     1       2.430   2.947  21.471  0.00  0.00    +0.000 C 
ATOM     15  C   UNL     1       1.133   2.973  20.677  0.00  0.00    +0.000 C 
ENDBRANCH  13  15
ENDBRANCH  12  13
ENDBRANCH   6  12
ENDBRANCH   1   9
BRANCH   3  16
ATOM     16  C   UNL     1       8.281   8.941  17.442  0.00  0.00    +0.000 C 
BRANCH  16  17
ATOM     17  N   UNL     1       8.379   9.853  18.590  0.00  0.00    +0.000 NA
ATOM     18  H   UNL     1       8.073   9.319  19.409  0.00  0.00    +0.000 HD
BRANCH  17  19
ATOM     19  C   UNL     1       9.726  10.394  18.868  0.00  0.00    +0.000 C 
ATOM     20  C   UNL     1      10.240  11.354  17.784  0.00  0.00    +0.000 C 
ATOM     21  C   UNL     1       9.573  12.726  17.795  0.00  0.00    +0.000 C 
ATOM     22  C   UNL     1      10.352  13.728  18.644  0.00  0.00    +0.000 C 
ATOM     23  C   UNL     1      10.352  13.462  20.147  0.00  0.00    +0.000 C 
ATOM     24  C   UNL     1      10.757  12.051  20.583  0.00  0.00    +0.000 C 
ATOM     25  C   UNL     1       9.677  11.010  20.282  0.00  0.00    +0.000 C 
ENDBRANCH  17  19
ENDBRANCH  16  17
ENDBRANCH   3  16
TORSDOF 7
ENDMDL
MODEL 3
REMARK VINA RESULT:      -7.6      5.002      8.493
REMARK  Name = 
REMARK  8 active torsions:
REMARK  status: ('A' for Active; 'I' for Inactive)
REMARK    1  A    between atoms: C_1  and  C_2
REMARK    2  A    between atoms: C_2  and  C_3
REMARK    3  A    between atoms: C_3  and  C_4
REMARK    4  A    between atoms: C_4  and  C_5
REMARK    5  A    between atoms: C_8  and  C_9
REMARK    6  A    between atoms: C_11  and  C_12
REMARK    7  A    between atoms: C_12  and  N_13
REMARK    8  A    between atoms: N_13  and  C_14
REMARK                            x       y       z     vdW  Elec       q    Type
REMARK                         _______ _______ _______ _____ _____    ______ ____
ROOT
ATOM      1  C   UNL     1       6.049   6.124  18.208  0.00  0.00    +0.000 A 
ATOM      2  N   UNL     1       6.313   7.341  17.770  0.00  0.00    +0.000 NA
ATOM      3  C   UNL     1       7.637   7.538  18.107  0.00  0.00    +0.000 A 
ATOM      4  C   UNL     1       8.114   6.420  18.752  0.00  0.00    +0.000 A 
ATOM      5  O   UNL     1       7.108   5.510  18.825  0.00  0.00    +0.000 OA
ENDROOT
BRANCH   1   9
ATOM      6  C   UNL     1       2.473   3.787  18.055  0.00  0.00    +0.000 A 
ATOM      7  C   UNL     1       3.731   3.170  18.101  0.00  0.00    +0.000 A 
ATOM      8  C   UNL     1       4.896   3.939  18.116  0.00  0.00    +0.000 A 
ATOM      9  C   UNL     1       4.827   5.338  18.072  0.00  0.00    +0.000 A 
ATOM     10  C   UNL     1       3.571   5.946  17.951  0.00  0.00    +0.000 A 
ATOM     11  C   UNL     1       2.403   5.179  17.946  0.00  0.00    +0.000 A 
BRANCH   6  12
ATOM     12  C   UNL     1       1.215   2.965  18.207  0.00  0.00    +0.000 C 
BRANCH  12  13
ATOM     13  C   UNL     1       1.034   2.542  19.668  0.00  0.00    +0.000 C 
BRANCH  13  15
ATOM     14  C   UNL     1       2.102   3.362  21.778  0.00  0.00    +0.000 C 
ATOM     15  C   UNL     1       1.161   3.712  20.636  0.00  0.00    +0.000 C 
ENDBRANCH  13  15
ENDBRANCH  12  13
ENDBRANCH   6  12
ENDBRANCH   1   9
BRANCH   3  16
ATOM     16  C   UNL     1       8.333   8.818  17.818  0.00  0.00    +0.000 C 
BRANCH  16  17
ATOM     17  N   UNL     1       9.101   9.269  18.986  0.00  0.00    +0.000 NA
ATOM     18  H   UNL     1      10.074   9.003  18.811  0.00  0.00    +0.000 HD
BRANCH  17  19
ATOM     19  C   UNL     1       9.061  10.720  19.261  0.00  0.00    +0.000 C 
ATOM     20  C   UNL     1      10.328  11.254  19.946  0.00  0.00    +0.000 C 
ATOM     21  C   UNL     1      11.541  11.355  19.026  0.00  0.00    +0.000 C 
ATOM     22  C   UNL     1      11.654  12.738  18.389  0.00  0.00    +0.000 C 
ATOM     23  C   UNL     1      10.568  13.089  17.374  0.00  0.00    +0.000 C 
ATOM     24  C   UNL     1       9.122  12.894  17.838  0.00  0.00    +0.000 C 
ATOM     25  C   UNL     1       8.727  11.419  17.926  0.00  0.00    +0.000 C 
ENDBRANCH  17  19
ENDBRANCH  16  17
ENDBRANCH   3  16
TORSDOF 7
ENDMDL
MODEL 4
REMARK VINA RESULT:      -7.5      3.433      5.834
REMARK  Name = 
REMARK  8 active torsions:
REMARK  status: ('A' for Active; 'I' for Inactive)
REMARK    1  A    between atoms: C_1  and  C_2
REMARK    2  A    between atoms: C_2  and  C_3
REMARK    3  A    between atoms: C_3  and  C_4
REMARK    4  A    between atoms: C_4  and  C_5
REMARK    5  A    between atoms: C_8  and  C_9
REMARK    6  A    between atoms: C_11  and  C_12
REMARK    7  A    between atoms: C_12  and  N_13
REMARK    8  A    between atoms: N_13  and  C_14
REMARK                            x       y       z     vdW  Elec       q    Type
REMARK                         _______ _______ _______ _____ _____    ______ ____
ROOT
ATOM      1  C   UNL     1       5.513   4.295  18.476  0.00  0.00    +0.000 A 
ATOM      2  N   UNL     1       4.644   3.672  17.702  0.00  0.00    +0.000 NA
ATOM      3  C   UNL     1       4.127   2.680  18.510  0.00  0.00    +0.000 A 
ATOM      4  C   UNL     1       4.724   2.742  19.747  0.00  0.00    +0.000 A 
ATOM      5  O   UNL     1       5.614   3.769  19.738  0.00  0.00    +0.000 OA
ENDROOT
BRANCH   1   9
ATOM      6  C   UNL     1       7.716   7.895  17.797  0.00  0.00    +0.000 A 
ATOM      7  C   UNL     1       6.558   7.613  17.058  0.00  0.00    +0.000 A 
ATOM      8  C   UNL     1       5.862   6.419  17.261  0.00  0.00    +0.000 A 
ATOM      9  C   UNL     1       6.317   5.479  18.196  0.00  0.00    +0.000 A 
ATOM     10  C   UNL     1       7.515   5.734  18.876  0.00  0.00    +0.000 A 
ATOM     11  C   UNL     1       8.207   6.932  18.682  0.00  0.00    +0.000 A 
BRANCH   6  12
ATOM     12  C   UNL     1       8.370   9.252  17.698  0.00  0.00    +0.000 C 
BRANCH  12  13
ATOM     13  C   UNL     1       8.952   9.658  19.056  0.00  0.00    +0.000 C 
BRANCH  13  15
ATOM     14  C   UNL     1      10.402  11.345  20.204  0.00  0.00    +0.000 C 
ATOM     15  C   UNL     1       9.391  11.117  19.090  0.00  0.00    +0.000 C 
ENDBRANCH  13  15
ENDBRANCH  12  13
ENDBRANCH   6  12
ENDBRANCH   1   9
BRANCH   3  16
ATOM     16  C   UNL     1       3.119   1.711  18.006  0.00  0.00    +0.000 C 
BRANCH  16  17
ATOM     17  N   UNL     1       1.920   1.720  18.854  0.00  0.00    +0.000 NA
ATOM     18  H   UNL     1       2.248   1.626  19.820  0.00  0.00    +0.000 HD
BRANCH  17  19
ATOM     19  C   UNL     1       1.081   2.934  18.767  0.00  0.00    +0.000 C 
ATOM     20  C   UNL     1       0.824   3.604  20.126  0.00  0.00    +0.000 C 
ATOM     21  C   UNL     1       2.027   4.350  20.693  0.00  0.00    +0.000 C 
ATOM     22  C   UNL     1       2.021   5.824  20.291  0.00  0.00    +0.000 C 
ATOM     23  C   UNL     1       2.255   6.105  18.809  0.00  0.00    +0.000 C 
ATOM     24  C   UNL     1       1.365   5.339  17.827  0.00  0.00    +0.000 C 
ATOM     25  C   UNL     1       1.740   3.860  17.724  0.00  0.00    +0.000 C 
ENDBRANCH  17  19
ENDBRANCH  16  17
ENDBRANCH   3  16
TORSDOF 7
ENDMDL
MODEL 5
REMARK VINA RESULT:      -7.4      0.817      1.387
REMARK  Name = 
REMARK  8 active torsions:
REMARK  status: ('A' for Active; 'I' for Inactive)
REMARK    1  A    between atoms: C_1  and  C_2
REMARK    2  A    between atoms: C_2  and  C_3
REMARK    3  A    between atoms: C_3  and  C_4
REMARK    4  A    between atoms: C_4  and  C_5
REMARK    5  A    between atoms: C_8  and  C_9
REMARK    6  A    between atoms: C_11  and  C_12
REMARK    7  A    between atoms: C_12  and  N_13
REMARK    8  A    between atoms: N_13  and  C_14
REMARK                            x       y       z     vdW  Elec       q    Type
REMARK                         _______ _______ _______ _____ _____    ______ ____
ROOT
ATOM      1  C   UNL     1       3.113   6.924  17.980  0.00  0.00    +0.000 A 
ATOM      2  N   UNL     1       2.969   5.613  17.930  0.00  0.00    +0.000 NA
ATOM      3  C   UNL     1       4.135   5.170  17.340  0.00  0.00    +0.000 A 
ATOM      4  C   UNL     1       4.934   6.249  17.044  0.00  0.00    +0.000 A 
ATOM      5  O   UNL     1       4.292   7.377  17.446  0.00  0.00    +0.000 OA
ENDROOT
BRANCH   1   9
ATOM      6  C   UNL     1       0.734   9.971  19.804  0.00  0.00    +0.000 A 
ATOM      7  C   UNL     1       1.132   8.841  20.532  0.00  0.00    +0.000 A 
ATOM      8  C   UNL     1       1.881   7.834  19.920  0.00  0.00    +0.000 A 
ATOM      9  C   UNL     1       2.233   7.929  18.567  0.00  0.00    +0.000 A 
ATOM     10  C   UNL     1       1.768   9.024  17.827  0.00  0.00    +0.000 A 
ATOM     11  C   UNL     1       1.029  10.038  18.440  0.00  0.00    +0.000 A 
BRANCH   6  12
ATOM     12  C   UNL     1       0.072  11.134  20.504  0.00  0.00    +0.000 C 
BRANCH  12  13
ATOM     13  C   UNL     1      -0.292  12.224  19.491  0.00  0.00    +0.000 C 
BRANCH  13  15
ATOM     14  C   UNL     1      -2.505  12.624  20.590  0.00  0.00    +0.000 C 
ATOM     15  C   UNL     1      -1.796  12.341  19.275  0.00  0.00    +0.000 C 
ENDBRANCH  13  15
ENDBRANCH  12  13
ENDBRANCH   6  12
ENDBRANCH   1   9
BRANCH   3  16
ATOM     16  C   UNL     1       4.370   3.730  17.063  0.00  0.00    +0.000 C 
BRANCH  16  17
ATOM     17  N   UNL     1       4.798   3.029  18.281  0.00  0.00    +0.000 NA
ATOM     18  H   UNL     1       5.089   3.754  18.943  0.00  0.00    +0.000 HD
BRANCH  17  19
ATOM     19  C   UNL     1       3.771   2.191  18.935  0.00  0.00    +0.000 C 
ATOM     20  C   UNL     1       3.533   2.547  20.410  0.00  0.00    +0.000 C 
ATOM     21  C   UNL     1       2.759   3.844  20.623  0.00  0.00    +0.000 C 
ATOM     22  C   UNL     1       1.256   3.595  20.741  0.00  0.00    +0.000 C 
ATOM     23  C   UNL     1       0.563   3.122  19.465  0.00  0.00    +0.000 C 
ATOM     24  C   UNL     1       1.193   1.917  18.761  0.00  0.00    +0.000 C 
ATOM     25  C   UNL     1       2.505   2.268  18.056  0.00  0.00    +0.000 C 
ENDBRANCH  17  19
ENDBRANCH  16  17
ENDBRANCH   3  16
TORSDOF 7
ENDMDL
MODEL 6
REMARK VINA RESULT:      -7.4      0.991      1.264
REMARK  Name = 
REMARK  8 active torsions:
REMARK  status: ('A' for Active; 'I' for Inactive)
REMARK    1  A    between atoms: C_1  and  C_2
REMARK    2  A    between atoms: C_2  and  C_3
REMARK    3  A    between atoms: C_3  and  C_4
REMARK    4  A    between atoms: C_4  and  C_5
REMARK    5  A    between atoms: C_8  and  C_9
REMARK    6  A    between atoms: C_11  and  C_12
REMARK    7  A    between atoms: C_12  and  N_13
REMARK    8  A    between atoms: N_13  and  C_14
REMARK                            x       y       z     vdW  Elec       q    Type
REMARK                         _______ _______ _______ _____ _____    ______ ____
ROOT
ATOM      1  C   UNL     1       3.333   6.840  17.970  0.00  0.00    +0.000 A 
ATOM      2  N   UNL     1       3.397   5.552  18.252  0.00  0.00    +0.000 NA
ATOM      3  C   UNL     1       4.428   5.087  17.462  0.00  0.00    +0.000 A 
ATOM      4  C   UNL     1       4.938   6.126  16.719  0.00  0.00    +0.000 A 
ATOM      5  O   UNL     1       4.245   7.252  17.033  0.00  0.00    +0.000 OA
ENDROOT
BRANCH   1   9
ATOM      6  C   UNL     1       0.648   9.763  19.557  0.00  0.00    +0.000 A 
ATOM      7  C   UNL     1       1.173   9.899  18.264  0.00  0.00    +0.000 A 
ATOM      8  C   UNL     1       2.076   8.958  17.765  0.00  0.00    +0.000 A 
ATOM      9  C   UNL     1       2.482   7.872  18.551  0.00  0.00    +0.000 A 
ATOM     10  C   UNL     1       2.011   7.783  19.868  0.00  0.00    +0.000 A 
ATOM     11  C   UNL     1       1.099   8.717  20.366  0.00  0.00    +0.000 A 
BRANCH   6  12
ATOM     12  C   UNL     1      -0.451  10.682  20.033  0.00  0.00    +0.000 C 
BRANCH  12  13
ATOM     13  C   UNL     1      -1.593  10.715  19.011  0.00  0.00    +0.000 C 
BRANCH  13  15
ATOM     14  C   UNL     1      -1.681  13.025  19.970  0.00  0.00    +0.000 C 
ATOM     15  C   UNL     1      -2.321  12.053  18.990  0.00  0.00    +0.000 C 
ENDBRANCH  13  15
ENDBRANCH  12  13
ENDBRANCH   6  12
ENDBRANCH   1   9
BRANCH   3  16
ATOM     16  C   UNL     1       4.816   3.653  17.451  0.00  0.00    +0.000 C 
BRANCH  16  17
ATOM     17  N   UNL     1       5.007   3.155  18.820  0.00  0.00    +0.000 NA
ATOM     18  H   UNL     1       5.030   3.981  19.426  0.00  0.00    +0.000 HD
BRANCH  17  19
ATOM     19  C   UNL     1       3.961   2.241  19.323  0.00  0.00    +0.000 C 
ATOM     20  C   UNL     1       3.454   2.598  20.729  0.00  0.00    +0.000 C 
ATOM     21  C   UNL     1       2.550   3.825  20.775  0.00  0.00    +0.000 C 
ATOM     22  C   UNL     1       1.075   3.447  20.654  0.00  0.00    +0.000 C 
ATOM     23  C   UNL     1       0.643   2.895  19.298  0.00  0.00    +0.000 C 
ATOM     24  C   UNL     1       1.479   1.740  18.741  0.00  0.00    +0.000 C 
ATOM     25  C   UNL     1       2.854   2.193  18.249  0.00  0.00    +0.000 C 
ENDBRANCH  17  19
ENDBRANCH  16  17
ENDBRANCH   3  16
TORSDOF 7
ENDMDL
MODEL 7
REMARK VINA RESULT:      -7.4      1.015      1.786
REMARK  Name = 
REMARK  8 active torsions:
REMARK  status: ('A' for Active; 'I' for Inactive)
REMARK    1  A    between atoms: C_1  and  C_2
REMARK    2  A    between atoms: C_2  and  C_3
REMARK    3  A    between atoms: C_3  and  C_4
REMARK    4  A    between atoms: C_4  and  C_5
REMARK    5  A    between atoms: C_8  and  C_9
REMARK    6  A    between atoms: C_11  and  C_12
REMARK    7  A    between atoms: C_12  and  N_13
REMARK    8  A    between atoms: N_13  and  C_14
REMARK                            x       y       z     vdW  Elec       q    Type
REMARK                         _______ _______ _______ _____ _____    ______ ____
ROOT
ATOM      1  C   UNL     1       3.213   6.988  18.117  0.00  0.00    +0.000 A 
ATOM      2  N   UNL     1       3.358   5.707  18.402  0.00  0.00    +0.000 NA
ATOM      3  C   UNL     1       4.506   5.342  17.728  0.00  0.00    +0.000 A 
ATOM      4  C   UNL     1       5.000   6.431  17.048  0.00  0.00    +0.000 A 
ATOM      5  O   UNL     1       4.182   7.488  17.286  0.00  0.00    +0.000 OA
ENDROOT
BRANCH   1   9
ATOM      6  C   UNL     1       0.479   9.904  19.632  0.00  0.00    +0.000 A 
ATOM      7  C   UNL     1       1.019   8.922  20.474  0.00  0.00    +0.000 A 
ATOM      8  C   UNL     1       1.885   7.952  19.965  0.00  0.00    +0.000 A 
ATOM      9  C   UNL     1       2.217   7.936  18.604  0.00  0.00    +0.000 A 
ATOM     10  C   UNL     1       1.615   8.874  17.755  0.00  0.00    +0.000 A 
ATOM     11  C   UNL     1       0.757   9.852  18.263  0.00  0.00    +0.000 A 
BRANCH   6  12
ATOM     12  C   UNL     1      -0.320  11.048  20.210  0.00  0.00    +0.000 C 
BRANCH  12  13
ATOM     13  C   UNL     1       0.202  12.383  19.670  0.00  0.00    +0.000 C 
BRANCH  13  15
ATOM     14  C   UNL     1       2.492  13.148  19.008  0.00  0.00    +0.000 C 
ATOM     15  C   UNL     1       1.608  12.703  20.163  0.00  0.00    +0.000 C 
ENDBRANCH  13  15
ENDBRANCH  12  13
ENDBRANCH   6  12
ENDBRANCH   1   9
BRANCH   3  16
ATOM     16  C   UNL     1       5.016   3.948  17.757  0.00  0.00    +0.000 C 
BRANCH  16  17
ATOM     17  N   UNL     1       5.084   3.447  19.136  0.00  0.00    +0.000 NA
ATOM     18  H   UNL     1       4.915   4.253  19.744  0.00  0.00    +0.000 HD
BRANCH  17  19
ATOM     19  C   UNL     1       4.109   2.392  19.485  0.00  0.00    +0.000 C 
ATOM     20  C   UNL     1       3.446   2.595  20.857  0.00  0.00    +0.000 C 
ATOM     21  C   UNL     1       2.407   3.711  20.889  0.00  0.00    +0.000 C 
ATOM     22  C   UNL     1       1.001   3.185  20.611  0.00  0.00    +0.000 C 
ATOM     23  C   UNL     1       0.753   2.684  19.190  0.00  0.00    +0.000 C 
ATOM     24  C   UNL     1       1.760   1.666  18.647  0.00  0.00    +0.000 C 
ATOM     25  C   UNL     1       3.112   2.298  18.312  0.00  0.00    +0.000 C 
ENDBRANCH  17  19
ENDBRANCH  16  17
ENDBRANCH   3  16
TORSDOF 7
ENDMDL
MODEL 8
REMARK VINA RESULT:      -7.3      5.681      6.676
REMARK  Name = 
REMARK  8 active torsions:
REMARK  status: ('A' for Active; 'I' for Inactive)
REMARK    1  A    between atoms: C_1  and  C_2
REMARK    2  A    between atoms: C_2  and  C_3
REMARK    3  A    between atoms: C_3  and  C_4
REMARK    4  A    between atoms: C_4  and  C_5
REMARK    5  A    between atoms: C_8  and  C_9
REMARK    6  A    between atoms: C_11  and  C_12
REMARK    7  A    between atoms: C_12  and  N_13
REMARK    8  A    between atoms: N_13  and  C_14
REMARK                            x       y       z     vdW  Elec       q    Type
REMARK                         _______ _______ _______ _____ _____    ______ ____
ROOT
ATOM      1  C   UNL     1       8.016   8.527  18.023  0.00  0.00    +0.000 A 
ATOM      2  N   UNL     1       7.107   8.168  17.134  0.00  0.00    +0.000 NA
ATOM      3  C   UNL     1       6.938   6.817  17.356  0.00  0.00    +0.000 A 
ATOM      4  C   UNL     1       7.771   6.414  18.373  0.00  0.00    +0.000 A 
ATOM      5  O   UNL     1       8.467   7.497  18.806  0.00  0.00    +0.000 OA
ENDROOT
BRANCH   1   9
ATOM      6  C   UNL     1       9.783  12.345  18.778  0.00  0.00    +0.000 A 
ATOM      7  C   UNL     1      10.040  11.256  19.623  0.00  0.00    +0.000 A 
ATOM      8  C   UNL     1       9.433  10.021  19.390  0.00  0.00    +0.000 A 
ATOM      9  C   UNL     1       8.547   9.853  18.318  0.00  0.00    +0.000 A 
ATOM     10  C   UNL     1       8.236  10.964  17.523  0.00  0.00    +0.000 A 
ATOM     11  C   UNL     1       8.851  12.198  17.747  0.00  0.00    +0.000 A 
BRANCH   6  12
ATOM     12  C   UNL     1      10.565  13.628  18.929  0.00  0.00    +0.000 C 
BRANCH  12  13
ATOM     13  C   UNL     1      11.072  13.771  20.368  0.00  0.00    +0.000 C 
BRANCH  13  15
ATOM     14  C   UNL     1       9.342  13.892  22.173  0.00  0.00    +0.000 C 
ATOM     15  C   UNL     1      10.199  14.696  21.207  0.00  0.00    +0.000 C 
ENDBRANCH  13  15
ENDBRANCH  12  13
ENDBRANCH   6  12
ENDBRANCH   1   9
BRANCH   3  16
ATOM     16  C   UNL     1       6.008   6.002  16.531  0.00  0.00    +0.000 C 
BRANCH  16  17
ATOM     17  N   UNL     1       4.677   5.945  17.150  0.00  0.00    +0.000 NA
ATOM     18  H   UNL     1       4.001   5.974  16.382  0.00  0.00    +0.000 HD
BRANCH  17  19
ATOM     19  C   UNL     1       4.399   4.745  17.967  0.00  0.00    +0.000 C 
ATOM     20  C   UNL     1       4.105   5.058  19.442  0.00  0.00    +0.000 C 
ATOM     21  C   UNL     1       2.731   5.672  19.689  0.00  0.00    +0.000 C 
ATOM     22  C   UNL     1       1.682   4.608  20.006  0.00  0.00    +0.000 C 
ATOM     23  C   UNL     1       1.313   3.680  18.851  0.00  0.00    +0.000 C 
ATOM     24  C   UNL     1       2.480   3.001  18.131  0.00  0.00    +0.000 C 
ATOM     25  C   UNL     1       3.273   3.969  17.252  0.00  0.00    +0.000 C 
ENDBRANCH  17  19
ENDBRANCH  16  17
ENDBRANCH   3  16
TORSDOF 7
ENDMDL
MODEL 9
REMARK VINA RESULT:      -7.1      5.543      6.611
REMARK  Name = 
REMARK  8 active torsions:
REMARK  status: ('A' for Active; 'I' for Inactive)
REMARK    1  A    between atoms: C_1  and  C_2
REMARK    2  A    between atoms: C_2  and  C_3
REMARK    3  A    between atoms: C_3  and  C_4
REMARK    4  A    between atoms: C_4  and  C_5
REMARK    5  A    between atoms: C_8  and  C_9
REMARK    6  A    between atoms: C_11  and  C_12
REMARK    7  A    between atoms: C_12  and  N_13
REMARK    8  A    between atoms: N_13  and  C_14
REMARK                            x       y       z     vdW  Elec       q    Type
REMARK                         _______ _______ _______ _____ _____    ______ ____
ROOT
ATOM      1  C   UNL     1       8.078   8.433  18.022  0.00  0.00    +0.000 A 
ATOM      2  N   UNL     1       7.235   8.080  17.070  0.00  0.00    +0.000 NA
ATOM      3  C   UNL     1       7.007   6.739  17.304  0.00  0.00    +0.000 A 
ATOM      4  C   UNL     1       7.743   6.336  18.394  0.00  0.00    +0.000 A 
ATOM      5  O   UNL     1       8.434   7.408  18.861  0.00  0.00    +0.000 OA
ENDROOT
BRANCH   1   9
ATOM      6  C   UNL     1       9.454  12.355  19.019  0.00  0.00    +0.000 A 
ATOM      7  C   UNL     1       8.742  12.125  17.833  0.00  0.00    +0.000 A 
ATOM      8  C   UNL     1       8.325  10.835  17.498  0.00  0.00    +0.000 A 
ATOM      9  C   UNL     1       8.623   9.750  18.332  0.00  0.00    +0.000 A 
ATOM     10  C   UNL     1       9.398   9.976  19.477  0.00  0.00    +0.000 A 
ATOM     11  C   UNL     1       9.807  11.266  19.821  0.00  0.00    +0.000 A 
BRANCH   6  12
ATOM     12  C   UNL     1       9.757  13.766  19.464  0.00  0.00    +0.000 C 
BRANCH  12  13
ATOM     13  C   UNL     1       8.501  14.637  19.352  0.00  0.00    +0.000 C 
BRANCH  13  15
ATOM     14  C   UNL     1      10.067  16.016  17.969  0.00  0.00    +0.000 C 
ATOM     15  C   UNL     1       8.609  15.679  18.246  0.00  0.00    +0.000 C 
ENDBRANCH  13  15
ENDBRANCH  12  13
ENDBRANCH   6  12
ENDBRANCH   1   9
BRANCH   3  16
ATOM     16  C   UNL     1       6.124   5.932  16.424  0.00  0.00    +0.000 C 
BRANCH  16  17
ATOM     17  N   UNL     1       4.740   5.953  16.915  0.00  0.00    +0.000 NA
ATOM     18  H   UNL     1       4.146   5.723  16.113  0.00  0.00    +0.000 HD
BRANCH  17  19
ATOM     19  C   UNL     1       4.431   5.005  18.006  0.00  0.00    +0.000 C 
ATOM     20  C   UNL     1       3.105   5.301  18.723  0.00  0.00    +0.000 C 
ATOM     21  C   UNL     1       1.862   4.938  17.915  0.00  0.00    +0.000 C 
ATOM     22  C   UNL     1       1.379   3.523  18.225  0.00  0.00    +0.000 C 
ATOM     23  C   UNL     1       2.294   2.395  17.754  0.00  0.00    +0.000 C 
ATOM     24  C   UNL     1       3.764   2.499  18.171  0.00  0.00    +0.000 C 
ATOM     25  C   UNL     1       4.517   3.587  17.404  0.00  0.00    +0.000 C 
ENDBRANCH  17  19
ENDBRANCH  16  17
ENDBRANCH   3  16
TORSDOF 7
ENDMDL
