MODEL 1
REMARK VINA RESULT:      -7.0      0.000      0.000
REMARK  Name = 
REMARK  5 active torsions:
REMARK  status: ('A' for Active; 'I' for Inactive)
REMARK    1  A    between atoms: C_1  and  N_2
REMARK    2  A    between atoms: N_2  and  C_3
REMARK    3  A    between atoms: N_2  and  C_4
REMARK    4  A    between atoms: C_4  and  C_5
REMARK    5  A    between atoms: C_5  and  C_6
REMARK                            x       y       z     vdW  Elec       q    Type
REMARK                         _______ _______ _______ _____ _____    ______ ____
ROOT
ATOM      1  C   UNL     1       2.521   4.323  19.045  0.00  0.00    +0.000 C 
ATOM      2  C   UNL     1       3.941   4.201  19.702  0.00  0.00    +0.000 C 
ATOM      3  O   UNL     1       4.972   5.047  19.228  0.00  0.00    +0.000 OA
ATOM      4  C   UNL     1       5.501   4.806  17.992  0.00  0.00    +0.000 A 
ATOM      5  C   UNL     1       6.679   5.520  17.744  0.00  0.00    +0.000 A 
ATOM      6  C   UNL     1       7.283   5.483  16.487  0.00  0.00    +0.000 A 
ATOM      7  C   UNL     1       6.716   4.719  15.473  0.00  0.00    +0.000 A 
ATOM      8  C   UNL     1       5.549   3.980  15.723  0.00  0.00    +0.000 A 
ATOM      9  C   UNL     1       4.937   4.036  16.975  0.00  0.00    +0.000 A 
ATOM     10  O   UNL     1       3.763   3.338  17.105  0.00  0.00    +0.000 OA
ATOM     11  C   UNL     1       2.702   4.224  17.497  0.00  0.00    +0.000 C 
ENDROOT
BRANCH   1  13
ATOM     12  C   UNL     1       1.250   3.291  20.983  0.00  0.00    +0.000 C 
ATOM     13  N   UNL     1       1.764   3.121  19.618  0.00  0.00    +0.000 NA
ATOM     14  C   UNL     1       0.719   2.522  18.789  0.00  0.00    +0.000 C 
ENDBRANCH   1  13
BRANCH   1  15
ATOM     15  C   UNL     1       1.772   5.677  19.422  0.00  0.00    +0.000 C 
BRANCH  15  16
ATOM     16  C   UNL     1       2.516   7.026  19.714  0.00  0.00    +0.000 C 
ATOM     17  C   UNL     1       2.894   7.747  18.394  0.00  0.00    +0.000 C 
ATOM     18  C   UNL     1       1.741   8.506  17.729  0.00  0.00    +0.000 C 
ATOM     19  C   UNL     1       0.985   9.420  18.689  0.00  0.00    +0.000 C 
ATOM     20  C   UNL     1       0.597   8.693  19.970  0.00  0.00    +0.000 C 
ATOM     21  C   UNL     1       1.827   8.062  20.608  0.00  0.00    +0.000 C 
ENDBRANCH  15  16
ENDBRANCH   1  15
TORSDOF 3
ENDMDL
MODEL 2
REMARK VINA RESULT:      -6.6      1.790      5.291
REMARK  Name = 
REMARK  5 active torsions:
REMARK  status: ('A' for Active; 'I' for Inactive)
REMARK    1  A    between atoms: C_1  and  N_2
REMARK    2  A    between atoms: N_2  and  C_3
REMARK    3  A    between atoms: N_2  and  C_4
REMARK    4  A    between atoms: C_4  and  C_5
REMARK    5  A    between atoms: C_5  and  C_6
REMARK                            x       y       z     vdW  Elec       q    Type
REMARK                         _______ _______ _______ _____ _____    ______ ____
ROOT
ATOM      1  C   UNL     1       4.928   4.869  17.935  0.00  0.00    +0.000 C 
ATOM      2  C   UNL     1       4.904   5.565  19.342  0.00  0.00    +0.000 C 
ATOM      3  O   UNL     1       3.659   6.015  19.844  0.00  0.00    +0.000 OA
ATOM      4  C   UNL     1       3.079   7.111  19.271  0.00  0.00    +0.000 A 
ATOM      5  C   UNL     1       2.006   7.622  20.011  0.00  0.00    +0.000 A 
ATOM      6  C   UNL     1       1.227   8.664  19.508  0.00  0.00    +0.000 A 
ATOM      7  C   UNL     1       1.526   9.210  18.264  0.00  0.00    +0.000 A 
ATOM      8  C   UNL     1       2.616   8.719  17.529  0.00  0.00    +0.000 A 
ATOM      9  C   UNL     1       3.380   7.663  18.026  0.00  0.00    +0.000 A 
ATOM     10  O   UNL     1       4.380   7.203  17.207  0.00  0.00    +0.000 OA
ATOM     11  C   UNL     1       4.189   5.807  16.928  0.00  0.00    +0.000 C 
ENDROOT
BRANCH   1  13
ATOM     12  C   UNL     1       6.774   4.743  16.200  0.00  0.00    +0.000 C 
ATOM     13  N   UNL     1       6.424   4.754  17.626  0.00  0.00    +0.000 NA
ATOM     14  C   UNL     1       7.331   5.658  18.330  0.00  0.00    +0.000 C 
ENDBRANCH   1  13
BRANCH   1  15
ATOM     15  C   UNL     1       4.251   3.428  17.938  0.00  0.00    +0.000 C 
BRANCH  15  16
ATOM     16  C   UNL     1       2.814   3.145  17.378  0.00  0.00    +0.000 C 
ATOM     17  C   UNL     1       2.316   1.743  17.813  0.00  0.00    +0.000 C 
ATOM     18  C   UNL     1       1.790   1.670  19.251  0.00  0.00    +0.000 C 
ATOM     19  C   UNL     1       0.783   2.768  19.583  0.00  0.00    +0.000 C 
ATOM     20  C   UNL     1       1.295   4.144  19.175  0.00  0.00    +0.000 C 
ATOM     21  C   UNL     1       1.694   4.139  17.705  0.00  0.00    +0.000 C 
ENDBRANCH  15  16
ENDBRANCH   1  15
TORSDOF 3
ENDMDL
MODEL 3
REMARK VINA RESULT:      -6.6      1.510      5.158
REMARK  Name = 
REMARK  5 active torsions:
REMARK  status: ('A' for Active; 'I' for Inactive)
REMARK    1  A    between atoms: C_1  and  N_2
REMARK    2  A    between atoms: N_2  and  C_3
REMARK    3  A    between atoms: N_2  and  C_4
REMARK    4  A    between atoms: C_4  and  C_5
REMARK    5  A    between atoms: C_5  and  C_6
REMARK                            x       y       z     vdW  Elec       q    Type
REMARK                         _______ _______ _______ _____ _____    ______ ____
ROOT
ATOM      1  C   UNL     1       3.235   4.064  18.972  0.00  0.00    +0.000 C 
ATOM      2  C   UNL     1       2.210   4.685  17.958  0.00  0.00    +0.000 C 
ATOM      3  O   UNL     1       2.304   6.069  17.676  0.00  0.00    +0.000 OA
ATOM      4  C   UNL     1       1.923   6.961  18.637  0.00  0.00    +0.000 A 
ATOM      5  C   UNL     1       1.801   8.272  18.161  0.00  0.00    +0.000 A 
ATOM      6  C   UNL     1       1.538   9.326  19.036  0.00  0.00    +0.000 A 
ATOM      7  C   UNL     1       1.384   9.071  20.395  0.00  0.00    +0.000 A 
ATOM      8  C   UNL     1       1.480   7.756  20.875  0.00  0.00    +0.000 A 
ATOM      9  C   UNL     1       1.763   6.707  20.000  0.00  0.00    +0.000 A 
ATOM     10  O   UNL     1       1.909   5.467  20.569  0.00  0.00    +0.000 OA
ATOM     11  C   UNL     1       3.209   4.934  20.268  0.00  0.00    +0.000 C 
ENDROOT
BRANCH   1  13
ATOM     12  C   UNL     1       1.242   2.494  18.972  0.00  0.00    +0.000 C 
ATOM     13  N   UNL     1       2.683   2.655  19.210  0.00  0.00    +0.000 NA
ATOM     14  C   UNL     1       3.392   1.537  18.590  0.00  0.00    +0.000 C 
ENDBRANCH   1  13
BRANCH   1  15
ATOM     15  C   UNL     1       4.716   3.986  18.395  0.00  0.00    +0.000 C 
BRANCH  15  16
ATOM     16  C   UNL     1       5.671   5.226  18.290  0.00  0.00    +0.000 C 
ATOM     17  C   UNL     1       7.125   4.782  17.988  0.00  0.00    +0.000 C 
ATOM     18  C   UNL     1       7.393   4.429  16.520  0.00  0.00    +0.000 C 
ATOM     19  C   UNL     1       6.900   5.493  15.543  0.00  0.00    +0.000 C 
ATOM     20  C   UNL     1       5.462   5.902  15.835  0.00  0.00    +0.000 C 
ATOM     21  C   UNL     1       5.324   6.332  17.288  0.00  0.00    +0.000 C 
ENDBRANCH  15  16
ENDBRANCH   1  15
TORSDOF 3
ENDMDL
MODEL 4
REMARK VINA RESULT:      -6.6      2.434      6.267
REMARK  Name = 
REMARK  5 active torsions:
REMARK  status: ('A' for Active; 'I' for Inactive)
REMARK    1  A    between atoms: C_1  and  N_2
REMARK    2  A    between atoms: N_2  and  C_3
REMARK    3  A    between atoms: N_2  and  C_4
REMARK    4  A    between atoms: C_4  and  C_5
REMARK    5  A    between atoms: C_5  and  C_6
REMARK                            x       y       z     vdW  Elec       q    Type
REMARK                         _______ _______ _______ _____ _____    ______ ____
ROOT
ATOM      1  C   UNL     1       5.476   5.683  17.845  0.00  0.00    +0.000 C 
ATOM      2  C   UNL     1       5.669   4.396  18.722  0.00  0.00    +0.000 C 
ATOM      3  O   UNL     1       4.655   3.408  18.694  0.00  0.00    +0.000 OA
ATOM      4  C   UNL     1       3.466   3.673  19.310  0.00  0.00    +0.000 A 
ATOM      5  C   UNL     1       2.652   2.544  19.454  0.00  0.00    +0.000 A 
ATOM      6  C   UNL     1       1.354   2.660  19.952  0.00  0.00    +0.000 A 
ATOM      7  C   UNL     1       0.867   3.909  20.322  0.00  0.00    +0.000 A 
ATOM      8  C   UNL     1       1.688   5.042  20.204  0.00  0.00    +0.000 A 
ATOM      9  C   UNL     1       2.977   4.925  19.687  0.00  0.00    +0.000 A 
ATOM     10  O   UNL     1       3.679   6.094  19.542  0.00  0.00    +0.000 OA
ATOM     11  C   UNL     1       4.067   6.273  18.170  0.00  0.00    +0.000 C 
ENDROOT
BRANCH   1  13
ATOM     12  C   UNL     1       7.707   5.933  19.026  0.00  0.00    +0.000 C 
ATOM     13  N   UNL     1       6.610   6.600  18.313  0.00  0.00    +0.000 NA
ATOM     14  C   UNL     1       7.176   7.528  17.335  0.00  0.00    +0.000 C 
ENDBRANCH   1  13
BRANCH   1  15
ATOM     15  C   UNL     1       5.603   5.400  16.283  0.00  0.00    +0.000 C 
BRANCH  15  16
ATOM     16  C   UNL     1       6.529   4.289  15.677  0.00  0.00    +0.000 C 
ATOM     17  C   UNL     1       5.709   3.288  14.823  0.00  0.00    +0.000 C 
ATOM     18  C   UNL     1       5.357   3.789  13.417  0.00  0.00    +0.000 C 
ATOM     19  C   UNL     1       6.557   4.347  12.657  0.00  0.00    +0.000 C 
ATOM     20  C   UNL     1       7.340   5.348  13.498  0.00  0.00    +0.000 C 
ATOM     21  C   UNL     1       7.730   4.721  14.830  0.00  0.00    +0.000 C 
ENDBRANCH  15  16
ENDBRANCH   1  15
TORSDOF 3
ENDMDL
MODEL 5
REMARK VINA RESULT:      -6.5      4.228      7.047
REMARK  Name = 
REMARK  5 active torsions:
REMARK  status: ('A' for Active; 'I' for Inactive)
REMARK    1  A    between atoms: C_1  and  N_2
REMARK    2  A    between atoms: N_2  and  C_3
REMARK    3  A    between atoms: N_2  and  C_4
REMARK    4  A    between atoms: C_4  and  C_5
REMARK    5  A    between atoms: C_5  and  C_6
REMARK                            x       y       z     vdW  Elec       q    Type
REMARK                         _______ _______ _______ _____ _____    ______ ____
ROOT
ATOM      1  C   UNL     1      -0.096  11.256  19.400  0.00  0.00    +0.000 C 
ATOM      2  C   UNL     1       1.316  11.197  18.716  0.00  0.00    +0.000 C 
ATOM      3  O   UNL     1       1.648  10.043  17.966  0.00  0.00    +0.000 OA
ATOM      4  C   UNL     1       1.902   8.879  18.634  0.00  0.00    +0.000 A 
ATOM      5  C   UNL     1       2.477   7.891  17.826  0.00  0.00    +0.000 A 
ATOM      6  C   UNL     1       2.689   6.603  18.319  0.00  0.00    +0.000 A 
ATOM      7  C   UNL     1       2.336   6.301  19.630  0.00  0.00    +0.000 A 
ATOM      8  C   UNL     1       1.783   7.294  20.452  0.00  0.00    +0.000 A 
ATOM      9  C   UNL     1       1.554   8.575  19.950  0.00  0.00    +0.000 A 
ATOM     10  O   UNL     1       0.944   9.459  20.803  0.00  0.00    +0.000 OA
ATOM     11  C   UNL     1      -0.279   9.942  20.225  0.00  0.00    +0.000 C 
ENDROOT
BRANCH   1  13
ATOM     12  C   UNL     1      -0.831  12.462  21.507  0.00  0.00    +0.000 C 
ATOM     13  N   UNL     1       0.001  12.493  20.297  0.00  0.00    +0.000 NA
ATOM     14  C   UNL     1       1.336  12.968  20.654  0.00  0.00    +0.000 C 
ENDBRANCH   1  13
BRANCH   1  15
ATOM     15  C   UNL     1      -1.289  11.419  18.360  0.00  0.00    +0.000 C 
BRANCH  15  16
ATOM     16  C   UNL     1      -2.301  10.271  18.015  0.00  0.00    +0.000 C 
ATOM     17  C   UNL     1      -3.764  10.746  18.204  0.00  0.00    +0.000 C 
ATOM     18  C   UNL     1      -4.312  11.599  17.054  0.00  0.00    +0.000 C 
ATOM     19  C   UNL     1      -4.080  10.980  15.678  0.00  0.00    +0.000 C 
ATOM     20  C   UNL     1      -2.632  10.541  15.496  0.00  0.00    +0.000 C 
ATOM     21  C   UNL     1      -2.218   9.617  16.632  0.00  0.00    +0.000 C 
ENDBRANCH  15  16
ENDBRANCH   1  15
TORSDOF 3
ENDMDL
MODEL 6
REMARK VINA RESULT:      -6.5      2.927      5.097
REMARK  Name = 
REMARK  5 active torsions:
REMARK  status: ('A' for Active; 'I' for Inactive)
REMARK    1  A    between atoms: C_1  and  N_2
REMARK    2  A    between atoms: N_2  and  C_3
REMARK    3  A    between atoms: N_2  and  C_4
REMARK    4  A    between atoms: C_4  and  C_5
REMARK    5  A    between atoms: C_5  and  C_6
REMARK                            x       y       z     vdW  Elec       q    Type
REMARK                         _______ _______ _______ _____ _____    ______ ____
ROOT
ATOM      1  C   UNL     1       6.122   5.001  17.215  0.00  0.00    +0.000 C 
ATOM      2  C   UNL     1       5.051   5.540  16.203  0.00  0.00    +0.000 C 
ATOM      3  O   UNL     1       4.642   4.690  15.146  0.00  0.00    +0.000 OA
ATOM      4  C   UNL     1       5.516   4.450  14.124  0.00  0.00    +0.000 A 
ATOM      5  C   UNL     1       4.920   3.830  13.020  0.00  0.00    +0.000 A 
ATOM      6  C   UNL     1       5.693   3.405  11.939  0.00  0.00    +0.000 A 
ATOM      7  C   UNL     1       7.069   3.610  11.953  0.00  0.00    +0.000 A 
ATOM      8  C   UNL     1       7.668   4.254  13.046  0.00  0.00    +0.000 A 
ATOM      9  C   UNL     1       6.895   4.660  14.134  0.00  0.00    +0.000 A 
ATOM     10  O   UNL     1       7.576   5.216  15.186  0.00  0.00    +0.000 OA
ATOM     11  C   UNL     1       7.333   4.465  16.387  0.00  0.00    +0.000 C 
ENDROOT
BRANCH   1  13
ATOM     12  C   UNL     1       7.727   6.142  18.815  0.00  0.00    +0.000 C 
ATOM     13  N   UNL     1       6.487   6.243  18.035  0.00  0.00    +0.000 NA
ATOM     14  C   UNL     1       6.461   7.535  17.351  0.00  0.00    +0.000 C 
ENDBRANCH   1  13
BRANCH   1  15
ATOM     15  C   UNL     1       5.562   3.856  18.168  0.00  0.00    +0.000 C 
BRANCH  15  16
ATOM     16  C   UNL     1       4.409   4.081  19.207  0.00  0.00    +0.000 C 
ATOM     17  C   UNL     1       3.202   4.798  18.549  0.00  0.00    +0.000 C 
ATOM     18  C   UNL     1       2.296   3.886  17.714  0.00  0.00    +0.000 C 
ATOM     19  C   UNL     1       1.881   2.612  18.445  0.00  0.00    +0.000 C 
ATOM     20  C   UNL     1       3.079   1.904  19.065  0.00  0.00    +0.000 C 
ATOM     21  C   UNL     1       3.853   2.866  19.956  0.00  0.00    +0.000 C 
ENDBRANCH  15  16
ENDBRANCH   1  15
TORSDOF 3
ENDMDL
MODEL 7
REMARK VINA RESULT:      -6.4      2.886      5.093
REMARK  Name = 
REMARK  5 active torsions:
REMARK  status: ('A' for Active; 'I' for Inactive)
REMARK    1  A    between atoms: C_1  and  N_2
REMARK    2  A    between atoms: N_2  and  C_3
REMARK    3  A    between atoms: N_2  and  C_4
REMARK    4  A    between atoms: C_4  and  C_5
REMARK    5  A    between atoms: C_5  and  C_6
REMARK                            x       y       z     vdW  Elec       q    Type
REMARK                         _______ _______ _______ _____ _____    ______ ____
ROOT
ATOM      1  C   UNL     1       6.191   5.167  17.333  0.00  0.00    +0.000 C 
ATOM      2  C   UNL     1       5.188   5.812  16.313  0.00  0.00    +0.000 C 
ATOM      3  O   UNL     1       4.658   4.993  15.287  0.00  0.00    +0.000 OA
ATOM      4  C   UNL     1       5.480   4.609  14.266  0.00  0.00    +0.000 A 
ATOM      5  C   UNL     1       4.795   4.040  13.186  0.00  0.00    +0.000 A 
ATOM      6  C   UNL     1       5.492   3.484  12.113  0.00  0.00    +0.000 A 
ATOM      7  C   UNL     1       6.883   3.507  12.110  0.00  0.00    +0.000 A 
ATOM      8  C   UNL     1       7.575   4.099  13.177  0.00  0.00    +0.000 A 
ATOM      9  C   UNL     1       6.875   4.635  14.257  0.00  0.00    +0.000 A 
ATOM     10  O   UNL     1       7.637   5.128  15.287  0.00  0.00    +0.000 OA
ATOM     11  C   UNL     1       7.311   4.452  16.512  0.00  0.00    +0.000 C 
ENDROOT
BRANCH   1  13
ATOM     12  C   UNL     1       7.822   6.087  19.045  0.00  0.00    +0.000 C 
ATOM     13  N   UNL     1       6.726   6.374  18.110  0.00  0.00    +0.000 NA
ATOM     14  C   UNL     1       7.057   7.576  17.347  0.00  0.00    +0.000 C 
ENDBRANCH   1  13
BRANCH   1  15
ATOM     15  C   UNL     1       5.497   4.135  18.326  0.00  0.00    +0.000 C 
BRANCH  15  16
ATOM     16  C   UNL     1       4.015   3.646  18.168  0.00  0.00    +0.000 C 
ATOM     17  C   UNL     1       3.790   2.309  18.920  0.00  0.00    +0.000 C 
ATOM     18  C   UNL     1       3.601   2.452  20.435  0.00  0.00    +0.000 C 
ATOM     19  C   UNL     1       2.569   3.509  20.818  0.00  0.00    +0.000 C 
ATOM     20  C   UNL     1       2.816   4.826  20.092  0.00  0.00    +0.000 C 
ATOM     21  C   UNL     1       2.885   4.591  18.589  0.00  0.00    +0.000 C 
ENDBRANCH  15  16
ENDBRANCH   1  15
TORSDOF 3
ENDMDL
MODEL 8
REMARK VINA RESULT:      -6.4      1.856      5.729
REMARK  Name = 
REMARK  5 active torsions:
REMARK  status: ('A' for Active; 'I' for Inactive)
REMARK    1  A    between atoms: C_1  and  N_2
REMARK    2  A    between atoms: N_2  and  C_3
REMARK    3  A    between atoms: N_2  and  C_4
REMARK    4  A    between atoms: C_4  and  C_5
REMARK    5  A    between atoms: C_5  and  C_6
REMARK                            x       y       z     vdW  Elec       q    Type
REMARK                         _______ _______ _______ _____ _____    ______ ____
ROOT
ATOM      1  C   UNL     1       3.356   5.305  19.057  0.00  0.00    +0.000 C 
ATOM      2  C   UNL     1       2.492   6.114  18.026  0.00  0.00    +0.000 C 
ATOM      3  O   UNL     1       2.465   7.525  18.138  0.00  0.00    +0.000 OA
ATOM      4  C   UNL     1       1.781   8.086  19.179  0.00  0.00    +0.000 A 
ATOM      5  C   UNL     1       1.592   9.466  19.040  0.00  0.00    +0.000 A 
ATOM      6  C   UNL     1       1.021  10.214  20.069  0.00  0.00    +0.000 A 
ATOM      7  C   UNL     1       0.622   9.580  21.242  0.00  0.00    +0.000 A 
ATOM      8  C   UNL     1       0.785   8.193  21.377  0.00  0.00    +0.000 A 
ATOM      9  C   UNL     1       1.375   7.452  20.354  0.00  0.00    +0.000 A 
ATOM     10  O   UNL     1       1.558   6.115  20.604  0.00  0.00    +0.000 OA
ATOM     11  C   UNL     1       2.950   5.776  20.490  0.00  0.00    +0.000 C 
ENDROOT
BRANCH   1  13
ATOM     12  C   UNL     1       2.161   3.632  17.572  0.00  0.00    +0.000 C 
ATOM     13  N   UNL     1       2.952   3.852  18.790  0.00  0.00    +0.000 NA
ATOM     14  C   UNL     1       3.999   2.835  18.864  0.00  0.00    +0.000 C 
ENDBRANCH   1  13
BRANCH   1  15
ATOM     15  C   UNL     1       4.922   5.492  18.844  0.00  0.00    +0.000 C 
BRANCH  15  16
ATOM     16  C   UNL     1       5.547   6.217  17.601  0.00  0.00    +0.000 C 
ATOM     17  C   UNL     1       7.083   6.019  17.558  0.00  0.00    +0.000 C 
ATOM     18  C   UNL     1       7.536   4.658  17.013  0.00  0.00    +0.000 C 
ATOM     19  C   UNL     1       6.868   4.283  15.693  0.00  0.00    +0.000 C 
ATOM     20  C   UNL     1       5.356   4.458  15.758  0.00  0.00    +0.000 C 
ATOM     21  C   UNL     1       5.011   5.871  16.208  0.00  0.00    +0.000 C 
ENDBRANCH  15  16
ENDBRANCH   1  15
TORSDOF 3
ENDMDL
MODEL 9
REMARK VINA RESULT:      -6.2      2.466      6.326
REMARK  Name = 
REMARK  5 active torsions:
REMARK  status: ('A' for Active; 'I' for Inactive)
REMARK    1  A    between atoms: C_1  and  N_2
REMARK    2  A    between atoms: N_2  and  C_3
REMARK    3  A    between atoms: N_2  and  C_4
REMARK    4  A    between atoms: C_4  and  C_5
REMARK    5  A    between atoms: C_5  and  C_6
REMARK                            x       y       z     vdW  Elec       q    Type
REMARK                         _______ _______ _______ _____ _____    ______ ____
ROOT
ATOM      1  C   UNL     1       5.825   4.989  17.568  0.00  0.00    +0.000 C 
ATOM      2  C   UNL     1       5.904   3.999  18.783  0.00  0.00    +0.000 C 
ATOM      3  O   UNL     1       4.796   3.151  19.028  0.00  0.00    +0.000 OA
ATOM      4  C   UNL     1       3.649   3.701  19.525  0.00  0.00    +0.000 A 
ATOM      5  C   UNL     1       2.729   2.749  19.979  0.00  0.00    +0.000 A 
ATOM      6  C   UNL     1       1.458   3.133  20.405  0.00  0.00    +0.000 A 
ATOM      7  C   UNL     1       1.104   4.479  20.392  0.00  0.00    +0.000 A 
ATOM      8  C   UNL     1       2.031   5.441  19.962  0.00  0.00    +0.000 A 
ATOM      9  C   UNL     1       3.294   5.050  19.518  0.00  0.00    +0.000 A 
ATOM     10  O   UNL     1       4.107   6.052  19.050  0.00  0.00    +0.000 OA
ATOM     11  C   UNL     1       4.488   5.787  17.690  0.00  0.00    +0.000 C 
ENDROOT
BRANCH   1  13
ATOM     12  C   UNL     1       6.856   7.305  17.446  0.00  0.00    +0.000 C 
ATOM     13  N   UNL     1       7.053   5.885  17.766  0.00  0.00    +0.000 NA
ATOM     14  C   UNL     1       7.767   5.781  19.037  0.00  0.00    +0.000 C 
ENDBRANCH   1  13
BRANCH   1  15
ATOM     15  C   UNL     1       5.898   4.256  16.157  0.00  0.00    +0.000 C 
BRANCH  15  16
ATOM     16  C   UNL     1       5.434   4.918  14.813  0.00  0.00    +0.000 C 
ATOM     17  C   UNL     1       6.541   5.837  14.236  0.00  0.00    +0.000 C 
ATOM     18  C   UNL     1       7.667   5.097  13.505  0.00  0.00    +0.000 C 
ATOM     19  C   UNL     1       7.160   4.089  12.476  0.00  0.00    +0.000 C 
ATOM     20  C   UNL     1       6.091   3.176  13.063  0.00  0.00    +0.000 C 
ATOM     21  C   UNL     1       4.970   4.006  13.672  0.00  0.00    +0.000 C 
ENDBRANCH  15  16
ENDBRANCH   1  15
TORSDOF 3
ENDMDL
