MODEL 1
REMARK VINA RESULT:      -6.8      0.000      0.000
REMARK  Name = 
REMARK  10 active torsions:
REMARK  status: ('A' for Active; 'I' for Inactive)
REMARK    1  A    between atoms: C_1  and  S_2
REMARK    2  A    between atoms: S_2  and  C_5
REMARK    3  A    between atoms: C_7  and  N_8
REMARK    4  A    between atoms: C_11  and  N_12
REMARK    5  A    between atoms: C_16  and  C_17
REMARK    6  A    between atoms: N_19  and  C_20
REMARK    7  A    between atoms: C_20  and  C_21
REMARK    8  A    between atoms: C_21  and  O_22
REMARK    9  A    between atoms: C_21  and  C_23
REMARK   10  A    between atoms: C_23  and  O_24
REMARK                            x       y       z     vdW  Elec       q    Type
REMARK                         _______ _______ _______ _____ _____    ______ ____
ROOT
ATOM      1  C   UNL     1       2.300   5.246  20.045  0.00  0.00    +0.000 A 
ATOM      2  C   UNL     1       1.636   6.079  20.964  0.00  0.00    +0.000 A 
ATOM      3  C   UNL     1       1.418   7.433  20.656  0.00  0.00    +0.000 A 
ATOM      4  C   UNL     1       1.877   8.008  19.463  0.00  0.00    +0.000 A 
ATOM      5  C   UNL     1       2.478   7.132  18.542  0.00  0.00    +0.000 A 
ATOM      6  C   UNL     1       2.713   5.766  18.813  0.00  0.00    +0.000 A 
ENDROOT
BRANCH   1   8
ATOM      7  C   UNL     1       1.332   2.599  19.739  0.00  0.00    +0.000 C 
ATOM      8  S   UNL     1       2.588   3.563  20.536  0.00  0.00    +0.000 S 
ATOM      9  O   UNL     1       2.335   3.492  21.963  0.00  0.00    +0.000 OA
ATOM     10  O   UNL     1       3.905   3.221  20.028  0.00  0.00    +0.000 OA
ENDBRANCH   1   8
BRANCH   6  11
ATOM     11  C   UNL     1       3.302   5.025  17.664  0.00  0.00    +0.000 C 
ATOM     12  O   UNL     1       2.633   4.143  17.135  0.00  0.00    +0.000 OA
ATOM     13  N   UNL     1       4.554   5.364  17.223  0.00  0.00    +0.000 N 
ATOM     14  H   UNL     1       5.057   6.161  17.617  0.00  0.00    +0.000 HD
BRANCH  13  15
ATOM     15  C   UNL     1       5.182   4.652  16.120  0.00  0.00    +0.000 C 
BRANCH  15  16
ATOM     16  C   UNL     1       6.699   4.518  16.295  0.00  0.00    +0.000 C 
BRANCH  16  17
ATOM     17  O   UNL     1       7.377   5.387  15.374  0.00  0.00    +0.000 OA
ATOM     18  H   UNL     1       7.307   6.297  15.716  0.00  0.00    +0.000 HD
ENDBRANCH  16  17
BRANCH  16  19
ATOM     19  C   UNL     1       7.101   4.860  17.737  0.00  0.00    +0.000 C 
BRANCH  19  20
ATOM     20  O   UNL     1       6.507   3.954  18.662  0.00  0.00    +0.000 OA
ATOM     21  H   UNL     1       6.965   3.099  18.583  0.00  0.00    +0.000 HD
ENDBRANCH  19  20
ENDBRANCH  16  19
ENDBRANCH  15  16
ENDBRANCH  13  15
ENDBRANCH   6  11
BRANCH   3  22
ATOM     22  N   UNL     1       0.641   8.212  21.607  0.00  0.00    +0.000 N 
ATOM     23  O   UNL     1      -0.583   8.017  21.608  0.00  0.00    +0.000 OA
ATOM     24  O   UNL     1       1.253   8.950  22.388  0.00  0.00    +0.000 OA
ENDBRANCH   3  22
BRANCH   4  25
ATOM     25  N   UNL     1       1.670   9.372  19.147  0.00  0.00    +0.000 N 
ATOM     26  C   UNL     1       0.562   9.792  18.289  0.00  0.00    +0.000 C 
ATOM     27  C   UNL     1       1.974   9.822  17.786  0.00  0.00    +0.000 C 
ENDBRANCH   4  25
TORSDOF 9
ENDMDL
MODEL 2
REMARK VINA RESULT:      -6.7      4.237      7.525
REMARK  Name = 
REMARK  10 active torsions:
REMARK  status: ('A' for Active; 'I' for Inactive)
REMARK    1  A    between atoms: C_1  and  S_2
REMARK    2  A    between atoms: S_2  and  C_5
REMARK    3  A    between atoms: C_7  and  N_8
REMARK    4  A    between atoms: C_11  and  N_12
REMARK    5  A    between atoms: C_16  and  C_17
REMARK    6  A    between atoms: N_19  and  C_20
REMARK    7  A    between atoms: C_20  and  C_21
REMARK    8  A    between atoms: C_21  and  O_22
REMARK    9  A    between atoms: C_21  and  C_23
REMARK   10  A    between atoms: C_23  and  O_24
REMARK                            x       y       z     vdW  Elec       q    Type
REMARK                         _______ _______ _______ _____ _____    ______ ____
ROOT
ATOM      1  C   UNL     1       6.537   4.726  16.277  0.00  0.00    +0.000 A 
ATOM      2  C   UNL     1       7.408   5.167  15.265  0.00  0.00    +0.000 A 
ATOM      3  C   UNL     1       7.149   4.841  13.923  0.00  0.00    +0.000 A 
ATOM      4  C   UNL     1       6.055   4.049  13.547  0.00  0.00    +0.000 A 
ATOM      5  C   UNL     1       5.170   3.682  14.577  0.00  0.00    +0.000 A 
ATOM      6  C   UNL     1       5.396   3.992  15.938  0.00  0.00    +0.000 A 
ENDROOT
BRANCH   1   8
ATOM      7  C   UNL     1       7.523   6.814  17.924  0.00  0.00    +0.000 C 
ATOM      8  S   UNL     1       6.970   5.130  17.953  0.00  0.00    +0.000 S 
ATOM      9  O   UNL     1       8.118   4.314  18.299  0.00  0.00    +0.000 OA
ATOM     10  O   UNL     1       5.745   5.000  18.722  0.00  0.00    +0.000 OA
ENDBRANCH   1   8
BRANCH   6  11
ATOM     11  C   UNL     1       4.292   3.557  16.836  0.00  0.00    +0.000 C 
ATOM     12  O   UNL     1       3.285   4.256  16.902  0.00  0.00    +0.000 OA
ATOM     13  N   UNL     1       4.424   2.388  17.538  0.00  0.00    +0.000 N 
ATOM     14  H   UNL     1       5.228   1.775  17.400  0.00  0.00    +0.000 HD
BRANCH  13  15
ATOM     15  C   UNL     1       3.383   1.934  18.449  0.00  0.00    +0.000 C 
BRANCH  15  16
ATOM     16  C   UNL     1       3.773   2.108  19.921  0.00  0.00    +0.000 C 
BRANCH  16  17
ATOM     17  O   UNL     1       5.179   2.385  20.024  0.00  0.00    +0.000 OA
ATOM     18  H   UNL     1       5.281   3.254  20.453  0.00  0.00    +0.000 HD
ENDBRANCH  16  17
BRANCH  16  19
ATOM     19  C   UNL     1       2.962   3.246  20.556  0.00  0.00    +0.000 C 
BRANCH  19  20
ATOM     20  O   UNL     1       3.157   4.468  19.852  0.00  0.00    +0.000 OA
ATOM     21  H   UNL     1       4.112   4.581  19.700  0.00  0.00    +0.000 HD
ENDBRANCH  19  20
ENDBRANCH  16  19
ENDBRANCH  15  16
ENDBRANCH  13  15
ENDBRANCH   6  11
BRANCH   3  22
ATOM     22  N   UNL     1       8.034   5.410  12.919  0.00  0.00    +0.000 N 
ATOM     23  O   UNL     1       9.029   6.015  13.342  0.00  0.00    +0.000 OA
ATOM     24  O   UNL     1       7.778   5.190  11.729  0.00  0.00    +0.000 OA
ENDBRANCH   3  22
BRANCH   4  25
ATOM     25  N   UNL     1       5.788   3.708  12.199  0.00  0.00    +0.000 N 
ATOM     26  C   UNL     1       4.477   3.203  11.791  0.00  0.00    +0.000 C 
ATOM     27  C   UNL     1       5.665   2.290  11.855  0.00  0.00    +0.000 C 
ENDBRANCH   4  25
TORSDOF 9
ENDMDL
MODEL 3
REMARK VINA RESULT:      -6.5      2.233      6.254
REMARK  Name = 
REMARK  10 active torsions:
REMARK  status: ('A' for Active; 'I' for Inactive)
REMARK    1  A    between atoms: C_1  and  S_2
REMARK    2  A    between atoms: S_2  and  C_5
REMARK    3  A    between atoms: C_7  and  N_8
REMARK    4  A    between atoms: C_11  and  N_12
REMARK    5  A    between atoms: C_16  and  C_17
REMARK    6  A    between atoms: N_19  and  C_20
REMARK    7  A    between atoms: C_20  and  C_21
REMARK    8  A    between atoms: C_21  and  O_22
REMARK    9  A    between atoms: C_21  and  C_23
REMARK   10  A    between atoms: C_23  and  O_24
REMARK                            x       y       z     vdW  Elec       q    Type
REMARK                         _______ _______ _______ _____ _____    ______ ____
ROOT
ATOM      1  C   UNL     1       3.946   4.701  17.979  0.00  0.00    +0.000 A 
ATOM      2  C   UNL     1       5.173   4.186  17.524  0.00  0.00    +0.000 A 
ATOM      3  C   UNL     1       6.242   5.057  17.249  0.00  0.00    +0.000 A 
ATOM      4  C   UNL     1       6.121   6.447  17.377  0.00  0.00    +0.000 A 
ATOM      5  C   UNL     1       4.902   6.920  17.896  0.00  0.00    +0.000 A 
ATOM      6  C   UNL     1       3.805   6.077  18.186  0.00  0.00    +0.000 A 
ENDROOT
BRANCH   1   8
ATOM      7  C   UNL     1       3.309   1.939  17.900  0.00  0.00    +0.000 C 
ATOM      8  S   UNL     1       2.628   3.538  18.246  0.00  0.00    +0.000 S 
ATOM      9  O   UNL     1       1.625   3.800  17.232  0.00  0.00    +0.000 OA
ATOM     10  O   UNL     1       2.272   3.657  19.649  0.00  0.00    +0.000 OA
ENDBRANCH   1   8
BRANCH   6  11
ATOM     11  C   UNL     1       2.648   6.795  18.786  0.00  0.00    +0.000 C 
ATOM     12  O   UNL     1       1.967   7.512  18.059  0.00  0.00    +0.000 OA
ATOM     13  N   UNL     1       2.368   6.617  20.115  0.00  0.00    +0.000 N 
ATOM     14  H   UNL     1       2.890   5.945  20.681  0.00  0.00    +0.000 HD
BRANCH  13  15
ATOM     15  C   UNL     1       1.263   7.317  20.753  0.00  0.00    +0.000 C 
BRANCH  15  16
ATOM     16  C   UNL     1       1.542   8.813  20.934  0.00  0.00    +0.000 C 
BRANCH  16  17
ATOM     17  O   UNL     1       0.773   9.572  19.988  0.00  0.00    +0.000 OA
ATOM     18  H   UNL     1       1.326   9.710  19.197  0.00  0.00    +0.000 HD
ENDBRANCH  16  17
BRANCH  16  19
ATOM     19  C   UNL     1       1.198   9.249  22.365  0.00  0.00    +0.000 C 
BRANCH  19  20
ATOM     20  O   UNL     1       2.375   9.383  23.157  0.00  0.00    +0.000 OA
ATOM     21  H   UNL     1       3.139   9.140  22.605  0.00  0.00    +0.000 HD
ENDBRANCH  19  20
ENDBRANCH  16  19
ENDBRANCH  15  16
ENDBRANCH  13  15
ENDBRANCH   6  11
BRANCH   3  22
ATOM     22  N   UNL     1       7.510   4.452  16.876  0.00  0.00    +0.000 N 
ATOM     23  O   UNL     1       7.762   4.400  15.664  0.00  0.00    +0.000 OA
ATOM     24  O   UNL     1       8.274   4.103  17.785  0.00  0.00    +0.000 OA
ENDBRANCH   3  22
BRANCH   4  25
ATOM     25  N   UNL     1       7.187   7.334  17.095  0.00  0.00    +0.000 N 
ATOM     26  C   UNL     1       8.133   7.738  18.136  0.00  0.00    +0.000 C 
ATOM     27  C   UNL     1       7.108   8.701  17.615  0.00  0.00    +0.000 C 
ENDBRANCH   4  25
TORSDOF 9
ENDMDL
MODEL 4
REMARK VINA RESULT:      -6.5      4.008      5.782
REMARK  Name = 
REMARK  10 active torsions:
REMARK  status: ('A' for Active; 'I' for Inactive)
REMARK    1  A    between atoms: C_1  and  S_2
REMARK    2  A    between atoms: S_2  and  C_5
REMARK    3  A    between atoms: C_7  and  N_8
REMARK    4  A    between atoms: C_11  and  N_12
REMARK    5  A    between atoms: C_16  and  C_17
REMARK    6  A    between atoms: N_19  and  C_20
REMARK    7  A    between atoms: C_20  and  C_21
REMARK    8  A    between atoms: C_21  and  O_22
REMARK    9  A    between atoms: C_21  and  C_23
REMARK   10  A    between atoms: C_23  and  O_24
REMARK                            x       y       z     vdW  Elec       q    Type
REMARK                         _______ _______ _______ _____ _____    ______ ____
ROOT
ATOM      1  C   UNL     1       5.434   4.556  17.214  0.00  0.00    +0.000 A 
ATOM      2  C   UNL     1       4.218   3.924  16.895  0.00  0.00    +0.000 A 
ATOM      3  C   UNL     1       3.303   3.605  17.912  0.00  0.00    +0.000 A 
ATOM      4  C   UNL     1       3.572   3.863  19.263  0.00  0.00    +0.000 A 
ATOM      5  C   UNL     1       4.766   4.554  19.538  0.00  0.00    +0.000 A 
ATOM      6  C   UNL     1       5.710   4.893  18.543  0.00  0.00    +0.000 A 
ENDROOT
BRANCH   1   8
ATOM      7  C   UNL     1       6.056   3.808  14.551  0.00  0.00    +0.000 C 
ATOM      8  S   UNL     1       6.561   4.870  15.877  0.00  0.00    +0.000 S 
ATOM      9  O   UNL     1       7.867   4.413  16.311  0.00  0.00    +0.000 OA
ATOM     10  O   UNL     1       6.376   6.266  15.521  0.00  0.00    +0.000 OA
ENDBRANCH   1   8
BRANCH   6  11
ATOM     11  C   UNL     1       6.864   5.678  19.063  0.00  0.00    +0.000 C 
ATOM     12  O   UNL     1       7.373   5.331  20.124  0.00  0.00    +0.000 OA
ATOM     13  N   UNL     1       7.330   6.741  18.335  0.00  0.00    +0.000 N 
ATOM     14  H   UNL     1       6.951   6.957  17.411  0.00  0.00    +0.000 HD
BRANCH  13  15
ATOM     15  C   UNL     1       8.437   7.554  18.814  0.00  0.00    +0.000 C 
BRANCH  15  16
ATOM     16  C   UNL     1       8.544   8.894  18.077  0.00  0.00    +0.000 C 
BRANCH  16  17
ATOM     17  O   UNL     1       7.257   9.272  17.562  0.00  0.00    +0.000 OA
ATOM     18  H   UNL     1       6.622   8.574  17.804  0.00  0.00    +0.000 HD
ENDBRANCH  16  17
BRANCH  16  19
ATOM     19  C   UNL     1       9.074   9.981  19.023  0.00  0.00    +0.000 C 
BRANCH  19  20
ATOM     20  O   UNL     1       9.362  11.182  18.312  0.00  0.00    +0.000 OA
ATOM     21  H   UNL     1       9.061  11.069  17.393  0.00  0.00    +0.000 HD
ENDBRANCH  19  20
ENDBRANCH  16  19
ENDBRANCH  15  16
ENDBRANCH  13  15
ENDBRANCH   6  11
BRANCH   3  22
ATOM     22  N   UNL     1       2.026   3.042  17.503  0.00  0.00    +0.000 N 
ATOM     23  O   UNL     1       1.149   3.851  17.169  0.00  0.00    +0.000 OA
ATOM     24  O   UNL     1       1.928   1.810  17.444  0.00  0.00    +0.000 OA
ENDBRANCH   3  22
BRANCH   4  25
ATOM     25  N   UNL     1       2.661   3.539  20.297  0.00  0.00    +0.000 N 
ATOM     26  C   UNL     1       1.404   4.270  20.457  0.00  0.00    +0.000 C 
ATOM     27  C   UNL     1       2.532   4.466  21.424  0.00  0.00    +0.000 C 
ENDBRANCH   4  25
TORSDOF 9
ENDMDL
MODEL 5
REMARK VINA RESULT:      -6.5      0.825      1.172
REMARK  Name = 
REMARK  10 active torsions:
REMARK  status: ('A' for Active; 'I' for Inactive)
REMARK    1  A    between atoms: C_1  and  S_2
REMARK    2  A    between atoms: S_2  and  C_5
REMARK    3  A    between atoms: C_7  and  N_8
REMARK    4  A    between atoms: C_11  and  N_12
REMARK    5  A    between atoms: C_16  and  C_17
REMARK    6  A    between atoms: N_19  and  C_20
REMARK    7  A    between atoms: C_20  and  C_21
REMARK    8  A    between atoms: C_21  and  O_22
REMARK    9  A    between atoms: C_21  and  C_23
REMARK   10  A    between atoms: C_23  and  O_24
REMARK                            x       y       z     vdW  Elec       q    Type
REMARK                         _______ _______ _______ _____ _____    ______ ____
ROOT
ATOM      1  C   UNL     1       2.283   4.990  19.988  0.00  0.00    +0.000 A 
ATOM      2  C   UNL     1       1.641   5.849  20.898  0.00  0.00    +0.000 A 
ATOM      3  C   UNL     1       1.486   7.212  20.589  0.00  0.00    +0.000 A 
ATOM      4  C   UNL     1       1.985   7.768  19.403  0.00  0.00    +0.000 A 
ATOM      5  C   UNL     1       2.562   6.867  18.489  0.00  0.00    +0.000 A 
ATOM      6  C   UNL     1       2.735   5.492  18.763  0.00  0.00    +0.000 A 
ENDROOT
BRANCH   1   8
ATOM      7  C   UNL     1       4.149   2.855  20.030  0.00  0.00    +0.000 C 
ATOM      8  S   UNL     1       2.492   3.296  20.482  0.00  0.00    +0.000 S 
ATOM      9  O   UNL     1       1.603   2.503  19.655  0.00  0.00    +0.000 OA
ATOM     10  O   UNL     1       2.327   3.280  21.925  0.00  0.00    +0.000 OA
ENDBRANCH   1   8
BRANCH   6  11
ATOM     11  C   UNL     1       3.308   4.727  17.621  0.00  0.00    +0.000 C 
ATOM     12  O   UNL     1       2.611   3.872  17.085  0.00  0.00    +0.000 OA
ATOM     13  N   UNL     1       4.578   5.016  17.195  0.00  0.00    +0.000 N 
ATOM     14  H   UNL     1       5.106   5.794  17.595  0.00  0.00    +0.000 HD
BRANCH  13  15
ATOM     15  C   UNL     1       5.191   4.279  16.100  0.00  0.00    +0.000 C 
BRANCH  15  16
ATOM     16  C   UNL     1       6.722   4.293  16.169  0.00  0.00    +0.000 C 
BRANCH  16  17
ATOM     17  O   UNL     1       7.259   4.915  14.990  0.00  0.00    +0.000 OA
ATOM     18  H   UNL     1       6.811   4.526  14.218  0.00  0.00    +0.000 HD
ENDBRANCH  16  17
BRANCH  16  19
ATOM     19  C   UNL     1       7.193   5.042  17.423  0.00  0.00    +0.000 C 
BRANCH  19  20
ATOM     20  O   UNL     1       7.054   4.231  18.586  0.00  0.00    +0.000 OA
ATOM     21  H   UNL     1       6.368   3.563  18.409  0.00  0.00    +0.000 HD
ENDBRANCH  19  20
ENDBRANCH  16  19
ENDBRANCH  15  16
ENDBRANCH  13  15
ENDBRANCH   6  11
BRANCH   3  22
ATOM     22  N   UNL     1       0.728   8.022  21.529  0.00  0.00    +0.000 N 
ATOM     23  O   UNL     1       1.381   8.803  22.235  0.00  0.00    +0.000 OA
ATOM     24  O   UNL     1      -0.506   7.931  21.509  0.00  0.00    +0.000 OA
ENDBRANCH   3  22
BRANCH   4  25
ATOM     25  N   UNL     1       1.841   9.139  19.085  0.00  0.00    +0.000 N 
ATOM     26  C   UNL     1       0.718   9.616  18.277  0.00  0.00    +0.000 C 
ATOM     27  C   UNL     1       2.105   9.562  17.708  0.00  0.00    +0.000 C 
ENDBRANCH   4  25
TORSDOF 9
ENDMDL
MODEL 6
REMARK VINA RESULT:      -6.4      0.787      1.416
REMARK  Name = 
REMARK  10 active torsions:
REMARK  status: ('A' for Active; 'I' for Inactive)
REMARK    1  A    between atoms: C_1  and  S_2
REMARK    2  A    between atoms: S_2  and  C_5
REMARK    3  A    between atoms: C_7  and  N_8
REMARK    4  A    between atoms: C_11  and  N_12
REMARK    5  A    between atoms: C_16  and  C_17
REMARK    6  A    between atoms: N_19  and  C_20
REMARK    7  A    between atoms: C_20  and  C_21
REMARK    8  A    between atoms: C_21  and  O_22
REMARK    9  A    between atoms: C_21  and  C_23
REMARK   10  A    between atoms: C_23  and  O_24
REMARK                            x       y       z     vdW  Elec       q    Type
REMARK                         _______ _______ _______ _____ _____    ______ ____
ROOT
ATOM      1  C   UNL     1       2.314   5.085  20.124  0.00  0.00    +0.000 A 
ATOM      2  C   UNL     1       1.619   5.942  20.997  0.00  0.00    +0.000 A 
ATOM      3  C   UNL     1       1.435   7.294  20.658  0.00  0.00    +0.000 A 
ATOM      4  C   UNL     1       1.956   7.843  19.479  0.00  0.00    +0.000 A 
ATOM      5  C   UNL     1       2.587   6.944  18.601  0.00  0.00    +0.000 A 
ATOM      6  C   UNL     1       2.791   5.579  18.905  0.00  0.00    +0.000 A 
ENDROOT
BRANCH   1   8
ATOM      7  C   UNL     1       1.327   2.445  19.813  0.00  0.00    +0.000 C 
ATOM      8  S   UNL     1       2.555   3.407  20.655  0.00  0.00    +0.000 S 
ATOM      9  O   UNL     1       2.232   3.363  22.069  0.00  0.00    +0.000 OA
ATOM     10  O   UNL     1       3.890   3.040  20.217  0.00  0.00    +0.000 OA
ENDBRANCH   1   8
BRANCH   6  11
ATOM     11  C   UNL     1       3.421   4.811  17.796  0.00  0.00    +0.000 C 
ATOM     12  O   UNL     1       2.695   4.161  17.051  0.00  0.00    +0.000 OA
ATOM     13  N   UNL     1       4.780   4.872  17.631  0.00  0.00    +0.000 N 
ATOM     14  H   UNL     1       5.356   5.491  18.204  0.00  0.00    +0.000 HD
BRANCH  13  15
ATOM     15  C   UNL     1       5.445   4.120  16.578  0.00  0.00    +0.000 C 
BRANCH  15  16
ATOM     16  C   UNL     1       6.668   4.853  16.015  0.00  0.00    +0.000 C 
BRANCH  16  17
ATOM     17  O   UNL     1       7.858   4.406  16.685  0.00  0.00    +0.000 OA
ATOM     18  H   UNL     1       7.946   3.448  16.527  0.00  0.00    +0.000 HD
ENDBRANCH  16  17
BRANCH  16  19
ATOM     19  C   UNL     1       6.788   4.606  14.504  0.00  0.00    +0.000 C 
BRANCH  19  20
ATOM     20  O   UNL     1       5.554   4.148  13.961  0.00  0.00    +0.000 OA
ATOM     21  H   UNL     1       5.727   3.326  13.469  0.00  0.00    +0.000 HD
ENDBRANCH  19  20
ENDBRANCH  16  19
ENDBRANCH  15  16
ENDBRANCH  13  15
ENDBRANCH   6  11
BRANCH   3  22
ATOM     22  N   UNL     1       0.626   8.098  21.559  0.00  0.00    +0.000 N 
ATOM     23  O   UNL     1       1.234   8.904  22.277  0.00  0.00    +0.000 OA
ATOM     24  O   UNL     1      -0.605   7.978  21.496  0.00  0.00    +0.000 OA
ENDBRANCH   3  22
BRANCH   4  25
ATOM     25  N   UNL     1       1.784   9.204  19.132  0.00  0.00    +0.000 N 
ATOM     26  C   UNL     1       0.673   9.635  18.283  0.00  0.00    +0.000 C 
ATOM     27  C   UNL     1       2.076   9.610  17.755  0.00  0.00    +0.000 C 
ENDBRANCH   4  25
TORSDOF 9
ENDMDL
MODEL 7
REMARK VINA RESULT:      -6.4      2.242      6.437
REMARK  Name = 
REMARK  10 active torsions:
REMARK  status: ('A' for Active; 'I' for Inactive)
REMARK    1  A    between atoms: C_1  and  S_2
REMARK    2  A    between atoms: S_2  and  C_5
REMARK    3  A    between atoms: C_7  and  N_8
REMARK    4  A    between atoms: C_11  and  N_12
REMARK    5  A    between atoms: C_16  and  C_17
REMARK    6  A    between atoms: N_19  and  C_20
REMARK    7  A    between atoms: C_20  and  C_21
REMARK    8  A    between atoms: C_21  and  O_22
REMARK    9  A    between atoms: C_21  and  C_23
REMARK   10  A    between atoms: C_23  and  O_24
REMARK                            x       y       z     vdW  Elec       q    Type
REMARK                         _______ _______ _______ _____ _____    ______ ____
ROOT
ATOM      1  C   UNL     1       3.654   5.213  18.022  0.00  0.00    +0.000 A 
ATOM      2  C   UNL     1       4.856   4.535  17.752  0.00  0.00    +0.000 A 
ATOM      3  C   UNL     1       6.025   5.262  17.469  0.00  0.00    +0.000 A 
ATOM      4  C   UNL     1       6.035   6.662  17.409  0.00  0.00    +0.000 A 
ATOM      5  C   UNL     1       4.831   7.307  17.749  0.00  0.00    +0.000 A 
ATOM      6  C   UNL     1       3.636   6.611  18.039  0.00  0.00    +0.000 A 
ENDROOT
BRANCH   1   8
ATOM      7  C   UNL     1       2.732   2.534  18.136  0.00  0.00    +0.000 C 
ATOM      8  S   UNL     1       2.209   4.219  18.310  0.00  0.00    +0.000 S 
ATOM      9  O   UNL     1       1.288   4.491  17.223  0.00  0.00    +0.000 OA
ATOM     10  O   UNL     1       1.802   4.496  19.676  0.00  0.00    +0.000 OA
ENDBRANCH   1   8
BRANCH   6  11
ATOM     11  C   UNL     1       2.511   7.503  18.434  0.00  0.00    +0.000 C 
ATOM     12  O   UNL     1       1.888   8.081  17.549  0.00  0.00    +0.000 OA
ATOM     13  N   UNL     1       2.197   7.633  19.761  0.00  0.00    +0.000 N 
ATOM     14  H   UNL     1       2.667   7.074  20.474  0.00  0.00    +0.000 HD
BRANCH  13  15
ATOM     15  C   UNL     1       1.123   8.513  20.198  0.00  0.00    +0.000 C 
BRANCH  15  16
ATOM     16  C   UNL     1       0.995   8.570  21.724  0.00  0.00    +0.000 C 
BRANCH  16  17
ATOM     17  O   UNL     1       1.799   9.641  22.244  0.00  0.00    +0.000 OA
ATOM     18  H   UNL     1       1.858   9.528  23.210  0.00  0.00    +0.000 HD
ENDBRANCH  16  17
BRANCH  16  19
ATOM     19  C   UNL     1      -0.473   8.767  22.128  0.00  0.00    +0.000 C 
BRANCH  19  20
ATOM     20  O   UNL     1      -0.576   9.265  23.459  0.00  0.00    +0.000 OA
ATOM     21  H   UNL     1      -0.240   8.581  24.064  0.00  0.00    +0.000 HD
ENDBRANCH  19  20
ENDBRANCH  16  19
ENDBRANCH  15  16
ENDBRANCH  13  15
ENDBRANCH   6  11
BRANCH   3  22
ATOM     22  N   UNL     1       7.253   4.502  17.295  0.00  0.00    +0.000 N 
ATOM     23  O   UNL     1       7.560   4.210  16.131  0.00  0.00    +0.000 OA
ATOM     24  O   UNL     1       7.935   4.266  18.301  0.00  0.00    +0.000 OA
ENDBRANCH   3  22
BRANCH   4  25
ATOM     25  N   UNL     1       7.204   7.405  17.117  0.00  0.00    +0.000 N 
ATOM     26  C   UNL     1       8.170   7.739  18.164  0.00  0.00    +0.000 C 
ATOM     27  C   UNL     1       7.277   8.792  17.581  0.00  0.00    +0.000 C 
ENDBRANCH   4  25
TORSDOF 9
ENDMDL
MODEL 8
REMARK VINA RESULT:      -6.3      1.035      1.172
REMARK  Name = 
REMARK  10 active torsions:
REMARK  status: ('A' for Active; 'I' for Inactive)
REMARK    1  A    between atoms: C_1  and  S_2
REMARK    2  A    between atoms: S_2  and  C_5
REMARK    3  A    between atoms: C_7  and  N_8
REMARK    4  A    between atoms: C_11  and  N_12
REMARK    5  A    between atoms: C_16  and  C_17
REMARK    6  A    between atoms: N_19  and  C_20
REMARK    7  A    between atoms: C_20  and  C_21
REMARK    8  A    between atoms: C_21  and  O_22
REMARK    9  A    between atoms: C_21  and  C_23
REMARK   10  A    between atoms: C_23  and  O_24
REMARK                            x       y       z     vdW  Elec       q    Type
REMARK                         _______ _______ _______ _____ _____    ______ ____
ROOT
ATOM      1  C   UNL     1       2.263   5.081  20.141  0.00  0.00    +0.000 A 
ATOM      2  C   UNL     1       1.683   6.022  21.011  0.00  0.00    +0.000 A 
ATOM      3  C   UNL     1       1.555   7.364  20.611  0.00  0.00    +0.000 A 
ATOM      4  C   UNL     1       2.024   7.819  19.372  0.00  0.00    +0.000 A 
ATOM      5  C   UNL     1       2.538   6.839  18.503  0.00  0.00    +0.000 A 
ATOM      6  C   UNL     1       2.681   5.481  18.868  0.00  0.00    +0.000 A 
ENDROOT
BRANCH   1   8
ATOM      7  C   UNL     1       1.148   2.479  19.983  0.00  0.00    +0.000 C 
ATOM      8  S   UNL     1       2.441   3.420  20.747  0.00  0.00    +0.000 S 
ATOM      9  O   UNL     1       2.155   3.457  22.169  0.00  0.00    +0.000 OA
ATOM     10  O   UNL     1       3.745   2.970  20.293  0.00  0.00    +0.000 OA
ENDBRANCH   1   8
BRANCH   6  11
ATOM     11  C   UNL     1       3.186   4.620  17.763  0.00  0.00    +0.000 C 
ATOM     12  O   UNL     1       2.368   4.073  17.030  0.00  0.00    +0.000 OA
ATOM     13  N   UNL     1       4.538   4.484  17.588  0.00  0.00    +0.000 N 
ATOM     14  H   UNL     1       5.201   5.020  18.150  0.00  0.00    +0.000 HD
BRANCH  13  15
ATOM     15  C   UNL     1       5.080   3.634  16.539  0.00  0.00    +0.000 C 
BRANCH  15  16
ATOM     16  C   UNL     1       6.003   4.397  15.582  0.00  0.00    +0.000 C 
BRANCH  16  17
ATOM     17  O   UNL     1       5.383   4.512  14.291  0.00  0.00    +0.000 OA
ATOM     18  H   UNL     1       4.821   5.308  14.301  0.00  0.00    +0.000 HD
ENDBRANCH  16  17
BRANCH  16  19
ATOM     19  C   UNL     1       6.317   5.791  16.144  0.00  0.00    +0.000 C 
BRANCH  19  20
ATOM     20  O   UNL     1       5.406   6.763  15.640  0.00  0.00    +0.000 OA
ATOM     21  H   UNL     1       4.517   6.367  15.629  0.00  0.00    +0.000 HD
ENDBRANCH  19  20
ENDBRANCH  16  19
ENDBRANCH  15  16
ENDBRANCH  13  15
ENDBRANCH   6  11
BRANCH   3  22
ATOM     22  N   UNL     1       0.860   8.262  21.519  0.00  0.00    +0.000 N 
ATOM     23  O   UNL     1      -0.378   8.211  21.504  0.00  0.00    +0.000 OA
ATOM     24  O   UNL     1       1.542   8.954  22.285  0.00  0.00    +0.000 OA
ENDBRANCH   3  22
BRANCH   4  25
ATOM     25  N   UNL     1       1.908   9.169  18.962  0.00  0.00    +0.000 N 
ATOM     26  C   UNL     1       0.762   9.627  18.177  0.00  0.00    +0.000 C 
ATOM     27  C   UNL     1       2.114   9.484  17.546  0.00  0.00    +0.000 C 
ENDBRANCH   4  25
TORSDOF 9
ENDMDL
MODEL 9
REMARK VINA RESULT:      -6.2      1.066      1.766
REMARK  Name = 
REMARK  10 active torsions:
REMARK  status: ('A' for Active; 'I' for Inactive)
REMARK    1  A    between atoms: C_1  and  S_2
REMARK    2  A    between atoms: S_2  and  C_5
REMARK    3  A    between atoms: C_7  and  N_8
REMARK    4  A    between atoms: C_11  and  N_12
REMARK    5  A    between atoms: C_16  and  C_17
REMARK    6  A    between atoms: N_19  and  C_20
REMARK    7  A    between atoms: C_20  and  C_21
REMARK    8  A    between atoms: C_21  and  O_22
REMARK    9  A    between atoms: C_21  and  C_23
REMARK   10  A    between atoms: C_23  and  O_24
REMARK                            x       y       z     vdW  Elec       q    Type
REMARK                         _______ _______ _______ _____ _____    ______ ____
ROOT
ATOM      1  C   UNL     1       2.270   4.985  19.865  0.00  0.00    +0.000 A 
ATOM      2  C   UNL     1       1.607   5.809  20.793  0.00  0.00    +0.000 A 
ATOM      3  C   UNL     1       1.469   7.185  20.540  0.00  0.00    +0.000 A 
ATOM      4  C   UNL     1       2.008   7.789  19.396  0.00  0.00    +0.000 A 
ATOM      5  C   UNL     1       2.607   6.925  18.461  0.00  0.00    +0.000 A 
ATOM      6  C   UNL     1       2.763   5.537  18.678  0.00  0.00    +0.000 A 
ENDROOT
BRANCH   1   8
ATOM      7  C   UNL     1       2.108   3.154  22.024  0.00  0.00    +0.000 C 
ATOM      8  S   UNL     1       2.453   3.270  20.289  0.00  0.00    +0.000 S 
ATOM      9  O   UNL     1       3.855   2.940  20.114  0.00  0.00    +0.000 OA
ATOM     10  O   UNL     1       1.452   2.560  19.513  0.00  0.00    +0.000 OA
ENDBRANCH   1   8
BRANCH   6  11
ATOM     11  C   UNL     1       3.366   4.820  17.521  0.00  0.00    +0.000 C 
ATOM     12  O   UNL     1       2.706   3.944  16.971  0.00  0.00    +0.000 OA
ATOM     13  N   UNL     1       4.619   5.173  17.097  0.00  0.00    +0.000 N 
ATOM     14  H   UNL     1       5.114   5.966  17.509  0.00  0.00    +0.000 HD
BRANCH  13  15
ATOM     15  C   UNL     1       5.261   4.483  15.988  0.00  0.00    +0.000 C 
BRANCH  15  16
ATOM     16  C   UNL     1       6.632   5.076  15.642  0.00  0.00    +0.000 C 
BRANCH  16  17
ATOM     17  O   UNL     1       7.636   4.525  16.508  0.00  0.00    +0.000 OA
ATOM     18  H   UNL     1       8.074   3.796  16.031  0.00  0.00    +0.000 HD
ENDBRANCH  16  17
BRANCH  16  19
ATOM     19  C   UNL     1       6.983   4.787  14.175  0.00  0.00    +0.000 C 
BRANCH  19  20
ATOM     20  O   UNL     1       8.064   5.604  13.737  0.00  0.00    +0.000 OA
ATOM     21  H   UNL     1       8.757   5.580  14.420  0.00  0.00    +0.000 HD
ENDBRANCH  19  20
ENDBRANCH  16  19
ENDBRANCH  15  16
ENDBRANCH  13  15
ENDBRANCH   6  11
BRANCH   3  22
ATOM     22  N   UNL     1       0.688   7.958  21.492  0.00  0.00    +0.000 N 
ATOM     23  O   UNL     1       1.321   8.735  22.222  0.00  0.00    +0.000 OA
ATOM     24  O   UNL     1      -0.544   7.845  21.459  0.00  0.00    +0.000 OA
ENDBRANCH   3  22
BRANCH   4  25
ATOM     25  N   UNL     1       1.883   9.174  19.135  0.00  0.00    +0.000 N 
ATOM     26  C   UNL     1       0.720   9.710  18.427  0.00  0.00    +0.000 C 
ATOM     27  C   UNL     1       2.059   9.638  17.757  0.00  0.00    +0.000 C 
ENDBRANCH   4  25
TORSDOF 9
ENDMDL
