MODEL 1
REMARK VINA RESULT:      -7.7      0.000      0.000
REMARK  Name = 
REMARK  5 active torsions:
REMARK  status: ('A' for Active; 'I' for Inactive)
REMARK    1  A    between atoms: C_1  and  C_2
REMARK    2  A    between atoms: C_2  and  C_3
REMARK    3  A    between atoms: C_8  and  C_9
REMARK    4  A    between atoms: C_8  and  C_10
REMARK    5  A    between atoms: N_12  and  C_13
REMARK                            x       y       z     vdW  Elec       q    Type
REMARK                         _______ _______ _______ _____ _____    ______ ____
ROOT
ATOM      1  C   UNL     1       4.046   6.326  17.761  0.00  0.00    +0.000 C 
ATOM      2  O   UNL     1       4.333   7.254  16.999  0.00  0.00    +0.000 OA
ATOM      3  N   UNL     1       3.087   6.432  18.770  0.00  0.00    +0.000 N 
ATOM      4  H   UNL     1       3.020   5.655  19.419  0.00  0.00    +0.000 HD
ENDROOT
BRANCH   3   5
ATOM      5  C   UNL     1       2.281   7.559  19.040  0.00  0.00    +0.000 A 
ATOM      6  C   UNL     1       1.905   8.492  18.070  0.00  0.00    +0.000 A 
ATOM      7  C   UNL     1       1.114   9.598  18.403  0.00  0.00    +0.000 A 
ATOM      8  C   UNL     1       0.696   9.791  19.718  0.00  0.00    +0.000 A 
ATOM      9 CL   UNL     1      -0.262  11.186  20.060  0.00  0.00    +0.000 Cl
ATOM     10  C   UNL     1       1.060   8.864  20.697  0.00  0.00    +0.000 A 
ATOM     11 CL   UNL     1       0.601   9.047  22.355  0.00  0.00    +0.000 Cl
ATOM     12  C   UNL     1       1.835   7.746  20.356  0.00  0.00    +0.000 A 
ENDBRANCH   3   5
BRANCH   1  18
ATOM     13  C   UNL     1       7.062   5.807  16.805  0.00  0.00    +0.000 C 
ATOM     14  O   UNL     1       7.689   5.852  15.748  0.00  0.00    +0.000 OA
ATOM     15  N   UNL     1       6.096   4.858  17.019  0.00  0.00    +0.000 N 
ATOM     16  C   UNL     1       5.734   3.756  16.140  0.00  0.00    +0.000 C 
ATOM     17  C   UNL     1       4.286   3.966  16.575  0.00  0.00    +0.000 C 
ATOM     18  C   UNL     1       4.787   4.920  17.694  0.00  0.00    +0.000 C 
ATOM     19  C   UNL     1       4.868   4.242  19.065  0.00  0.00    +0.000 C 
BRANCH  13  21
ATOM     20  C   UNL     1       7.764   8.111  17.537  0.00  0.00    +0.000 C 
ATOM     21  C   UNL     1       7.387   6.708  17.982  0.00  0.00    +0.000 C 
ENDBRANCH  13  21
ENDBRANCH   1  18
TORSDOF 3
ENDMDL
MODEL 2
REMARK VINA RESULT:      -7.5      4.750      7.100
REMARK  Name = 
REMARK  5 active torsions:
REMARK  status: ('A' for Active; 'I' for Inactive)
REMARK    1  A    between atoms: C_1  and  C_2
REMARK    2  A    between atoms: C_2  and  C_3
REMARK    3  A    between atoms: C_8  and  C_9
REMARK    4  A    between atoms: C_8  and  C_10
REMARK    5  A    between atoms: N_12  and  C_13
REMARK                            x       y       z     vdW  Elec       q    Type
REMARK                         _______ _______ _______ _____ _____    ______ ____
ROOT
ATOM      1  C   UNL     1       4.789   3.440  18.500  0.00  0.00    +0.000 C 
ATOM      2  O   UNL     1       5.631   4.154  19.052  0.00  0.00    +0.000 OA
ATOM      3  N   UNL     1       4.711   3.279  17.116  0.00  0.00    +0.000 N 
ATOM      4  H   UNL     1       3.906   2.773  16.760  0.00  0.00    +0.000 HD
ENDROOT
BRANCH   3   5
ATOM      5  C   UNL     1       5.581   3.845  16.159  0.00  0.00    +0.000 A 
ATOM      6  C   UNL     1       6.568   4.784  16.470  0.00  0.00    +0.000 A 
ATOM      7  C   UNL     1       7.392   5.320  15.473  0.00  0.00    +0.000 A 
ATOM      8  C   UNL     1       7.232   4.929  14.146  0.00  0.00    +0.000 A 
ATOM      9 CL   UNL     1       8.271   5.644  12.967  0.00  0.00    +0.000 Cl
ATOM     10  C   UNL     1       6.253   3.988  13.820  0.00  0.00    +0.000 A 
ATOM     11 CL   UNL     1       5.977   3.470  12.193  0.00  0.00    +0.000 Cl
ATOM     12  C   UNL     1       5.443   3.437  14.825  0.00  0.00    +0.000 A 
ENDBRANCH   3   5
BRANCH   1  18
ATOM     13  C   UNL     1       2.189   4.727  19.863  0.00  0.00    +0.000 C 
ATOM     14  O   UNL     1       1.948   5.472  20.812  0.00  0.00    +0.000 OA
ATOM     15  N   UNL     1       2.674   3.461  20.059  0.00  0.00    +0.000 N 
ATOM     16  C   UNL     1       2.882   2.784  21.330  0.00  0.00    +0.000 C 
ATOM     17  C   UNL     1       4.124   2.144  20.717  0.00  0.00    +0.000 C 
ATOM     18  C   UNL     1       3.672   2.663  19.324  0.00  0.00    +0.000 C 
ATOM     19  C   UNL     1       2.974   1.589  18.484  0.00  0.00    +0.000 C 
BRANCH  13  21
ATOM     20  C   UNL     1       2.573   6.374  17.998  0.00  0.00    +0.000 C 
ATOM     21  C   UNL     1       1.860   5.104  18.430  0.00  0.00    +0.000 C 
ENDBRANCH  13  21
ENDBRANCH   1  18
TORSDOF 3
ENDMDL
MODEL 3
REMARK VINA RESULT:      -7.3      2.251      3.651
REMARK  Name = 
REMARK  5 active torsions:
REMARK  status: ('A' for Active; 'I' for Inactive)
REMARK    1  A    between atoms: C_1  and  C_2
REMARK    2  A    between atoms: C_2  and  C_3
REMARK    3  A    between atoms: C_8  and  C_9
REMARK    4  A    between atoms: C_8  and  C_10
REMARK    5  A    between atoms: N_12  and  C_13
REMARK                            x       y       z     vdW  Elec       q    Type
REMARK                         _______ _______ _______ _____ _____    ______ ____
ROOT
ATOM      1  C   UNL     1       2.818   5.537  18.116  0.00  0.00    +0.000 C 
ATOM      2  O   UNL     1       1.711   5.280  17.635  0.00  0.00    +0.000 OA
ATOM      3  N   UNL     1       3.111   6.740  18.762  0.00  0.00    +0.000 N 
ATOM      4  H   UNL     1       4.083   6.900  19.008  0.00  0.00    +0.000 HD
ENDROOT
BRANCH   3   5
ATOM      5  C   UNL     1       2.209   7.798  19.005  0.00  0.00    +0.000 A 
ATOM      6  C   UNL     1       1.812   8.716  18.030  0.00  0.00    +0.000 A 
ATOM      7  C   UNL     1       0.925   9.754  18.337  0.00  0.00    +0.000 A 
ATOM      8  C   UNL     1       0.427   9.893  19.631  0.00  0.00    +0.000 A 
ATOM      9 CL   UNL     1      -0.649  11.206  19.942  0.00  0.00    +0.000 Cl
ATOM     10  C   UNL     1       0.811   8.979  20.615  0.00  0.00    +0.000 A 
ATOM     11 CL   UNL     1       0.257   9.099  22.250  0.00  0.00    +0.000 Cl
ATOM     12  C   UNL     1       1.685   7.928  20.299  0.00  0.00    +0.000 A 
ENDBRANCH   3   5
BRANCH   1  18
ATOM     13  C   UNL     1       3.247   2.865  19.835  0.00  0.00    +0.000 C 
ATOM     14  O   UNL     1       3.506   2.581  21.003  0.00  0.00    +0.000 OA
ATOM     15  N   UNL     1       4.172   3.479  19.031  0.00  0.00    +0.000 N 
ATOM     16  C   UNL     1       5.555   3.792  19.358  0.00  0.00    +0.000 C 
ATOM     17  C   UNL     1       5.394   5.072  18.543  0.00  0.00    +0.000 C 
ATOM     18  C   UNL     1       4.042   4.528  18.004  0.00  0.00    +0.000 C 
ATOM     19  C   UNL     1       4.161   3.914  16.605  0.00  0.00    +0.000 C 
BRANCH  13  21
ATOM     20  C   UNL     1       0.734   2.992  19.912  0.00  0.00    +0.000 C 
ATOM     21  C   UNL     1       1.947   2.457  19.169  0.00  0.00    +0.000 C 
ENDBRANCH  13  21
ENDBRANCH   1  18
TORSDOF 3
ENDMDL
MODEL 4
REMARK VINA RESULT:      -7.2      1.188      1.200
REMARK  Name = 
REMARK  5 active torsions:
REMARK  status: ('A' for Active; 'I' for Inactive)
REMARK    1  A    between atoms: C_1  and  C_2
REMARK    2  A    between atoms: C_2  and  C_3
REMARK    3  A    between atoms: C_8  and  C_9
REMARK    4  A    between atoms: C_8  and  C_10
REMARK    5  A    between atoms: N_12  and  C_13
REMARK                            x       y       z     vdW  Elec       q    Type
REMARK                         _______ _______ _______ _____ _____    ______ ____
ROOT
ATOM      1  C   UNL     1       2.970   5.543  18.123  0.00  0.00    +0.000 C 
ATOM      2  O   UNL     1       1.872   5.257  17.637  0.00  0.00    +0.000 OA
ATOM      3  N   UNL     1       3.231   6.753  18.767  0.00  0.00    +0.000 N 
ATOM      4  H   UNL     1       4.197   6.939  19.016  0.00  0.00    +0.000 HD
ENDROOT
BRANCH   3   5
ATOM      5  C   UNL     1       2.302   7.788  19.006  0.00  0.00    +0.000 A 
ATOM      6  C   UNL     1       1.893   8.702  18.030  0.00  0.00    +0.000 A 
ATOM      7  C   UNL     1       0.978   9.717  18.332  0.00  0.00    +0.000 A 
ATOM      8  C   UNL     1       0.464   9.838  19.622  0.00  0.00    +0.000 A 
ATOM      9 CL   UNL     1      -0.647  11.124  19.927  0.00  0.00    +0.000 Cl
ATOM     10  C   UNL     1       0.859   8.930  20.606  0.00  0.00    +0.000 A 
ATOM     11 CL   UNL     1       0.286   9.029  22.235  0.00  0.00    +0.000 Cl
ATOM     12  C   UNL     1       1.761   7.901  20.294  0.00  0.00    +0.000 A 
ENDBRANCH   3   5
BRANCH   1  18
ATOM     13  C   UNL     1       5.506   5.896  16.193  0.00  0.00    +0.000 C 
ATOM     14  O   UNL     1       5.731   5.833  14.985  0.00  0.00    +0.000 OA
ATOM     15  N   UNL     1       5.175   4.778  16.914  0.00  0.00    +0.000 N 
ATOM     16  C   UNL     1       5.131   3.404  16.438  0.00  0.00    +0.000 C 
ATOM     17  C   UNL     1       3.925   3.192  17.349  0.00  0.00    +0.000 C 
ATOM     18  C   UNL     1       4.220   4.565  18.016  0.00  0.00    +0.000 C 
ATOM     19  C   UNL     1       4.969   4.434  19.345  0.00  0.00    +0.000 C 
BRANCH  13  21
ATOM     20  C   UNL     1       7.125   7.348  17.461  0.00  0.00    +0.000 C 
ATOM     21  C   UNL     1       5.691   7.175  16.987  0.00  0.00    +0.000 C 
ENDBRANCH  13  21
ENDBRANCH   1  18
TORSDOF 3
ENDMDL
MODEL 5
REMARK VINA RESULT:      -7.2      1.909      2.219
REMARK  Name = 
REMARK  5 active torsions:
REMARK  status: ('A' for Active; 'I' for Inactive)
REMARK    1  A    between atoms: C_1  and  C_2
REMARK    2  A    between atoms: C_2  and  C_3
REMARK    3  A    between atoms: C_8  and  C_9
REMARK    4  A    between atoms: C_8  and  C_10
REMARK    5  A    between atoms: N_12  and  C_13
REMARK                            x       y       z     vdW  Elec       q    Type
REMARK                         _______ _______ _______ _____ _____    ______ ____
ROOT
ATOM      1  C   UNL     1       2.228   5.013  18.537  0.00  0.00    +0.000 C 
ATOM      2  O   UNL     1       1.359   5.063  17.661  0.00  0.00    +0.000 OA
ATOM      3  N   UNL     1       2.653   6.129  19.259  0.00  0.00    +0.000 N 
ATOM      4  H   UNL     1       3.459   6.001  19.864  0.00  0.00    +0.000 HD
ENDROOT
BRANCH   3   5
ATOM      5  C   UNL     1       2.143   7.440  19.147  0.00  0.00    +0.000 A 
ATOM      6  C   UNL     1       2.236   8.210  17.985  0.00  0.00    +0.000 A 
ATOM      7  C   UNL     1       1.722   9.511  17.940  0.00  0.00    +0.000 A 
ATOM      8  C   UNL     1       1.113  10.065  19.064  0.00  0.00    +0.000 A 
ATOM      9 CL   UNL     1       0.517  11.680  18.943  0.00  0.00    +0.000 Cl
ATOM     10  C   UNL     1       1.008   9.305  20.232  0.00  0.00    +0.000 A 
ATOM     11 CL   UNL     1       0.289   9.929  21.676  0.00  0.00    +0.000 Cl
ATOM     12  C   UNL     1       1.506   7.994  20.266  0.00  0.00    +0.000 A 
ENDBRANCH   3   5
BRANCH   1  18
ATOM     13  C   UNL     1       4.962   3.960  17.233  0.00  0.00    +0.000 C 
ATOM     14  O   UNL     1       5.327   3.527  16.142  0.00  0.00    +0.000 OA
ATOM     15  N   UNL     1       4.107   3.246  18.031  0.00  0.00    +0.000 N 
ATOM     16  C   UNL     1       3.595   1.904  17.795  0.00  0.00    +0.000 C 
ATOM     17  C   UNL     1       2.279   2.363  18.416  0.00  0.00    +0.000 C 
ATOM     18  C   UNL     1       2.987   3.661  18.895  0.00  0.00    +0.000 C 
ATOM     19  C   UNL     1       3.406   3.604  20.367  0.00  0.00    +0.000 C 
BRANCH  13  21
ATOM     20  C   UNL     1       5.361   6.420  16.874  0.00  0.00    +0.000 C 
ATOM     21  C   UNL     1       5.514   5.244  17.824  0.00  0.00    +0.000 C 
ENDBRANCH  13  21
ENDBRANCH   1  18
TORSDOF 3
ENDMDL
MODEL 6
REMARK VINA RESULT:      -7.2      1.032      1.036
REMARK  Name = 
REMARK  5 active torsions:
REMARK  status: ('A' for Active; 'I' for Inactive)
REMARK    1  A    between atoms: C_1  and  C_2
REMARK    2  A    between atoms: C_2  and  C_3
REMARK    3  A    between atoms: C_8  and  C_9
REMARK    4  A    between atoms: C_8  and  C_10
REMARK    5  A    between atoms: N_12  and  C_13
REMARK                            x       y       z     vdW  Elec       q    Type
REMARK                         _______ _______ _______ _____ _____    ______ ____
ROOT
ATOM      1  C   UNL     1       4.098   5.561  18.761  0.00  0.00    +0.000 C 
ATOM      2  O   UNL     1       4.407   5.840  19.923  0.00  0.00    +0.000 OA
ATOM      3  N   UNL     1       3.164   6.287  18.021  0.00  0.00    +0.000 N 
ATOM      4  H   UNL     1       2.891   5.898  17.124  0.00  0.00    +0.000 HD
ENDROOT
BRANCH   3   5
ATOM      5  C   UNL     1       2.481   7.446  18.447  0.00  0.00    +0.000 A 
ATOM      6  C   UNL     1       2.233   8.546  17.621  0.00  0.00    +0.000 A 
ATOM      7  C   UNL     1       1.563   9.675  18.106  0.00  0.00    +0.000 A 
ATOM      8  C   UNL     1       1.137   9.722  19.432  0.00  0.00    +0.000 A 
ATOM      9 CL   UNL     1       0.331  11.152  19.967  0.00  0.00    +0.000 Cl
ATOM     10  C   UNL     1       1.373   8.628  20.268  0.00  0.00    +0.000 A 
ATOM     11 CL   UNL     1       0.897   8.620  21.931  0.00  0.00    +0.000 Cl
ATOM     12  C   UNL     1       2.027   7.490  19.773  0.00  0.00    +0.000 A 
ENDBRANCH   3   5
BRANCH   1  18
ATOM     13  C   UNL     1       6.869   5.472  17.151  0.00  0.00    +0.000 C 
ATOM     14  O   UNL     1       7.316   5.943  16.106  0.00  0.00    +0.000 OA
ATOM     15  N   UNL     1       5.884   4.520  17.137  0.00  0.00    +0.000 N 
ATOM     16  C   UNL     1       5.302   3.870  15.973  0.00  0.00    +0.000 C 
ATOM     17  C   UNL     1       3.965   3.886  16.708  0.00  0.00    +0.000 C 
ATOM     18  C   UNL     1       4.712   4.303  18.005  0.00  0.00    +0.000 C 
ATOM     19  C   UNL     1       4.967   3.125  18.951  0.00  0.00    +0.000 C 
BRANCH  13  21
ATOM     20  C   UNL     1       8.103   7.188  18.519  0.00  0.00    +0.000 C 
ATOM     21  C   UNL     1       7.449   5.816  18.510  0.00  0.00    +0.000 C 
ENDBRANCH  13  21
ENDBRANCH   1  18
TORSDOF 3
ENDMDL
MODEL 7
REMARK VINA RESULT:      -7.1      0.777      1.585
REMARK  Name = 
REMARK  5 active torsions:
REMARK  status: ('A' for Active; 'I' for Inactive)
REMARK    1  A    between atoms: C_1  and  C_2
REMARK    2  A    between atoms: C_2  and  C_3
REMARK    3  A    between atoms: C_8  and  C_9
REMARK    4  A    between atoms: C_8  and  C_10
REMARK    5  A    between atoms: N_12  and  C_13
REMARK                            x       y       z     vdW  Elec       q    Type
REMARK                         _______ _______ _______ _____ _____    ______ ____
ROOT
ATOM      1  C   UNL     1       4.047   6.089  17.960  0.00  0.00    +0.000 C 
ATOM      2  O   UNL     1       4.153   7.074  17.224  0.00  0.00    +0.000 OA
ATOM      3  N   UNL     1       3.244   6.069  19.102  0.00  0.00    +0.000 N 
ATOM      4  H   UNL     1       3.327   5.256  19.704  0.00  0.00    +0.000 HD
ENDROOT
BRANCH   3   5
ATOM      5  C   UNL     1       2.412   7.115  19.556  0.00  0.00    +0.000 A 
ATOM      6  C   UNL     1       1.795   7.125  20.809  0.00  0.00    +0.000 A 
ATOM      7  C   UNL     1       0.969   8.186  21.197  0.00  0.00    +0.000 A 
ATOM      8  C   UNL     1       0.741   9.252  20.329  0.00  0.00    +0.000 A 
ATOM      9 CL   UNL     1      -0.302  10.518  20.867  0.00  0.00    +0.000 Cl
ATOM     10  C   UNL     1       1.356   9.258  19.075  0.00  0.00    +0.000 A 
ATOM     11 CL   UNL     1       1.103  10.532  17.932  0.00  0.00    +0.000 Cl
ATOM     12  C   UNL     1       2.199   8.203  18.698  0.00  0.00    +0.000 A 
ENDBRANCH   3   5
BRANCH   1  18
ATOM     13  C   UNL     1       7.017   5.869  16.774  0.00  0.00    +0.000 C 
ATOM     14  O   UNL     1       7.568   6.064  15.692  0.00  0.00    +0.000 OA
ATOM     15  N   UNL     1       6.125   4.842  16.943  0.00  0.00    +0.000 N 
ATOM     16  C   UNL     1       5.771   3.815  15.975  0.00  0.00    +0.000 C 
ATOM     17  C   UNL     1       4.345   3.884  16.516  0.00  0.00    +0.000 C 
ATOM     18  C   UNL     1       4.863   4.748  17.699  0.00  0.00    +0.000 C 
ATOM     19  C   UNL     1       5.076   3.939  18.982  0.00  0.00    +0.000 C 
BRANCH  13  21
ATOM     20  C   UNL     1       7.818   8.075  17.684  0.00  0.00    +0.000 C 
ATOM     21  C   UNL     1       7.367   6.663  18.019  0.00  0.00    +0.000 C 
ENDBRANCH  13  21
ENDBRANCH   1  18
TORSDOF 3
ENDMDL
MODEL 8
REMARK VINA RESULT:      -7.1      2.652      4.089
REMARK  Name = 
REMARK  5 active torsions:
REMARK  status: ('A' for Active; 'I' for Inactive)
REMARK    1  A    between atoms: C_1  and  C_2
REMARK    2  A    between atoms: C_2  and  C_3
REMARK    3  A    between atoms: C_8  and  C_9
REMARK    4  A    between atoms: C_8  and  C_10
REMARK    5  A    between atoms: N_12  and  C_13
REMARK                            x       y       z     vdW  Elec       q    Type
REMARK                         _______ _______ _______ _____ _____    ______ ____
ROOT
ATOM      1  C   UNL     1       3.651   5.396  19.073  0.00  0.00    +0.000 C 
ATOM      2  O   UNL     1       4.577   6.036  19.580  0.00  0.00    +0.000 OA
ATOM      3  N   UNL     1       2.432   5.970  18.709  0.00  0.00    +0.000 N 
ATOM      4  H   UNL     1       1.696   5.333  18.420  0.00  0.00    +0.000 HD
ENDROOT
BRANCH   3   5
ATOM      5  C   UNL     1       2.089   7.336  18.810  0.00  0.00    +0.000 A 
ATOM      6  C   UNL     1       2.211   8.244  17.756  0.00  0.00    +0.000 A 
ATOM      7  C   UNL     1       1.868   9.591  17.922  0.00  0.00    +0.000 A 
ATOM      8  C   UNL     1       1.405  10.050  19.153  0.00  0.00    +0.000 A 
ATOM      9 CL   UNL     1       1.017  11.727  19.292  0.00  0.00    +0.000 Cl
ATOM     10  C   UNL     1       1.274   9.153  20.215  0.00  0.00    +0.000 A 
ATOM     11 CL   UNL     1       0.730   9.651  21.780  0.00  0.00    +0.000 Cl
ATOM     12  C   UNL     1       1.599   7.800  20.039  0.00  0.00    +0.000 A 
ENDBRANCH   3   5
BRANCH   1  18
ATOM     13  C   UNL     1       2.427   3.098  20.944  0.00  0.00    +0.000 C 
ATOM     14  O   UNL     1       2.651   2.635  22.061  0.00  0.00    +0.000 OA
ATOM     15  N   UNL     1       3.315   2.928  19.913  0.00  0.00    +0.000 N 
ATOM     16  C   UNL     1       4.541   2.146  19.926  0.00  0.00    +0.000 C 
ATOM     17  C   UNL     1       5.160   3.214  19.029  0.00  0.00    +0.000 C 
ATOM     18  C   UNL     1       3.746   3.827  18.827  0.00  0.00    +0.000 C 
ATOM     19  C   UNL     1       3.097   3.407  17.505  0.00  0.00    +0.000 C 
BRANCH  13  21
ATOM     20  C   UNL     1       0.336   3.002  19.545  0.00  0.00    +0.000 C 
ATOM     21  C   UNL     1       1.116   3.777  20.594  0.00  0.00    +0.000 C 
ENDBRANCH  13  21
ENDBRANCH   1  18
TORSDOF 3
ENDMDL
MODEL 9
REMARK VINA RESULT:      -7.0      1.707      2.575
REMARK  Name = 
REMARK  5 active torsions:
REMARK  status: ('A' for Active; 'I' for Inactive)
REMARK    1  A    between atoms: C_1  and  C_2
REMARK    2  A    between atoms: C_2  and  C_3
REMARK    3  A    between atoms: C_8  and  C_9
REMARK    4  A    between atoms: C_8  and  C_10
REMARK    5  A    between atoms: N_12  and  C_13
REMARK                            x       y       z     vdW  Elec       q    Type
REMARK                         _______ _______ _______ _____ _____    ______ ____
ROOT
ATOM      1  C   UNL     1       2.935   5.673  17.706  0.00  0.00    +0.000 C 
ATOM      2  O   UNL     1       1.829   5.156  17.893  0.00  0.00    +0.000 OA
ATOM      3  N   UNL     1       3.202   7.020  17.953  0.00  0.00    +0.000 N 
ATOM      4  H   UNL     1       4.105   7.370  17.647  0.00  0.00    +0.000 HD
ENDROOT
BRANCH   3   5
ATOM      5  C   UNL     1       2.300   7.966  18.484  0.00  0.00    +0.000 A 
ATOM      6  C   UNL     1       1.660   8.943  17.716  0.00  0.00    +0.000 A 
ATOM      7  C   UNL     1       0.785   9.864  18.303  0.00  0.00    +0.000 A 
ATOM      8  C   UNL     1       0.545   9.826  19.675  0.00  0.00    +0.000 A 
ATOM      9 CL   UNL     1      -0.532  11.003  20.335  0.00  0.00    +0.000 Cl
ATOM     10  C   UNL     1       1.173   8.853  20.456  0.00  0.00    +0.000 A 
ATOM     11 CL   UNL     1       0.944   8.756  22.168  0.00  0.00    +0.000 Cl
ATOM     12  C   UNL     1       2.033   7.918  19.860  0.00  0.00    +0.000 A 
ENDBRANCH   3   5
BRANCH   1  18
ATOM     13  C   UNL     1       5.494   4.636  19.336  0.00  0.00    +0.000 C 
ATOM     14  O   UNL     1       6.477   5.138  19.878  0.00  0.00    +0.000 OA
ATOM     15  N   UNL     1       5.344   4.658  17.974  0.00  0.00    +0.000 N 
ATOM     16  C   UNL     1       6.296   5.152  16.991  0.00  0.00    +0.000 C 
ATOM     17  C   UNL     1       5.105   5.655  16.180  0.00  0.00    +0.000 C 
ATOM     18  C   UNL     1       4.161   4.849  17.116  0.00  0.00    +0.000 C 
ATOM     19  C   UNL     1       3.724   3.511  16.513  0.00  0.00    +0.000 C 
BRANCH  13  21
ATOM     20  C   UNL     1       4.545   2.365  19.863  0.00  0.00    +0.000 C 
ATOM     21  C   UNL     1       4.446   3.860  20.112  0.00  0.00    +0.000 C 
ENDBRANCH  13  21
ENDBRANCH   1  18
TORSDOF 3
ENDMDL
