MODEL 1
REMARK VINA RESULT:      -7.0      0.000      0.000
REMARK  Name = 
REMARK  1 active torsions:
REMARK  status: ('A' for Active; 'I' for Inactive)
REMARK    1  A    between atoms: C_5  and  C_6
REMARK                            x       y       z     vdW  Elec       q    Type
REMARK                         _______ _______ _______ _____ _____    ______ ____
ROOT
ATOM      1  C   UNL     1       1.621   2.976  18.575  0.00  0.00    +0.000 A 
ATOM      2  C   UNL     1       2.609   2.339  17.835  0.00  0.00    +0.000 A 
ATOM      3  C   UNL     1       3.629   3.087  17.238  0.00  0.00    +0.000 A 
ATOM      4  C   UNL     1       3.695   4.493  17.364  0.00  0.00    +0.000 A 
ATOM      5  C   UNL     1       4.762   5.267  16.810  0.00  0.00    +0.000 A 
ATOM      6  C   UNL     1       4.675   6.671  16.957  0.00  0.00    +0.000 A 
ATOM      7  C   UNL     1       3.632   7.290  17.639  0.00  0.00    +0.000 A 
ATOM      8  C   UNL     1       2.633   6.520  18.215  0.00  0.00    +0.000 A 
ATOM      9  C   UNL     1       2.649   5.126  18.089  0.00  0.00    +0.000 A 
ATOM     10  C   UNL     1       1.637   4.363  18.691  0.00  0.00    +0.000 A 
ENDROOT
BRANCH   5  11
ATOM     11  C   UNL     1       6.040   4.621  16.102  0.00  0.00    +0.000 C 
ATOM     12  C   UNL     1       5.925   4.098  14.660  0.00  0.00    +0.000 C 
ATOM     13  C   UNL     1       7.196   4.903  14.411  0.00  0.00    +0.000 C 
ATOM     14  O   UNL     1       7.056   5.585  15.678  0.00  0.00    +0.000 OA
ENDBRANCH   5  11
TORSDOF 1
ENDMDL
MODEL 2
REMARK VINA RESULT:      -6.7      2.022      4.533
REMARK  Name = 
REMARK  1 active torsions:
REMARK  status: ('A' for Active; 'I' for Inactive)
REMARK    1  A    between atoms: C_5  and  C_6
REMARK                            x       y       z     vdW  Elec       q    Type
REMARK                         _______ _______ _______ _____ _____    ______ ____
ROOT
ATOM      1  C   UNL     1       5.838   5.461  15.342  0.00  0.00    +0.000 A 
ATOM      2  C   UNL     1       5.572   4.173  15.786  0.00  0.00    +0.000 A 
ATOM      3  C   UNL     1       4.635   3.961  16.802  0.00  0.00    +0.000 A 
ATOM      4  C   UNL     1       3.932   5.029  17.403  0.00  0.00    +0.000 A 
ATOM      5  C   UNL     1       2.928   4.827  18.402  0.00  0.00    +0.000 A 
ATOM      6  C   UNL     1       2.344   5.986  18.964  0.00  0.00    +0.000 A 
ATOM      7  C   UNL     1       2.684   7.271  18.553  0.00  0.00    +0.000 A 
ATOM      8  C   UNL     1       3.623   7.447  17.547  0.00  0.00    +0.000 A 
ATOM      9  C   UNL     1       4.252   6.342  16.963  0.00  0.00    +0.000 A 
ATOM     10  C   UNL     1       5.188   6.540  15.935  0.00  0.00    +0.000 A 
ENDROOT
BRANCH   5  11
ATOM     11  C   UNL     1       2.415   3.383  18.851  0.00  0.00    +0.000 C 
ATOM     12  C   UNL     1       1.279   3.268  19.881  0.00  0.00    +0.000 C 
ATOM     13  C   UNL     1       0.659   2.292  18.886  0.00  0.00    +0.000 C 
ATOM     14  O   UNL     1       1.593   2.689  17.857  0.00  0.00    +0.000 OA
ENDBRANCH   5  11
TORSDOF 1
ENDMDL
MODEL 3
REMARK VINA RESULT:      -6.7      2.066      2.288
REMARK  Name = 
REMARK  1 active torsions:
REMARK  status: ('A' for Active; 'I' for Inactive)
REMARK    1  A    between atoms: C_5  and  C_6
REMARK                            x       y       z     vdW  Elec       q    Type
REMARK                         _______ _______ _______ _____ _____    ______ ____
ROOT
ATOM      1  C   UNL     1       1.776   2.212  18.551  0.00  0.00    +0.000 A 
ATOM      2  C   UNL     1       3.119   1.859  18.565  0.00  0.00    +0.000 A 
ATOM      3  C   UNL     1       4.103   2.844  18.431  0.00  0.00    +0.000 A 
ATOM      4  C   UNL     1       3.777   4.210  18.283  0.00  0.00    +0.000 A 
ATOM      5  C   UNL     1       4.770   5.236  18.204  0.00  0.00    +0.000 A 
ATOM      6  C   UNL     1       4.308   6.557  17.997  0.00  0.00    +0.000 A 
ATOM      7  C   UNL     1       2.956   6.873  17.910  0.00  0.00    +0.000 A 
ATOM      8  C   UNL     1       2.005   5.873  18.041  0.00  0.00    +0.000 A 
ATOM      9  C   UNL     1       2.396   4.542  18.228  0.00  0.00    +0.000 A 
ATOM     10  C   UNL     1       1.417   3.546  18.373  0.00  0.00    +0.000 A 
ENDROOT
BRANCH   5  11
ATOM     11  C   UNL     1       6.332   4.962  18.394  0.00  0.00    +0.000 C 
ATOM     12  C   UNL     1       7.351   5.984  17.861  0.00  0.00    +0.000 C 
ATOM     13  C   UNL     1       7.983   5.871  19.244  0.00  0.00    +0.000 C 
ATOM     14  O   UNL     1       6.827   5.169  19.756  0.00  0.00    +0.000 OA
ENDBRANCH   5  11
TORSDOF 1
ENDMDL
MODEL 4
REMARK VINA RESULT:      -6.7      1.036      1.085
REMARK  Name = 
REMARK  1 active torsions:
REMARK  status: ('A' for Active; 'I' for Inactive)
REMARK    1  A    between atoms: C_5  and  C_6
REMARK                            x       y       z     vdW  Elec       q    Type
REMARK                         _______ _______ _______ _____ _____    ______ ____
ROOT
ATOM      1  C   UNL     1       1.293   2.791  19.617  0.00  0.00    +0.000 A 
ATOM      2  C   UNL     1       2.074   2.143  18.669  0.00  0.00    +0.000 A 
ATOM      3  C   UNL     1       2.947   2.877  17.860  0.00  0.00    +0.000 A 
ATOM      4  C   UNL     1       3.069   4.280  17.975  0.00  0.00    +0.000 A 
ATOM      5  C   UNL     1       3.998   5.039  17.197  0.00  0.00    +0.000 A 
ATOM      6  C   UNL     1       3.977   6.443  17.368  0.00  0.00    +0.000 A 
ATOM      7  C   UNL     1       3.128   7.075  18.272  0.00  0.00    +0.000 A 
ATOM      8  C   UNL     1       2.270   6.319  19.056  0.00  0.00    +0.000 A 
ATOM      9  C   UNL     1       2.228   4.926  18.922  0.00  0.00    +0.000 A 
ATOM     10  C   UNL     1       1.363   4.177  19.735  0.00  0.00    +0.000 A 
ENDROOT
BRANCH   5  11
ATOM     11  C   UNL     1       5.069   4.376  16.215  0.00  0.00    +0.000 C 
ATOM     12  C   UNL     1       5.648   5.203  15.055  0.00  0.00    +0.000 C 
ATOM     13  C   UNL     1       7.000   4.711  15.557  0.00  0.00    +0.000 C 
ATOM     14  O   UNL     1       6.409   4.225  16.784  0.00  0.00    +0.000 OA
ENDBRANCH   5  11
TORSDOF 1
ENDMDL
MODEL 5
REMARK VINA RESULT:      -6.3      1.133      1.133
REMARK  Name = 
REMARK  1 active torsions:
REMARK  status: ('A' for Active; 'I' for Inactive)
REMARK    1  A    between atoms: C_5  and  C_6
REMARK                            x       y       z     vdW  Elec       q    Type
REMARK                         _______ _______ _______ _____ _____    ______ ____
ROOT
ATOM      1  C   UNL     1       2.456   3.501  20.352  0.00  0.00    +0.000 A 
ATOM      2  C   UNL     1       3.465   2.819  19.685  0.00  0.00    +0.000 A 
ATOM      3  C   UNL     1       4.214   3.466  18.697  0.00  0.00    +0.000 A 
ATOM      4  C   UNL     1       3.982   4.815  18.348  0.00  0.00    +0.000 A 
ATOM      5  C   UNL     1       4.776   5.510  17.382  0.00  0.00    +0.000 A 
ATOM      6  C   UNL     1       4.398   6.839  17.082  0.00  0.00    +0.000 A 
ATOM      7  C   UNL     1       3.333   7.476  17.712  0.00  0.00    +0.000 A 
ATOM      8  C   UNL     1       2.605   6.804  18.683  0.00  0.00    +0.000 A 
ATOM      9  C   UNL     1       2.916   5.480  19.013  0.00  0.00    +0.000 A 
ATOM     10  C   UNL     1       2.177   4.822  20.009  0.00  0.00    +0.000 A 
ENDROOT
BRANCH   5  11
ATOM     11  C   UNL     1       6.071   4.878  16.694  0.00  0.00    +0.000 C 
ATOM     12  C   UNL     1       5.908   3.956  15.474  0.00  0.00    +0.000 C 
ATOM     13  C   UNL     1       6.985   4.829  14.839  0.00  0.00    +0.000 C 
ATOM     14  O   UNL     1       6.853   5.817  15.887  0.00  0.00    +0.000 OA
ENDBRANCH   5  11
TORSDOF 1
ENDMDL
MODEL 6
REMARK VINA RESULT:      -6.2      2.195      4.861
REMARK  Name = 
REMARK  1 active torsions:
REMARK  status: ('A' for Active; 'I' for Inactive)
REMARK    1  A    between atoms: C_5  and  C_6
REMARK                            x       y       z     vdW  Elec       q    Type
REMARK                         _______ _______ _______ _____ _____    ______ ____
ROOT
ATOM      1  C   UNL     1       6.246   4.526  15.782  0.00  0.00    +0.000 A 
ATOM      2  C   UNL     1       6.192   5.878  16.095  0.00  0.00    +0.000 A 
ATOM      3  C   UNL     1       5.101   6.390  16.805  0.00  0.00    +0.000 A 
ATOM      4  C   UNL     1       4.033   5.568  17.227  0.00  0.00    +0.000 A 
ATOM      5  C   UNL     1       2.939   6.063  18.003  0.00  0.00    +0.000 A 
ATOM      6  C   UNL     1       1.906   5.146  18.309  0.00  0.00    +0.000 A 
ATOM      7  C   UNL     1       1.949   3.812  17.918  0.00  0.00    +0.000 A 
ATOM      8  C   UNL     1       3.042   3.336  17.209  0.00  0.00    +0.000 A 
ATOM      9  C   UNL     1       4.089   4.196  16.858  0.00  0.00    +0.000 A 
ATOM     10  C   UNL     1       5.194   3.692  16.154  0.00  0.00    +0.000 A 
ENDROOT
BRANCH   5  11
ATOM     11  C   UNL     1       2.870   7.554  18.572  0.00  0.00    +0.000 C 
ATOM     12  C   UNL     1       2.038   8.612  17.827  0.00  0.00    +0.000 C 
ATOM     13  C   UNL     1       1.450   8.920  19.200  0.00  0.00    +0.000 C 
ATOM     14  O   UNL     1       2.027   7.718  19.758  0.00  0.00    +0.000 OA
ENDBRANCH   5  11
TORSDOF 1
ENDMDL
MODEL 7
REMARK VINA RESULT:      -6.2      2.368      2.753
REMARK  Name = 
REMARK  1 active torsions:
REMARK  status: ('A' for Active; 'I' for Inactive)
REMARK    1  A    between atoms: C_5  and  C_6
REMARK                            x       y       z     vdW  Elec       q    Type
REMARK                         _______ _______ _______ _____ _____    ______ ____
ROOT
ATOM      1  C   UNL     1       1.560   2.956  21.126  0.00  0.00    +0.000 A 
ATOM      2  C   UNL     1       2.856   2.459  21.081  0.00  0.00    +0.000 A 
ATOM      3  C   UNL     1       3.835   3.123  20.335  0.00  0.00    +0.000 A 
ATOM      4  C   UNL     1       3.552   4.305  19.615  0.00  0.00    +0.000 A 
ATOM      5  C   UNL     1       4.553   5.028  18.895  0.00  0.00    +0.000 A 
ATOM      6  C   UNL     1       4.123   6.162  18.168  0.00  0.00    +0.000 A 
ATOM      7  C   UNL     1       2.800   6.596  18.169  0.00  0.00    +0.000 A 
ATOM      8  C   UNL     1       1.852   5.912  18.914  0.00  0.00    +0.000 A 
ATOM      9  C   UNL     1       2.209   4.770  19.641  0.00  0.00    +0.000 A 
ATOM     10  C   UNL     1       1.237   4.100  20.402  0.00  0.00    +0.000 A 
ENDROOT
BRANCH   5  11
ATOM     11  C   UNL     1       6.104   4.649  18.927  0.00  0.00    +0.000 C 
ATOM     12  C   UNL     1       7.023   5.113  17.784  0.00  0.00    +0.000 C 
ATOM     13  C   UNL     1       7.943   5.594  18.901  0.00  0.00    +0.000 C 
ATOM     14  O   UNL     1       6.901   5.415  19.887  0.00  0.00    +0.000 OA
ENDBRANCH   5  11
TORSDOF 1
ENDMDL
MODEL 8
REMARK VINA RESULT:      -6.2      2.275      4.586
REMARK  Name = 
REMARK  1 active torsions:
REMARK  status: ('A' for Active; 'I' for Inactive)
REMARK    1  A    between atoms: C_5  and  C_6
REMARK                            x       y       z     vdW  Elec       q    Type
REMARK                         _______ _______ _______ _____ _____    ______ ____
ROOT
ATOM      1  C   UNL     1       7.066   5.944  17.110  0.00  0.00    +0.000 A 
ATOM      2  C   UNL     1       6.789   4.660  17.560  0.00  0.00    +0.000 A 
ATOM      3  C   UNL     1       5.497   4.329  17.980  0.00  0.00    +0.000 A 
ATOM      4  C   UNL     1       4.442   5.267  17.961  0.00  0.00    +0.000 A 
ATOM      5  C   UNL     1       3.103   4.930  18.331  0.00  0.00    +0.000 A 
ATOM      6  C   UNL     1       2.154   5.980  18.324  0.00  0.00    +0.000 A 
ATOM      7  C   UNL     1       2.477   7.278  17.940  0.00  0.00    +0.000 A 
ATOM      8  C   UNL     1       3.769   7.576  17.534  0.00  0.00    +0.000 A 
ATOM      9  C   UNL     1       4.759   6.587  17.537  0.00  0.00    +0.000 A 
ATOM     10  C   UNL     1       6.058   6.904  17.108  0.00  0.00    +0.000 A 
ENDROOT
BRANCH   5  11
ATOM     11  C   UNL     1       2.638   3.444  18.686  0.00  0.00    +0.000 C 
ATOM     12  C   UNL     1       1.573   3.222  19.774  0.00  0.00    +0.000 C 
ATOM     13  C   UNL     1       0.901   2.324  18.741  0.00  0.00    +0.000 C 
ATOM     14  O   UNL     1       1.761   2.824  17.692  0.00  0.00    +0.000 OA
ENDBRANCH   5  11
TORSDOF 1
ENDMDL
MODEL 9
REMARK VINA RESULT:      -6.2      2.223      4.749
REMARK  Name = 
REMARK  1 active torsions:
REMARK  status: ('A' for Active; 'I' for Inactive)
REMARK    1  A    between atoms: C_5  and  C_6
REMARK                            x       y       z     vdW  Elec       q    Type
REMARK                         _______ _______ _______ _____ _____    ______ ____
ROOT
ATOM      1  C   UNL     1       7.067   4.778  14.601  0.00  0.00    +0.000 A 
ATOM      2  C   UNL     1       5.840   4.178  14.349  0.00  0.00    +0.000 A 
ATOM      3  C   UNL     1       4.918   4.006  15.386  0.00  0.00    +0.000 A 
ATOM      4  C   UNL     1       5.190   4.432  16.705  0.00  0.00    +0.000 A 
ATOM      5  C   UNL     1       4.237   4.318  17.765  0.00  0.00    +0.000 A 
ATOM      6  C   UNL     1       4.659   4.728  19.051  0.00  0.00    +0.000 A 
ATOM      7  C   UNL     1       5.923   5.256  19.291  0.00  0.00    +0.000 A 
ATOM      8  C   UNL     1       6.818   5.408  18.242  0.00  0.00    +0.000 A 
ATOM      9  C   UNL     1       6.468   5.004  16.948  0.00  0.00    +0.000 A 
ATOM     10  C   UNL     1       7.382   5.179  15.896  0.00  0.00    +0.000 A 
ENDROOT
BRANCH   5  11
ATOM     11  C   UNL     1       2.737   3.814  17.545  0.00  0.00    +0.000 C 
ATOM     12  C   UNL     1       2.402   2.324  17.730  0.00  0.00    +0.000 C 
ATOM     13  C   UNL     1       1.252   2.830  18.595  0.00  0.00    +0.000 C 
ATOM     14  O   UNL     1       1.811   4.163  18.624  0.00  0.00    +0.000 OA
ENDBRANCH   5  11
TORSDOF 1
ENDMDL
