MODEL 1
REMARK VINA RESULT:      -7.3      0.000      0.000
REMARK  Name = 
REMARK  8 active torsions:
REMARK  status: ('A' for Active; 'I' for Inactive)
REMARK    1  A    between atoms: C_1  and  C_2
REMARK    2  A    between atoms: C_6  and  O_7
REMARK    3  A    between atoms: O_7  and  C_8
REMARK    4  A    between atoms: C_8  and  C_9
REMARK    5  A    between atoms: N_11  and  C_12
REMARK    6  A    between atoms: N_11  and  C_13
REMARK    7  A    between atoms: C_13  and  C_14
REMARK    8  A    between atoms: C_14  and  C_15
REMARK                            x       y       z     vdW  Elec       q    Type
REMARK                         _______ _______ _______ _____ _____    ______ ____
ROOT
ATOM      1  C   UNL     1       5.529   6.272  16.805  0.00  0.00    +0.000 C 
ATOM      2  O   UNL     1       5.030   7.016  15.958  0.00  0.00    +0.000 OA
ATOM      3  N   UNL     1       4.862   5.903  17.975  0.00  0.00    +0.000 N 
ATOM      4  C   UNL     1       5.551   5.357  19.141  0.00  0.00    +0.000 C 
ENDROOT
BRANCH   1   5
ATOM      5  C   UNL     1       6.917   5.704  16.541  0.00  0.00    +0.000 C 
BRANCH   5   6
ATOM      6  O   UNL     1       6.751   4.414  15.964  0.00  0.00    +0.000 OA
BRANCH   6  12
ATOM      7  C   UNL     1       5.220   2.594  11.615  0.00  0.00    +0.000 C 
ATOM      8  C   UNL     1       6.088   3.512  12.422  0.00  0.00    +0.000 A 
ATOM      9  C   UNL     1       7.037   4.340  11.816  0.00  0.00    +0.000 A 
ATOM     10  C   UNL     1       7.838   5.178  12.593  0.00  0.00    +0.000 A 
ATOM     11  C   UNL     1       7.701   5.183  13.980  0.00  0.00    +0.000 A 
ATOM     12  C   UNL     1       6.764   4.356  14.600  0.00  0.00    +0.000 A 
ATOM     13  C   UNL     1       5.953   3.532  13.817  0.00  0.00    +0.000 A 
ENDBRANCH   6  12
ENDBRANCH   5   6
ENDBRANCH   1   5
BRANCH   3  14
ATOM     14  C   UNL     1       3.510   6.434  18.248  0.00  0.00    +0.000 C 
BRANCH  14  15
ATOM     15  C   UNL     1       2.341   5.498  17.920  0.00  0.00    +0.000 C 
BRANCH  15  16
ATOM     16  C   UNL     1       2.125   4.441  18.971  0.00  0.00    +0.000 A 
ATOM     17  C   UNL     1       2.050   4.802  20.319  0.00  0.00    +0.000 A 
ATOM     18  C   UNL     1       1.782   3.822  21.268  0.00  0.00    +0.000 A 
ATOM     19  C   UNL     1       1.591   2.511  20.853  0.00  0.00    +0.000 A 
ATOM     20  C   UNL     1       1.684   2.236  19.495  0.00  0.00    +0.000 A 
ATOM     21  N   UNL     1       1.945   3.166  18.550  0.00  0.00    +0.000 NA
ENDBRANCH  15  16
ENDBRANCH  14  15
ENDBRANCH   3  14
TORSDOF 6
ENDMDL
MODEL 2
REMARK VINA RESULT:      -7.1      4.380      7.963
REMARK  Name = 
REMARK  8 active torsions:
REMARK  status: ('A' for Active; 'I' for Inactive)
REMARK    1  A    between atoms: C_1  and  C_2
REMARK    2  A    between atoms: C_6  and  O_7
REMARK    3  A    between atoms: O_7  and  C_8
REMARK    4  A    between atoms: C_8  and  C_9
REMARK    5  A    between atoms: N_11  and  C_12
REMARK    6  A    between atoms: N_11  and  C_13
REMARK    7  A    between atoms: C_13  and  C_14
REMARK    8  A    between atoms: C_14  and  C_15
REMARK                            x       y       z     vdW  Elec       q    Type
REMARK                         _______ _______ _______ _____ _____    ______ ____
ROOT
ATOM      1  C   UNL     1       7.582   5.662  18.576  0.00  0.00    +0.000 C 
ATOM      2  O   UNL     1       8.203   5.342  19.591  0.00  0.00    +0.000 OA
ATOM      3  N   UNL     1       7.659   6.938  18.014  0.00  0.00    +0.000 N 
ATOM      4  C   UNL     1       6.670   7.449  17.069  0.00  0.00    +0.000 C 
ENDROOT
BRANCH   1   5
ATOM      5  C   UNL     1       6.725   4.608  17.888  0.00  0.00    +0.000 C 
BRANCH   5   6
ATOM      6  O   UNL     1       5.939   3.975  18.890  0.00  0.00    +0.000 OA
BRANCH   6  12
ATOM      7  C   UNL     1       1.461   5.377  20.490  0.00  0.00    +0.000 C 
ATOM      8  C   UNL     1       2.347   4.728  19.469  0.00  0.00    +0.000 A 
ATOM      9  C   UNL     1       1.822   4.128  18.321  0.00  0.00    +0.000 A 
ATOM     10  C   UNL     1       2.669   3.524  17.392  0.00  0.00    +0.000 A 
ATOM     11  C   UNL     1       4.046   3.506  17.614  0.00  0.00    +0.000 A 
ATOM     12  C   UNL     1       4.584   4.093  18.759  0.00  0.00    +0.000 A 
ATOM     13  C   UNL     1       3.734   4.712  19.677  0.00  0.00    +0.000 A 
ENDBRANCH   6  12
ENDBRANCH   5   6
ENDBRANCH   1   5
BRANCH   3  14
ATOM     14  C   UNL     1       8.493   7.975  18.658  0.00  0.00    +0.000 C 
BRANCH  14  15
ATOM     15  C   UNL     1       8.319   9.404  18.128  0.00  0.00    +0.000 C 
BRANCH  15  16
ATOM     16  C   UNL     1       9.287  10.379  18.748  0.00  0.00    +0.000 A 
ATOM     17  C   UNL     1      10.162  11.104  17.935  0.00  0.00    +0.000 A 
ATOM     18  C   UNL     1      11.000  12.049  18.518  0.00  0.00    +0.000 A 
ATOM     19  C   UNL     1      10.943  12.250  19.890  0.00  0.00    +0.000 A 
ATOM     20  C   UNL     1      10.046  11.486  20.626  0.00  0.00    +0.000 A 
ATOM     21  N   UNL     1       9.222  10.561  20.088  0.00  0.00    +0.000 NA
ENDBRANCH  15  16
ENDBRANCH  14  15
ENDBRANCH   3  14
TORSDOF 6
ENDMDL
MODEL 3
REMARK VINA RESULT:      -6.9      1.784      7.344
REMARK  Name = 
REMARK  8 active torsions:
REMARK  status: ('A' for Active; 'I' for Inactive)
REMARK    1  A    between atoms: C_1  and  C_2
REMARK    2  A    between atoms: C_6  and  O_7
REMARK    3  A    between atoms: O_7  and  C_8
REMARK    4  A    between atoms: C_8  and  C_9
REMARK    5  A    between atoms: N_11  and  C_12
REMARK    6  A    between atoms: N_11  and  C_13
REMARK    7  A    between atoms: C_13  and  C_14
REMARK    8  A    between atoms: C_14  and  C_15
REMARK                            x       y       z     vdW  Elec       q    Type
REMARK                         _______ _______ _______ _____ _____    ______ ____
ROOT
ATOM      1  C   UNL     1       5.542   5.144  18.704  0.00  0.00    +0.000 C 
ATOM      2  O   UNL     1       5.658   3.955  19.009  0.00  0.00    +0.000 OA
ATOM      3  N   UNL     1       6.170   5.704  17.590  0.00  0.00    +0.000 N 
ATOM      4  C   UNL     1       6.361   7.143  17.427  0.00  0.00    +0.000 C 
ENDROOT
BRANCH   1   5
ATOM      5  C   UNL     1       4.644   6.026  19.561  0.00  0.00    +0.000 C 
BRANCH   5   6
ATOM      6  O   UNL     1       3.366   6.071  18.938  0.00  0.00    +0.000 OA
BRANCH   6  12
ATOM      7  C   UNL     1       1.427   2.539  21.826  0.00  0.00    +0.000 C 
ATOM      8  C   UNL     1       1.553   3.230  20.501  0.00  0.00    +0.000 A 
ATOM      9  C   UNL     1       0.871   2.772  19.370  0.00  0.00    +0.000 A 
ATOM     10  C   UNL     1       1.015   3.429  18.148  0.00  0.00    +0.000 A 
ATOM     11  C   UNL     1       1.850   4.541  18.048  0.00  0.00    +0.000 A 
ATOM     12  C   UNL     1       2.544   5.004  19.167  0.00  0.00    +0.000 A 
ATOM     13  C   UNL     1       2.384   4.354  20.391  0.00  0.00    +0.000 A 
ENDBRANCH   6  12
ENDBRANCH   5   6
ENDBRANCH   1   5
BRANCH   3  14
ATOM     14  C   UNL     1       7.039   4.865  16.738  0.00  0.00    +0.000 C 
BRANCH  14  15
ATOM     15  C   UNL     1       6.320   3.945  15.743  0.00  0.00    +0.000 C 
BRANCH  15  16
ATOM     16  C   UNL     1       6.733   4.190  14.315  0.00  0.00    +0.000 A 
ATOM     17  C   UNL     1       6.166   3.434  13.286  0.00  0.00    +0.000 A 
ATOM     18  C   UNL     1       6.509   3.722  11.969  0.00  0.00    +0.000 A 
ATOM     19  C   UNL     1       7.401   4.753  11.710  0.00  0.00    +0.000 A 
ATOM     20  C   UNL     1       7.920   5.454  12.791  0.00  0.00    +0.000 A 
ATOM     21  N   UNL     1       7.608   5.197  14.080  0.00  0.00    +0.000 NA
ENDBRANCH  15  16
ENDBRANCH  14  15
ENDBRANCH   3  14
TORSDOF 6
ENDMDL
MODEL 4
REMARK VINA RESULT:      -6.8      5.234      7.956
REMARK  Name = 
REMARK  8 active torsions:
REMARK  status: ('A' for Active; 'I' for Inactive)
REMARK    1  A    between atoms: C_1  and  C_2
REMARK    2  A    between atoms: C_6  and  O_7
REMARK    3  A    between atoms: O_7  and  C_8
REMARK    4  A    between atoms: C_8  and  C_9
REMARK    5  A    between atoms: N_11  and  C_12
REMARK    6  A    between atoms: N_11  and  C_13
REMARK    7  A    between atoms: C_13  and  C_14
REMARK    8  A    between atoms: C_14  and  C_15
REMARK                            x       y       z     vdW  Elec       q    Type
REMARK                         _______ _______ _______ _____ _____    ______ ____
ROOT
ATOM      1  C   UNL     1       1.650   8.697  18.929  0.00  0.00    +0.000 C 
ATOM      2  O   UNL     1       1.972   8.752  17.740  0.00  0.00    +0.000 OA
ATOM      3  N   UNL     1       0.758   9.598  19.513  0.00  0.00    +0.000 N 
ATOM      4  C   UNL     1       0.659   9.792  20.957  0.00  0.00    +0.000 C 
ENDROOT
BRANCH   1   5
ATOM      5  C   UNL     1       2.224   7.575  19.783  0.00  0.00    +0.000 C 
BRANCH   5   6
ATOM      6  O   UNL     1       2.712   6.571  18.901  0.00  0.00    +0.000 OA
BRANCH   6  12
ATOM      7  C   UNL     1       1.488   2.666  21.700  0.00  0.00    +0.000 C 
ATOM      8  C   UNL     1       1.593   3.346  20.367  0.00  0.00    +0.000 A 
ATOM      9  C   UNL     1       1.234   2.694  19.184  0.00  0.00    +0.000 A 
ATOM     10  C   UNL     1       1.350   3.348  17.957  0.00  0.00    +0.000 A 
ATOM     11  C   UNL     1       1.837   4.653  17.907  0.00  0.00    +0.000 A 
ATOM     12  C   UNL     1       2.208   5.314  19.079  0.00  0.00    +0.000 A 
ATOM     13  C   UNL     1       2.073   4.661  20.306  0.00  0.00    +0.000 A 
ENDBRANCH   6  12
ENDBRANCH   5   6
ENDBRANCH   1   5
BRANCH   3  14
ATOM     14  C   UNL     1       0.180  10.690  18.701  0.00  0.00    +0.000 C 
BRANCH  14  15
ATOM     15  C   UNL     1      -1.262  11.088  19.037  0.00  0.00    +0.000 C 
BRANCH  15  16
ATOM     16  C   UNL     1      -2.198  10.940  17.865  0.00  0.00    +0.000 A 
ATOM     17  C   UNL     1      -1.882  10.060  16.826  0.00  0.00    +0.000 A 
ATOM     18  C   UNL     1      -2.790   9.886  15.788  0.00  0.00    +0.000 A 
ATOM     19  C   UNL     1      -3.988  10.588  15.809  0.00  0.00    +0.000 A 
ATOM     20  C   UNL     1      -4.223  11.444  16.877  0.00  0.00    +0.000 A 
ATOM     21  N   UNL     1      -3.361  11.635  17.899  0.00  0.00    +0.000 NA
ENDBRANCH  15  16
ENDBRANCH  14  15
ENDBRANCH   3  14
TORSDOF 6
ENDMDL
MODEL 5
REMARK VINA RESULT:      -6.7      1.654      7.113
REMARK  Name = 
REMARK  8 active torsions:
REMARK  status: ('A' for Active; 'I' for Inactive)
REMARK    1  A    between atoms: C_1  and  C_2
REMARK    2  A    between atoms: C_6  and  O_7
REMARK    3  A    between atoms: O_7  and  C_8
REMARK    4  A    between atoms: C_8  and  C_9
REMARK    5  A    between atoms: N_11  and  C_12
REMARK    6  A    between atoms: N_11  and  C_13
REMARK    7  A    between atoms: C_13  and  C_14
REMARK    8  A    between atoms: C_14  and  C_15
REMARK                            x       y       z     vdW  Elec       q    Type
REMARK                         _______ _______ _______ _____ _____    ______ ____
ROOT
ATOM      1  C   UNL     1       4.495   6.433  17.732  0.00  0.00    +0.000 C 
ATOM      2  O   UNL     1       4.311   7.079  16.699  0.00  0.00    +0.000 OA
ATOM      3  N   UNL     1       5.493   5.464  17.851  0.00  0.00    +0.000 N 
ATOM      4  C   UNL     1       5.487   4.443  18.894  0.00  0.00    +0.000 C 
ENDROOT
BRANCH   1   5
ATOM      5  C   UNL     1       3.617   6.733  18.940  0.00  0.00    +0.000 C 
BRANCH   5   6
ATOM      6  O   UNL     1       2.293   6.323  18.620  0.00  0.00    +0.000 OA
BRANCH   6  12
ATOM      7  C   UNL     1       1.366   2.652  21.820  0.00  0.00    +0.000 C 
ATOM      8  C   UNL     1       1.519   3.167  20.420  0.00  0.00    +0.000 A 
ATOM      9  C   UNL     1       1.404   2.320  19.314  0.00  0.00    +0.000 A 
ATOM     10  C   UNL     1       1.560   2.824  18.023  0.00  0.00    +0.000 A 
ATOM     11  C   UNL     1       1.844   4.176  17.832  0.00  0.00    +0.000 A 
ATOM     12  C   UNL     1       1.970   5.032  18.928  0.00  0.00    +0.000 A 
ATOM     13  C   UNL     1       1.796   4.526  20.217  0.00  0.00    +0.000 A 
ENDBRANCH   6  12
ENDBRANCH   5   6
ENDBRANCH   1   5
BRANCH   3  14
ATOM     14  C   UNL     1       6.364   5.162  16.695  0.00  0.00    +0.000 C 
BRANCH  14  15
ATOM     15  C   UNL     1       5.885   4.041  15.765  0.00  0.00    +0.000 C 
BRANCH  15  16
ATOM     16  C   UNL     1       6.373   4.207  14.349  0.00  0.00    +0.000 A 
ATOM     17  C   UNL     1       7.357   5.155  14.057  0.00  0.00    +0.000 A 
ATOM     18  C   UNL     1       7.844   5.246  12.758  0.00  0.00    +0.000 A 
ATOM     19  C   UNL     1       7.344   4.391  11.785  0.00  0.00    +0.000 A 
ATOM     20  C   UNL     1       6.366   3.478  12.158  0.00  0.00    +0.000 A 
ATOM     21  N   UNL     1       5.872   3.368  13.411  0.00  0.00    +0.000 NA
ENDBRANCH  15  16
ENDBRANCH  14  15
ENDBRANCH   3  14
TORSDOF 6
ENDMDL
MODEL 6
REMARK VINA RESULT:      -6.7      5.076      8.194
REMARK  Name = 
REMARK  8 active torsions:
REMARK  status: ('A' for Active; 'I' for Inactive)
REMARK    1  A    between atoms: C_1  and  C_2
REMARK    2  A    between atoms: C_6  and  O_7
REMARK    3  A    between atoms: O_7  and  C_8
REMARK    4  A    between atoms: C_8  and  C_9
REMARK    5  A    between atoms: N_11  and  C_12
REMARK    6  A    between atoms: N_11  and  C_13
REMARK    7  A    between atoms: C_13  and  C_14
REMARK    8  A    between atoms: C_14  and  C_15
REMARK                            x       y       z     vdW  Elec       q    Type
REMARK                         _______ _______ _______ _____ _____    ______ ____
ROOT
ATOM      1  C   UNL     1       7.725   8.145  17.756  0.00  0.00    +0.000 C 
ATOM      2  O   UNL     1       7.132   8.896  16.978  0.00  0.00    +0.000 OA
ATOM      3  N   UNL     1       7.502   6.767  17.794  0.00  0.00    +0.000 N 
ATOM      4  C   UNL     1       7.888   5.933  18.928  0.00  0.00    +0.000 C 
ENDROOT
BRANCH   1   5
ATOM      5  C   UNL     1       8.770   8.746  18.687  0.00  0.00    +0.000 C 
BRANCH   5   6
ATOM      6  O   UNL     1       8.474  10.129  18.828  0.00  0.00    +0.000 OA
BRANCH   6  12
ATOM      7  C   UNL     1      12.014  13.021  16.910  0.00  0.00    +0.000 C 
ATOM      8  C   UNL     1      11.325  12.392  18.084  0.00  0.00    +0.000 A 
ATOM      9  C   UNL     1      11.789  12.577  19.389  0.00  0.00    +0.000 A 
ATOM     10  C   UNL     1      11.133  11.972  20.462  0.00  0.00    +0.000 A 
ATOM     11  C   UNL     1      10.016  11.170  20.232  0.00  0.00    +0.000 A 
ATOM     12  C   UNL     1       9.546  10.969  18.934  0.00  0.00    +0.000 A 
ATOM     13  C   UNL     1      10.195  11.591  17.866  0.00  0.00    +0.000 A 
ENDBRANCH   6  12
ENDBRANCH   5   6
ENDBRANCH   1   5
BRANCH   3  14
ATOM     14  C   UNL     1       6.500   6.161  16.893  0.00  0.00    +0.000 C 
BRANCH  14  15
ATOM     15  C   UNL     1       6.787   4.726  16.434  0.00  0.00    +0.000 C 
BRANCH  15  16
ATOM     16  C   UNL     1       6.959   4.611  14.942  0.00  0.00    +0.000 A 
ATOM     17  C   UNL     1       6.161   3.725  14.214  0.00  0.00    +0.000 A 
ATOM     18  C   UNL     1       6.286   3.683  12.830  0.00  0.00    +0.000 A 
ATOM     19  C   UNL     1       7.196   4.525  12.205  0.00  0.00    +0.000 A 
ATOM     20  C   UNL     1       7.952   5.375  13.002  0.00  0.00    +0.000 A 
ATOM     21  N   UNL     1       7.854   5.437  14.348  0.00  0.00    +0.000 NA
ENDBRANCH  15  16
ENDBRANCH  14  15
ENDBRANCH   3  14
TORSDOF 6
ENDMDL
MODEL 7
REMARK VINA RESULT:      -6.7      4.265      8.152
REMARK  Name = 
REMARK  8 active torsions:
REMARK  status: ('A' for Active; 'I' for Inactive)
REMARK    1  A    between atoms: C_1  and  C_2
REMARK    2  A    between atoms: C_6  and  O_7
REMARK    3  A    between atoms: O_7  and  C_8
REMARK    4  A    between atoms: C_8  and  C_9
REMARK    5  A    between atoms: N_11  and  C_12
REMARK    6  A    between atoms: N_11  and  C_13
REMARK    7  A    between atoms: C_13  and  C_14
REMARK    8  A    between atoms: C_14  and  C_15
REMARK                            x       y       z     vdW  Elec       q    Type
REMARK                         _______ _______ _______ _____ _____    ______ ____
ROOT
ATOM      1  C   UNL     1       7.321   5.604  18.696  0.00  0.00    +0.000 C 
ATOM      2  O   UNL     1       7.997   5.292  19.678  0.00  0.00    +0.000 OA
ATOM      3  N   UNL     1       7.437   6.841  18.059  0.00  0.00    +0.000 N 
ATOM      4  C   UNL     1       6.412   7.371  17.165  0.00  0.00    +0.000 C 
ENDROOT
BRANCH   1   5
ATOM      5  C   UNL     1       6.345   4.578  18.135  0.00  0.00    +0.000 C 
BRANCH   5   6
ATOM      6  O   UNL     1       5.712   3.940  19.237  0.00  0.00    +0.000 OA
BRANCH   6  12
ATOM      7  C   UNL     1       2.138   7.334  19.777  0.00  0.00    +0.000 C 
ATOM      8  C   UNL     1       2.614   5.911  19.801  0.00  0.00    +0.000 A 
ATOM      9  C   UNL     1       1.764   4.863  20.165  0.00  0.00    +0.000 A 
ATOM     10  C   UNL     1       2.236   3.551  20.187  0.00  0.00    +0.000 A 
ATOM     11  C   UNL     1       3.564   3.282  19.855  0.00  0.00    +0.000 A 
ATOM     12  C   UNL     1       4.425   4.319  19.497  0.00  0.00    +0.000 A 
ATOM     13  C   UNL     1       3.944   5.629  19.460  0.00  0.00    +0.000 A 
ENDBRANCH   6  12
ENDBRANCH   5   6
ENDBRANCH   1   5
BRANCH   3  14
ATOM     14  C   UNL     1       8.385   7.848  18.580  0.00  0.00    +0.000 C 
BRANCH  14  15
ATOM     15  C   UNL     1       8.344   9.225  17.905  0.00  0.00    +0.000 C 
BRANCH  15  16
ATOM     16  C   UNL     1       9.136  10.266  18.651  0.00  0.00    +0.000 A 
ATOM     17  C   UNL     1       9.851  11.237  17.944  0.00  0.00    +0.000 A 
ATOM     18  C   UNL     1      10.521  12.231  18.650  0.00  0.00    +0.000 A 
ATOM     19  C   UNL     1      10.459  12.236  20.037  0.00  0.00    +0.000 A 
ATOM     20  C   UNL     1       9.728  11.234  20.662  0.00  0.00    +0.000 A 
ATOM     21  N   UNL     1       9.069  10.256  20.004  0.00  0.00    +0.000 NA
ENDBRANCH  15  16
ENDBRANCH  14  15
ENDBRANCH   3  14
TORSDOF 6
ENDMDL
MODEL 8
REMARK VINA RESULT:      -6.7      4.058      7.917
REMARK  Name = 
REMARK  8 active torsions:
REMARK  status: ('A' for Active; 'I' for Inactive)
REMARK    1  A    between atoms: C_1  and  C_2
REMARK    2  A    between atoms: C_6  and  O_7
REMARK    3  A    between atoms: O_7  and  C_8
REMARK    4  A    between atoms: C_8  and  C_9
REMARK    5  A    between atoms: N_11  and  C_12
REMARK    6  A    between atoms: N_11  and  C_13
REMARK    7  A    between atoms: C_13  and  C_14
REMARK    8  A    between atoms: C_14  and  C_15
REMARK                            x       y       z     vdW  Elec       q    Type
REMARK                         _______ _______ _______ _____ _____    ______ ____
ROOT
ATOM      1  C   UNL     1       6.382   6.414  17.004  0.00  0.00    +0.000 C 
ATOM      2  O   UNL     1       5.984   6.947  15.966  0.00  0.00    +0.000 OA
ATOM      3  N   UNL     1       7.256   7.046  17.891  0.00  0.00    +0.000 N 
ATOM      4  C   UNL     1       8.025   6.319  18.897  0.00  0.00    +0.000 C 
ENDROOT
BRANCH   1   5
ATOM      5  C   UNL     1       5.868   5.022  17.346  0.00  0.00    +0.000 C 
BRANCH   5   6
ATOM      6  O   UNL     1       4.602   4.865  16.715  0.00  0.00    +0.000 OA
BRANCH   6  12
ATOM      7  C   UNL     1       1.754   5.803  20.663  0.00  0.00    +0.000 C 
ATOM      8  C   UNL     1       2.103   4.976  19.462  0.00  0.00    +0.000 A 
ATOM      9  C   UNL     1       1.390   3.817  19.141  0.00  0.00    +0.000 A 
ATOM     10  C   UNL     1       1.743   3.062  18.022  0.00  0.00    +0.000 A 
ATOM     11  C   UNL     1       2.818   3.455  17.226  0.00  0.00    +0.000 A 
ATOM     12  C   UNL     1       3.545   4.605  17.540  0.00  0.00    +0.000 A 
ATOM     13  C   UNL     1       3.177   5.367  18.650  0.00  0.00    +0.000 A 
ENDBRANCH   6  12
ENDBRANCH   5   6
ENDBRANCH   1   5
BRANCH   3  14
ATOM     14  C   UNL     1       7.760   8.401  17.585  0.00  0.00    +0.000 C 
BRANCH  14  15
ATOM     15  C   UNL     1       8.679   9.031  18.638  0.00  0.00    +0.000 C 
BRANCH  15  16
ATOM     16  C   UNL     1       9.033  10.462  18.326  0.00  0.00    +0.000 A 
ATOM     17  C   UNL     1      10.336  10.920  18.534  0.00  0.00    +0.000 A 
ATOM     18  C   UNL     1      10.660  12.224  18.175  0.00  0.00    +0.000 A 
ATOM     19  C   UNL     1       9.683  13.036  17.616  0.00  0.00    +0.000 A 
ATOM     20  C   UNL     1       8.412  12.503  17.444  0.00  0.00    +0.000 A 
ATOM     21  N   UNL     1       8.067  11.243  17.784  0.00  0.00    +0.000 NA
ENDBRANCH  15  16
ENDBRANCH  14  15
ENDBRANCH   3  14
TORSDOF 6
ENDMDL
MODEL 9
REMARK VINA RESULT:      -6.7      4.823      6.784
REMARK  Name = 
REMARK  8 active torsions:
REMARK  status: ('A' for Active; 'I' for Inactive)
REMARK    1  A    between atoms: C_1  and  C_2
REMARK    2  A    between atoms: C_6  and  O_7
REMARK    3  A    between atoms: O_7  and  C_8
REMARK    4  A    between atoms: C_8  and  C_9
REMARK    5  A    between atoms: N_11  and  C_12
REMARK    6  A    between atoms: N_11  and  C_13
REMARK    7  A    between atoms: C_13  and  C_14
REMARK    8  A    between atoms: C_14  and  C_15
REMARK                            x       y       z     vdW  Elec       q    Type
REMARK                         _______ _______ _______ _____ _____    ______ ____
ROOT
ATOM      1  C   UNL     1       7.705   7.284  17.815  0.00  0.00    +0.000 C 
ATOM      2  O   UNL     1       7.221   7.611  16.730  0.00  0.00    +0.000 OA
ATOM      3  N   UNL     1       7.624   5.984  18.318  0.00  0.00    +0.000 N 
ATOM      4  C   UNL     1       7.839   5.665  19.727  0.00  0.00    +0.000 C 
ENDROOT
BRANCH   1   5
ATOM      5  C   UNL     1       8.453   8.338  18.621  0.00  0.00    +0.000 C 
BRANCH   5   6
ATOM      6  O   UNL     1       8.426   9.548  17.874  0.00  0.00    +0.000 OA
BRANCH   6  12
ATOM      7  C   UNL     1       9.678  14.343  18.013  0.00  0.00    +0.000 C 
ATOM      8  C   UNL     1       9.631  12.979  18.635  0.00  0.00    +0.000 A 
ATOM      9  C   UNL     1      10.210  12.724  19.881  0.00  0.00    +0.000 A 
ATOM     10  C   UNL     1      10.159  11.443  20.432  0.00  0.00    +0.000 A 
ATOM     11  C   UNL     1       9.539  10.408  19.733  0.00  0.00    +0.000 A 
ATOM     12  C   UNL     1       8.965  10.646  18.483  0.00  0.00    +0.000 A 
ATOM     13  C   UNL     1       9.003  11.933  17.944  0.00  0.00    +0.000 A 
ENDBRANCH   6  12
ENDBRANCH   5   6
ENDBRANCH   1   5
BRANCH   3  14
ATOM     14  C   UNL     1       6.912   4.942  17.549  0.00  0.00    +0.000 C 
BRANCH  14  15
ATOM     15  C   UNL     1       5.398   5.133  17.397  0.00  0.00    +0.000 C 
BRANCH  15  16
ATOM     16  C   UNL     1       4.603   4.005  18.000  0.00  0.00    +0.000 A 
ATOM     17  C   UNL     1       3.516   3.468  17.305  0.00  0.00    +0.000 A 
ATOM     18  C   UNL     1       2.837   2.382  17.846  0.00  0.00    +0.000 A 
ATOM     19  C   UNL     1       3.256   1.858  19.061  0.00  0.00    +0.000 A 
ATOM     20  C   UNL     1       4.343   2.452  19.689  0.00  0.00    +0.000 A 
ATOM     21  N   UNL     1       5.022   3.507  19.188  0.00  0.00    +0.000 NA
ENDBRANCH  15  16
ENDBRANCH  14  15
ENDBRANCH   3  14
TORSDOF 6
ENDMDL
