MODEL 1
REMARK VINA RESULT:      -7.5      0.000      0.000
REMARK  Name = 
REMARK  16 active torsions:
REMARK  status: ('A' for Active; 'I' for Inactive)
REMARK    1  A    between atoms: C_1  and  N_2
REMARK    2  A    between atoms: C_3  and  C_5
REMARK    3  A    between atoms: C_5  and  C_6
REMARK    4  A    between atoms: C_5  and  N_15
REMARK    5  A    between atoms: C_6  and  C_7
REMARK    6  A    between atoms: C_10  and  O_11
REMARK    7  A    between atoms: O_11  and  C_12
REMARK    8  A    between atoms: N_15  and  S_16
REMARK    9  A    between atoms: S_16  and  C_19
REMARK   10  A    between atoms: C_19  and  C_20
REMARK   11  A    between atoms: C_19  and  C_25
REMARK   12  A    between atoms: C_20  and  C_21
REMARK   13  A    between atoms: N_23  and  O_24
REMARK   14  A    between atoms: C_25  and  C_26
REMARK   15  A    between atoms: C_26  and  C_27
REMARK   16  A    between atoms: C_26  and  C_28
REMARK                            x       y       z     vdW  Elec       q    Type
REMARK                         _______ _______ _______ _____ _____    ______ ____
ROOT
ATOM      1  N   UNL     1       3.856   5.263  18.336  0.00  0.00    +0.000 NA
ATOM      2  H   UNL     1       4.321   6.154  18.499  0.00  0.00    +0.000 HD
ENDROOT
BRANCH   1   3
ATOM      3  S   UNL     1       5.028   4.119  17.852  0.00  0.00    +0.000 S 
ATOM      4  O   UNL     1       5.764   3.795  19.048  0.00  0.00    +0.000 OA
ATOM      5  O   UNL     1       4.313   3.129  17.094  0.00  0.00    +0.000 OA
BRANCH   3   6
ATOM      6  C   UNL     1       6.124   5.072  16.721  0.00  0.00    +0.000 C 
BRANCH   6   7
ATOM      7  C   UNL     1       5.487   5.062  15.317  0.00  0.00    +0.000 C 
BRANCH   7   8
ATOM      8  C   UNL     1       6.374   4.680  14.153  0.00  0.00    +0.000 C 
ATOM      9  O   UNL     1       7.372   5.295  13.802  0.00  0.00    +0.000 OA
ATOM     10  N   UNL     1       5.950   3.521  13.543  0.00  0.00    +0.000 N 
ATOM     11  H   UNL     1       5.188   2.937  13.869  0.00  0.00    +0.000 HD
BRANCH  10  12
ATOM     12  O   UNL     1       6.714   3.012  12.477  0.00  0.00    +0.000 OA
ATOM     13  H   UNL     1       7.453   3.655  12.404  0.00  0.00    +0.000 HD
ENDBRANCH  10  12
ENDBRANCH   7   8
ENDBRANCH   6   7
BRANCH   6  14
ATOM     14  C   UNL     1       6.264   6.538  17.217  0.00  0.00    +0.000 C 
BRANCH  14  15
ATOM     15  C   UNL     1       7.654   7.082  17.617  0.00  0.00    +0.000 C 
ATOM     16  C   UNL     1       7.722   8.605  17.738  0.00  0.00    +0.000 C 
ATOM     17  C   UNL     1       8.062   6.452  18.957  0.00  0.00    +0.000 C 
ENDBRANCH  14  15
ENDBRANCH   6  14
ENDBRANCH   3   6
ENDBRANCH   1   3
BRANCH   1  18
ATOM     18  C   UNL     1       3.114   4.959  19.619  0.00  0.00    +0.000 C 
BRANCH  18  21
ATOM     19  C   UNL     1       0.555   2.290  18.717  0.00  0.00    +0.000 C 
ATOM     20  N   UNL     1       1.764   3.065  18.815  0.00  0.00    +0.000 N 
ATOM     21  C   UNL     1       1.832   4.143  19.661  0.00  0.00    +0.000 C 
ATOM     22  O   UNL     1       0.877   4.503  20.354  0.00  0.00    +0.000 OA
ATOM     23  H   UNL     1       2.641   2.568  18.676  0.00  0.00    +0.000 HD
ENDBRANCH  18  21
BRANCH  18  24
ATOM     24  C   UNL     1       2.865   6.286  20.399  0.00  0.00    +0.000 C 
BRANCH  24  25
ATOM     25  C   UNL     1       2.187   7.479  19.741  0.00  0.00    +0.000 A 
ATOM     26  C   UNL     1       1.394   8.305  20.553  0.00  0.00    +0.000 A 
ATOM     27  C   UNL     1       0.654   9.359  20.014  0.00  0.00    +0.000 A 
ATOM     28  C   UNL     1       0.792   9.707  18.676  0.00  0.00    +0.000 A 
ATOM     29  C   UNL     1       1.656   8.969  17.868  0.00  0.00    +0.000 A 
ATOM     30  C   UNL     1       2.331   7.845  18.394  0.00  0.00    +0.000 A 
BRANCH  28  31
ATOM     31  O   UNL     1      -0.011  10.733  18.268  0.00  0.00    +0.000 OA
ATOM     32  C   UNL     1       0.239  12.002  18.854  0.00  0.00    +0.000 C 
ENDBRANCH  28  31
ENDBRANCH  24  25
ENDBRANCH  18  24
ENDBRANCH   1  18
TORSDOF 12
ENDMDL
MODEL 2
REMARK VINA RESULT:      -7.3      2.333      3.631
REMARK  Name = 
REMARK  16 active torsions:
REMARK  status: ('A' for Active; 'I' for Inactive)
REMARK    1  A    between atoms: C_1  and  N_2
REMARK    2  A    between atoms: C_3  and  C_5
REMARK    3  A    between atoms: C_5  and  C_6
REMARK    4  A    between atoms: C_5  and  N_15
REMARK    5  A    between atoms: C_6  and  C_7
REMARK    6  A    between atoms: C_10  and  O_11
REMARK    7  A    between atoms: O_11  and  C_12
REMARK    8  A    between atoms: N_15  and  S_16
REMARK    9  A    between atoms: S_16  and  C_19
REMARK   10  A    between atoms: C_19  and  C_20
REMARK   11  A    between atoms: C_19  and  C_25
REMARK   12  A    between atoms: C_20  and  C_21
REMARK   13  A    between atoms: N_23  and  O_24
REMARK   14  A    between atoms: C_25  and  C_26
REMARK   15  A    between atoms: C_26  and  C_27
REMARK   16  A    between atoms: C_26  and  C_28
REMARK                            x       y       z     vdW  Elec       q    Type
REMARK                         _______ _______ _______ _____ _____    ______ ____
ROOT
ATOM      1  N   UNL     1       4.487   5.863  18.547  0.00  0.00    +0.000 NA
ATOM      2  H   UNL     1       5.253   5.982  19.207  0.00  0.00    +0.000 HD
ENDROOT
BRANCH   1   3
ATOM      3  S   UNL     1       4.739   4.414  17.678  0.00  0.00    +0.000 S 
ATOM      4  O   UNL     1       5.257   3.475  18.641  0.00  0.00    +0.000 OA
ATOM      5  O   UNL     1       3.522   4.182  16.952  0.00  0.00    +0.000 OA
BRANCH   3   6
ATOM      6  C   UNL     1       6.079   4.846  16.492  0.00  0.00    +0.000 C 
BRANCH   6   7
ATOM      7  C   UNL     1       7.429   4.685  17.218  0.00  0.00    +0.000 C 
BRANCH   7   8
ATOM      8  C   UNL     1       7.695   5.591  18.400  0.00  0.00    +0.000 C 
ATOM      9  O   UNL     1       7.735   6.814  18.350  0.00  0.00    +0.000 OA
ATOM     10  N   UNL     1       7.855   4.880  19.567  0.00  0.00    +0.000 N 
ATOM     11  H   UNL     1       7.732   3.877  19.659  0.00  0.00    +0.000 HD
BRANCH  10  12
ATOM     12  O   UNL     1       8.053   5.596  20.761  0.00  0.00    +0.000 OA
ATOM     13  H   UNL     1       8.927   5.275  21.072  0.00  0.00    +0.000 HD
ENDBRANCH  10  12
ENDBRANCH   7   8
ENDBRANCH   6   7
BRANCH   6  14
ATOM     14  C   UNL     1       6.035   3.896  15.262  0.00  0.00    +0.000 C 
BRANCH  14  15
ATOM     15  C   UNL     1       6.176   4.479  13.838  0.00  0.00    +0.000 C 
ATOM     16  C   UNL     1       7.559   5.053  13.529  0.00  0.00    +0.000 C 
ATOM     17  C   UNL     1       5.849   3.377  12.820  0.00  0.00    +0.000 C 
ENDBRANCH  14  15
ENDBRANCH   6  14
ENDBRANCH   3   6
ENDBRANCH   1   3
BRANCH   1  18
ATOM     18  C   UNL     1       3.227   5.932  19.380  0.00  0.00    +0.000 C 
BRANCH  18  21
ATOM     19  C   UNL     1       2.329   2.660  21.104  0.00  0.00    +0.000 C 
ATOM     20  N   UNL     1       2.971   3.895  20.736  0.00  0.00    +0.000 N 
ATOM     21  C   UNL     1       2.423   4.703  19.772  0.00  0.00    +0.000 C 
ATOM     22  O   UNL     1       1.385   4.411  19.175  0.00  0.00    +0.000 OA
ATOM     23  H   UNL     1       3.485   4.382  21.468  0.00  0.00    +0.000 HD
ENDBRANCH  18  21
BRANCH  18  24
ATOM     24  C   UNL     1       2.245   6.967  18.749  0.00  0.00    +0.000 C 
BRANCH  24  25
ATOM     25  C   UNL     1       1.696   8.135  19.555  0.00  0.00    +0.000 A 
ATOM     26  C   UNL     1       1.570   7.965  20.943  0.00  0.00    +0.000 A 
ATOM     27  C   UNL     1       0.980   8.945  21.744  0.00  0.00    +0.000 A 
ATOM     28  C   UNL     1       0.628  10.177  21.209  0.00  0.00    +0.000 A 
ATOM     29  C   UNL     1       0.840  10.413  19.851  0.00  0.00    +0.000 A 
ATOM     30  C   UNL     1       1.349   9.387  19.025  0.00  0.00    +0.000 A 
BRANCH  28  31
ATOM     31  O   UNL     1       0.031  11.032  22.091  0.00  0.00    +0.000 OA
ATOM     32  C   UNL     1      -0.783  10.440  23.091  0.00  0.00    +0.000 C 
ENDBRANCH  28  31
ENDBRANCH  24  25
ENDBRANCH  18  24
ENDBRANCH   1  18
TORSDOF 12
ENDMDL
MODEL 3
REMARK VINA RESULT:      -7.1      2.143      3.430
REMARK  Name = 
REMARK  16 active torsions:
REMARK  status: ('A' for Active; 'I' for Inactive)
REMARK    1  A    between atoms: C_1  and  N_2
REMARK    2  A    between atoms: C_3  and  C_5
REMARK    3  A    between atoms: C_5  and  C_6
REMARK    4  A    between atoms: C_5  and  N_15
REMARK    5  A    between atoms: C_6  and  C_7
REMARK    6  A    between atoms: C_10  and  O_11
REMARK    7  A    between atoms: O_11  and  C_12
REMARK    8  A    between atoms: N_15  and  S_16
REMARK    9  A    between atoms: S_16  and  C_19
REMARK   10  A    between atoms: C_19  and  C_20
REMARK   11  A    between atoms: C_19  and  C_25
REMARK   12  A    between atoms: C_20  and  C_21
REMARK   13  A    between atoms: N_23  and  O_24
REMARK   14  A    between atoms: C_25  and  C_26
REMARK   15  A    between atoms: C_26  and  C_27
REMARK   16  A    between atoms: C_26  and  C_28
REMARK                            x       y       z     vdW  Elec       q    Type
REMARK                         _______ _______ _______ _____ _____    ______ ____
ROOT
ATOM      1  N   UNL     1       4.518   5.959  18.317  0.00  0.00    +0.000 NA
ATOM      2  H   UNL     1       5.273   6.154  18.971  0.00  0.00    +0.000 HD
ENDROOT
BRANCH   1   3
ATOM      3  S   UNL     1       4.834   4.467  17.550  0.00  0.00    +0.000 S 
ATOM      4  O   UNL     1       5.350   3.607  18.584  0.00  0.00    +0.000 OA
ATOM      5  O   UNL     1       3.646   4.154  16.807  0.00  0.00    +0.000 OA
BRANCH   3   6
ATOM      6  C   UNL     1       6.196   4.863  16.374  0.00  0.00    +0.000 C 
BRANCH   6   7
ATOM      7  C   UNL     1       7.533   4.712  17.125  0.00  0.00    +0.000 C 
BRANCH   7   8
ATOM      8  C   UNL     1       7.760   5.605  18.326  0.00  0.00    +0.000 C 
ATOM      9  O   UNL     1       7.755   6.828  18.300  0.00  0.00    +0.000 OA
ATOM     10  N   UNL     1       7.940   4.877  19.480  0.00  0.00    +0.000 N 
ATOM     11  H   UNL     1       7.854   3.869  19.551  0.00  0.00    +0.000 HD
BRANCH  10  12
ATOM     12  O   UNL     1       8.107   5.576  20.689  0.00  0.00    +0.000 OA
ATOM     13  H   UNL     1       8.982   6.006  20.580  0.00  0.00    +0.000 HD
ENDBRANCH  10  12
ENDBRANCH   7   8
ENDBRANCH   6   7
BRANCH   6  14
ATOM     14  C   UNL     1       6.165   3.883  15.167  0.00  0.00    +0.000 C 
BRANCH  14  15
ATOM     15  C   UNL     1       6.231   4.440  13.727  0.00  0.00    +0.000 C 
ATOM     16  C   UNL     1       7.598   4.998  13.331  0.00  0.00    +0.000 C 
ATOM     17  C   UNL     1       5.841   3.322  12.749  0.00  0.00    +0.000 C 
ENDBRANCH  14  15
ENDBRANCH   6  14
ENDBRANCH   3   6
ENDBRANCH   1   3
BRANCH   1  18
ATOM     18  C   UNL     1       3.249   6.034  19.137  0.00  0.00    +0.000 C 
BRANCH  18  21
ATOM     19  C   UNL     1       0.811   3.123  19.381  0.00  0.00    +0.000 C 
ATOM     20  N   UNL     1       1.591   4.232  18.899  0.00  0.00    +0.000 N 
ATOM     21  C   UNL     1       2.550   4.805  19.696  0.00  0.00    +0.000 C 
ATOM     22  O   UNL     1       2.775   4.418  20.844  0.00  0.00    +0.000 OA
ATOM     23  H   UNL     1       1.787   4.257  17.901  0.00  0.00    +0.000 HD
ENDBRANCH  18  21
BRANCH  18  24
ATOM     24  C   UNL     1       2.188   6.885  18.374  0.00  0.00    +0.000 C 
BRANCH  24  25
ATOM     25  C   UNL     1       1.725   8.236  18.900  0.00  0.00    +0.000 A 
ATOM     26  C   UNL     1       1.464   8.342  20.275  0.00  0.00    +0.000 A 
ATOM     27  C   UNL     1       0.937   9.512  20.826  0.00  0.00    +0.000 A 
ATOM     28  C   UNL     1       0.787  10.653  20.049  0.00  0.00    +0.000 A 
ATOM     29  C   UNL     1       1.139  10.608  18.701  0.00  0.00    +0.000 A 
ATOM     30  C   UNL     1       1.582   9.396  18.125  0.00  0.00    +0.000 A 
BRANCH  28  31
ATOM     31  O   UNL     1       0.231  11.718  20.700  0.00  0.00    +0.000 OA
ATOM     32  C   UNL     1       1.004  12.907  20.738  0.00  0.00    +0.000 C 
ENDBRANCH  28  31
ENDBRANCH  24  25
ENDBRANCH  18  24
ENDBRANCH   1  18
TORSDOF 12
ENDMDL
MODEL 4
REMARK VINA RESULT:      -7.1      1.078      1.660
REMARK  Name = 
REMARK  16 active torsions:
REMARK  status: ('A' for Active; 'I' for Inactive)
REMARK    1  A    between atoms: C_1  and  N_2
REMARK    2  A    between atoms: C_3  and  C_5
REMARK    3  A    between atoms: C_5  and  C_6
REMARK    4  A    between atoms: C_5  and  N_15
REMARK    5  A    between atoms: C_6  and  C_7
REMARK    6  A    between atoms: C_10  and  O_11
REMARK    7  A    between atoms: O_11  and  C_12
REMARK    8  A    between atoms: N_15  and  S_16
REMARK    9  A    between atoms: S_16  and  C_19
REMARK   10  A    between atoms: C_19  and  C_20
REMARK   11  A    between atoms: C_19  and  C_25
REMARK   12  A    between atoms: C_20  and  C_21
REMARK   13  A    between atoms: N_23  and  O_24
REMARK   14  A    between atoms: C_25  and  C_26
REMARK   15  A    between atoms: C_26  and  C_27
REMARK   16  A    between atoms: C_26  and  C_28
REMARK                            x       y       z     vdW  Elec       q    Type
REMARK                         _______ _______ _______ _____ _____    ______ ____
ROOT
ATOM      1  N   UNL     1       4.275   5.661  17.742  0.00  0.00    +0.000 NA
ATOM      2  H   UNL     1       5.041   6.316  17.884  0.00  0.00    +0.000 HD
ENDROOT
BRANCH   1   3
ATOM      3  S   UNL     1       4.901   4.073  17.791  0.00  0.00    +0.000 S 
ATOM      4  O   UNL     1       5.357   3.883  19.144  0.00  0.00    +0.000 OA
ATOM      5  O   UNL     1       3.895   3.241  17.191  0.00  0.00    +0.000 OA
BRANCH   3   6
ATOM      6  C   UNL     1       6.366   4.150  16.677  0.00  0.00    +0.000 C 
BRANCH   6   7
ATOM      7  C   UNL     1       6.001   5.035  15.469  0.00  0.00    +0.000 C 
BRANCH   7   8
ATOM      8  C   UNL     1       6.620   4.680  14.135  0.00  0.00    +0.000 C 
ATOM      9  O   UNL     1       7.490   5.331  13.571  0.00  0.00    +0.000 OA
ATOM     10  N   UNL     1       6.116   3.502  13.632  0.00  0.00    +0.000 N 
ATOM     11  H   UNL     1       5.469   2.892  14.118  0.00  0.00    +0.000 HD
BRANCH  10  12
ATOM     12  O   UNL     1       6.642   3.017  12.421  0.00  0.00    +0.000 OA
ATOM     13  H   UNL     1       6.202   3.577  11.745  0.00  0.00    +0.000 HD
ENDBRANCH  10  12
ENDBRANCH   7   8
ENDBRANCH   6   7
BRANCH   6  14
ATOM     14  C   UNL     1       7.579   4.768  17.427  0.00  0.00    +0.000 C 
BRANCH  14  15
ATOM     15  C   UNL     1       7.363   5.974  18.369  0.00  0.00    +0.000 C 
ATOM     16  C   UNL     1       8.165   5.907  19.669  0.00  0.00    +0.000 C 
ATOM     17  C   UNL     1       7.732   7.260  17.615  0.00  0.00    +0.000 C 
ENDBRANCH  14  15
ENDBRANCH   6  14
ENDBRANCH   3   6
ENDBRANCH   1   3
BRANCH   1  18
ATOM     18  C   UNL     1       3.250   6.008  18.799  0.00  0.00    +0.000 C 
BRANCH  18  21
ATOM     19  C   UNL     1       0.772   3.226  19.572  0.00  0.00    +0.000 C 
ATOM     20  N   UNL     1       1.604   4.181  18.890  0.00  0.00    +0.000 N 
ATOM     21  C   UNL     1       2.490   4.958  19.594  0.00  0.00    +0.000 C 
ATOM     22  O   UNL     1       2.603   4.890  20.820  0.00  0.00    +0.000 OA
ATOM     23  H   UNL     1       1.892   3.946  17.943  0.00  0.00    +0.000 HD
ENDBRANCH  18  21
BRANCH  18  24
ATOM     24  C   UNL     1       2.210   7.006  18.204  0.00  0.00    +0.000 C 
BRANCH  24  25
ATOM     25  C   UNL     1       1.726   8.215  18.994  0.00  0.00    +0.000 A 
ATOM     26  C   UNL     1       1.484   9.400  18.282  0.00  0.00    +0.000 A 
ATOM     27  C   UNL     1       1.139  10.584  18.939  0.00  0.00    +0.000 A 
ATOM     28  C   UNL     1       0.889  10.586  20.306  0.00  0.00    +0.000 A 
ATOM     29  C   UNL     1       1.019   9.396  21.021  0.00  0.00    +0.000 A 
ATOM     30  C   UNL     1       1.460   8.222  20.371  0.00  0.00    +0.000 A 
BRANCH  28  31
ATOM     31  O   UNL     1       0.593  11.812  20.829  0.00  0.00    +0.000 OA
ATOM     32  C   UNL     1       0.297  12.841  19.898  0.00  0.00    +0.000 C 
ENDBRANCH  28  31
ENDBRANCH  24  25
ENDBRANCH  18  24
ENDBRANCH   1  18
TORSDOF 12
ENDMDL
MODEL 5
REMARK VINA RESULT:      -7.1      1.232      1.459
REMARK  Name = 
REMARK  16 active torsions:
REMARK  status: ('A' for Active; 'I' for Inactive)
REMARK    1  A    between atoms: C_1  and  N_2
REMARK    2  A    between atoms: C_3  and  C_5
REMARK    3  A    between atoms: C_5  and  C_6
REMARK    4  A    between atoms: C_5  and  N_15
REMARK    5  A    between atoms: C_6  and  C_7
REMARK    6  A    between atoms: C_10  and  O_11
REMARK    7  A    between atoms: O_11  and  C_12
REMARK    8  A    between atoms: N_15  and  S_16
REMARK    9  A    between atoms: S_16  and  C_19
REMARK   10  A    between atoms: C_19  and  C_20
REMARK   11  A    between atoms: C_19  and  C_25
REMARK   12  A    between atoms: C_20  and  C_21
REMARK   13  A    between atoms: N_23  and  O_24
REMARK   14  A    between atoms: C_25  and  C_26
REMARK   15  A    between atoms: C_26  and  C_27
REMARK   16  A    between atoms: C_26  and  C_28
REMARK                            x       y       z     vdW  Elec       q    Type
REMARK                         _______ _______ _______ _____ _____    ______ ____
ROOT
ATOM      1  N   UNL     1       4.761   5.476  19.285  0.00  0.00    +0.000 NA
ATOM      2  H   UNL     1       5.245   5.058  20.077  0.00  0.00    +0.000 HD
ENDROOT
BRANCH   1   3
ATOM      3  S   UNL     1       4.850   4.399  17.963  0.00  0.00    +0.000 S 
ATOM      4  O   UNL     1       5.401   3.180  18.498  0.00  0.00    +0.000 OA
ATOM      5  O   UNL     1       3.561   4.452  17.333  0.00  0.00    +0.000 OA
BRANCH   3   6
ATOM      6  C   UNL     1       6.098   5.176  16.853  0.00  0.00    +0.000 C 
BRANCH   6   7
ATOM      7  C   UNL     1       5.599   5.037  15.402  0.00  0.00    +0.000 C 
BRANCH   7   8
ATOM      8  C   UNL     1       6.630   4.731  14.338  0.00  0.00    +0.000 C 
ATOM      9  O   UNL     1       6.562   3.803  13.543  0.00  0.00    +0.000 OA
ATOM     10  N   UNL     1       7.656   5.649  14.338  0.00  0.00    +0.000 N 
ATOM     11  H   UNL     1       7.692   6.481  14.918  0.00  0.00    +0.000 HD
BRANCH  10  12
ATOM     12  O   UNL     1       8.662   5.523  13.363  0.00  0.00    +0.000 OA
ATOM     13  H   UNL     1       8.639   6.391  12.905  0.00  0.00    +0.000 HD
ENDBRANCH  10  12
ENDBRANCH   7   8
ENDBRANCH   6   7
BRANCH   6  14
ATOM     14  C   UNL     1       6.265   6.682  17.203  0.00  0.00    +0.000 C 
BRANCH  14  15
ATOM     15  C   UNL     1       7.666   7.240  17.539  0.00  0.00    +0.000 C 
ATOM     16  C   UNL     1       7.720   8.761  17.677  0.00  0.00    +0.000 C 
ATOM     17  C   UNL     1       8.151   6.598  18.847  0.00  0.00    +0.000 C 
ENDBRANCH  14  15
ENDBRANCH   6  14
ENDBRANCH   3   6
ENDBRANCH   1   3
BRANCH   1  18
ATOM     18  C   UNL     1       3.372   5.800  19.791  0.00  0.00    +0.000 C 
BRANCH  18  21
ATOM     19  C   UNL     1       0.714   3.077  19.799  0.00  0.00    +0.000 C 
ATOM     20  N   UNL     1       1.710   4.031  19.388  0.00  0.00    +0.000 N 
ATOM     21  C   UNL     1       2.417   4.744  20.323  0.00  0.00    +0.000 C 
ATOM     22  O   UNL     1       2.229   4.616  21.535  0.00  0.00    +0.000 OA
ATOM     23  H   UNL     1       2.213   3.828  18.527  0.00  0.00    +0.000 HD
ENDBRANCH  18  21
BRANCH  18  24
ATOM     24  C   UNL     1       2.612   6.637  18.717  0.00  0.00    +0.000 C 
BRANCH  24  25
ATOM     25  C   UNL     1       1.977   7.978  19.059  0.00  0.00    +0.000 A 
ATOM     26  C   UNL     1       1.530   8.168  20.376  0.00  0.00    +0.000 A 
ATOM     27  C   UNL     1       0.843   9.325  20.749  0.00  0.00    +0.000 A 
ATOM     28  C   UNL     1       0.707  10.384  19.860  0.00  0.00    +0.000 A 
ATOM     29  C   UNL     1       1.236  10.264  18.576  0.00  0.00    +0.000 A 
ATOM     30  C   UNL     1       1.846   9.056  18.171  0.00  0.00    +0.000 A 
BRANCH  28  31
ATOM     31  O   UNL     1      -0.013  11.441  20.339  0.00  0.00    +0.000 OA
ATOM     32  C   UNL     1      -0.538  11.305  21.650  0.00  0.00    +0.000 C 
ENDBRANCH  28  31
ENDBRANCH  24  25
ENDBRANCH  18  24
ENDBRANCH   1  18
TORSDOF 12
ENDMDL
MODEL 6
REMARK VINA RESULT:      -6.9      2.145      3.350
REMARK  Name = 
REMARK  16 active torsions:
REMARK  status: ('A' for Active; 'I' for Inactive)
REMARK    1  A    between atoms: C_1  and  N_2
REMARK    2  A    between atoms: C_3  and  C_5
REMARK    3  A    between atoms: C_5  and  C_6
REMARK    4  A    between atoms: C_5  and  N_15
REMARK    5  A    between atoms: C_6  and  C_7
REMARK    6  A    between atoms: C_10  and  O_11
REMARK    7  A    between atoms: O_11  and  C_12
REMARK    8  A    between atoms: N_15  and  S_16
REMARK    9  A    between atoms: S_16  and  C_19
REMARK   10  A    between atoms: C_19  and  C_20
REMARK   11  A    between atoms: C_19  and  C_25
REMARK   12  A    between atoms: C_20  and  C_21
REMARK   13  A    between atoms: N_23  and  O_24
REMARK   14  A    between atoms: C_25  and  C_26
REMARK   15  A    between atoms: C_26  and  C_27
REMARK   16  A    between atoms: C_26  and  C_28
REMARK                            x       y       z     vdW  Elec       q    Type
REMARK                         _______ _______ _______ _____ _____    ______ ____
ROOT
ATOM      1  N   UNL     1       4.667   5.461  19.715  0.00  0.00    +0.000 NA
ATOM      2  H   UNL     1       4.989   4.932  20.524  0.00  0.00    +0.000 HD
ENDROOT
BRANCH   1   3
ATOM      3  S   UNL     1       5.317   4.748  18.306  0.00  0.00    +0.000 S 
ATOM      4  O   UNL     1       6.487   4.031  18.744  0.00  0.00    +0.000 OA
ATOM      5  O   UNL     1       4.213   4.099  17.655  0.00  0.00    +0.000 OA
BRANCH   3   6
ATOM      6  C   UNL     1       5.851   6.192  17.296  0.00  0.00    +0.000 C 
BRANCH   6   7
ATOM      7  C   UNL     1       7.354   6.421  17.548  0.00  0.00    +0.000 C 
BRANCH   7   8
ATOM      8  C   UNL     1       7.805   7.839  17.822  0.00  0.00    +0.000 C 
ATOM      9  O   UNL     1       7.446   8.823  17.190  0.00  0.00    +0.000 OA
ATOM     10  N   UNL     1       8.652   7.908  18.905  0.00  0.00    +0.000 N 
ATOM     11  H   UNL     1       8.892   7.128  19.507  0.00  0.00    +0.000 HD
BRANCH  10  12
ATOM     12  O   UNL     1       9.109   9.174  19.313  0.00  0.00    +0.000 OA
ATOM     13  H   UNL     1       8.549   9.792  18.796  0.00  0.00    +0.000 HD
ENDBRANCH  10  12
ENDBRANCH   7   8
ENDBRANCH   6   7
BRANCH   6  14
ATOM     14  C   UNL     1       5.615   5.908  15.785  0.00  0.00    +0.000 C 
BRANCH  14  15
ATOM     15  C   UNL     1       6.352   4.733  15.103  0.00  0.00    +0.000 C 
ATOM     16  C   UNL     1       5.437   3.778  14.337  0.00  0.00    +0.000 C 
ATOM     17  C   UNL     1       7.403   5.305  14.140  0.00  0.00    +0.000 C 
ENDBRANCH  14  15
ENDBRANCH   6  14
ENDBRANCH   3   6
ENDBRANCH   1   3
BRANCH   1  18
ATOM     18  C   UNL     1       3.157   5.474  19.822  0.00  0.00    +0.000 C 
BRANCH  18  21
ATOM     19  C   UNL     1       0.815   2.618  18.907  0.00  0.00    +0.000 C 
ATOM     20  N   UNL     1       1.698   3.753  18.841  0.00  0.00    +0.000 N 
ATOM     21  C   UNL     1       2.326   4.211  19.972  0.00  0.00    +0.000 C 
ATOM     22  O   UNL     1       2.156   3.695  21.079  0.00  0.00    +0.000 OA
ATOM     23  H   UNL     1       2.218   3.881  17.976  0.00  0.00    +0.000 HD
ENDBRANCH  18  21
BRANCH  18  24
ATOM     24  C   UNL     1       2.562   6.303  18.642  0.00  0.00    +0.000 C 
BRANCH  24  25
ATOM     25  C   UNL     1       2.021   7.710  18.854  0.00  0.00    +0.000 A 
ATOM     26  C   UNL     1       1.603   8.057  20.148  0.00  0.00    +0.000 A 
ATOM     27  C   UNL     1       0.998   9.289  20.411  0.00  0.00    +0.000 A 
ATOM     28  C   UNL     1       0.920  10.261  19.423  0.00  0.00    +0.000 A 
ATOM     29  C   UNL     1       1.424   9.982  18.153  0.00  0.00    +0.000 A 
ATOM     30  C   UNL     1       1.949   8.702  17.865  0.00  0.00    +0.000 A 
BRANCH  28  31
ATOM     31  O   UNL     1       0.277  11.406  19.799  0.00  0.00    +0.000 OA
ATOM     32  C   UNL     1      -0.358  11.384  21.068  0.00  0.00    +0.000 C 
ENDBRANCH  28  31
ENDBRANCH  24  25
ENDBRANCH  18  24
ENDBRANCH   1  18
TORSDOF 12
ENDMDL
MODEL 7
REMARK VINA RESULT:      -6.9      1.769      2.937
REMARK  Name = 
REMARK  16 active torsions:
REMARK  status: ('A' for Active; 'I' for Inactive)
REMARK    1  A    between atoms: C_1  and  N_2
REMARK    2  A    between atoms: C_3  and  C_5
REMARK    3  A    between atoms: C_5  and  C_6
REMARK    4  A    between atoms: C_5  and  N_15
REMARK    5  A    between atoms: C_6  and  C_7
REMARK    6  A    between atoms: C_10  and  O_11
REMARK    7  A    between atoms: O_11  and  C_12
REMARK    8  A    between atoms: N_15  and  S_16
REMARK    9  A    between atoms: S_16  and  C_19
REMARK   10  A    between atoms: C_19  and  C_20
REMARK   11  A    between atoms: C_19  and  C_25
REMARK   12  A    between atoms: C_20  and  C_21
REMARK   13  A    between atoms: N_23  and  O_24
REMARK   14  A    between atoms: C_25  and  C_26
REMARK   15  A    between atoms: C_26  and  C_27
REMARK   16  A    between atoms: C_26  and  C_28
REMARK                            x       y       z     vdW  Elec       q    Type
REMARK                         _______ _______ _______ _____ _____    ______ ____
ROOT
ATOM      1  N   UNL     1       3.432   5.523  18.108  0.00  0.00    +0.000 NA
ATOM      2  H   UNL     1       3.910   6.407  18.274  0.00  0.00    +0.000 HD
ENDROOT
BRANCH   1   3
ATOM      3  S   UNL     1       4.512   4.461  17.319  0.00  0.00    +0.000 S 
ATOM      4  O   UNL     1       5.457   4.056  18.328  0.00  0.00    +0.000 OA
ATOM      5  O   UNL     1       3.685   3.522  16.614  0.00  0.00    +0.000 OA
BRANCH   3   6
ATOM      6  C   UNL     1       5.373   5.542  16.101  0.00  0.00    +0.000 C 
BRANCH   6   7
ATOM      7  C   UNL     1       5.669   6.890  16.786  0.00  0.00    +0.000 C 
BRANCH   7   8
ATOM      8  C   UNL     1       7.045   7.077  17.388  0.00  0.00    +0.000 C 
ATOM      9  O   UNL     1       7.923   7.789  16.920  0.00  0.00    +0.000 OA
ATOM     10  N   UNL     1       7.193   6.372  18.561  0.00  0.00    +0.000 N 
ATOM     11  H   UNL     1       6.455   5.852  19.024  0.00  0.00    +0.000 HD
BRANCH  10  12
ATOM     12  O   UNL     1       8.405   6.495  19.263  0.00  0.00    +0.000 OA
ATOM     13  H   UNL     1       8.414   5.697  19.835  0.00  0.00    +0.000 HD
ENDBRANCH  10  12
ENDBRANCH   7   8
ENDBRANCH   6   7
BRANCH   6  14
ATOM     14  C   UNL     1       6.707   4.885  15.649  0.00  0.00    +0.000 C 
BRANCH  14  15
ATOM     15  C   UNL     1       6.815   4.262  14.239  0.00  0.00    +0.000 C 
ATOM     16  C   UNL     1       5.468   3.972  13.576  0.00  0.00    +0.000 C 
ATOM     17  C   UNL     1       7.623   5.212  13.342  0.00  0.00    +0.000 C 
ENDBRANCH  14  15
ENDBRANCH   6  14
ENDBRANCH   3   6
ENDBRANCH   1   3
BRANCH   1  18
ATOM     18  C   UNL     1       2.929   5.080  19.464  0.00  0.00    +0.000 C 
BRANCH  18  21
ATOM     19  C   UNL     1       0.567   2.181  18.755  0.00  0.00    +0.000 C 
ATOM     20  N   UNL     1       1.681   3.093  18.724  0.00  0.00    +0.000 N 
ATOM     21  C   UNL     1       1.773   4.109  19.642  0.00  0.00    +0.000 C 
ATOM     22  O   UNL     1       0.919   4.296  20.511  0.00  0.00    +0.000 OA
ATOM     23  H   UNL     1       2.570   2.721  18.399  0.00  0.00    +0.000 HD
ENDBRANCH  18  21
BRANCH  18  24
ATOM     24  C   UNL     1       2.642   6.334  20.345  0.00  0.00    +0.000 C 
BRANCH  24  25
ATOM     25  C   UNL     1       2.047   7.603  19.751  0.00  0.00    +0.000 A 
ATOM     26  C   UNL     1       1.292   8.427  20.601  0.00  0.00    +0.000 A 
ATOM     27  C   UNL     1       0.625   9.554  20.116  0.00  0.00    +0.000 A 
ATOM     28  C   UNL     1       0.803   9.970  18.803  0.00  0.00    +0.000 A 
ATOM     29  C   UNL     1       1.632   9.228  17.963  0.00  0.00    +0.000 A 
ATOM     30  C   UNL     1       2.231   8.037  18.429  0.00  0.00    +0.000 A 
BRANCH  28  31
ATOM     31  O   UNL     1       0.068  11.065  18.447  0.00  0.00    +0.000 OA
ATOM     32  C   UNL     1       0.601  12.328  18.815  0.00  0.00    +0.000 C 
ENDBRANCH  28  31
ENDBRANCH  24  25
ENDBRANCH  18  24
ENDBRANCH   1  18
TORSDOF 12
ENDMDL
MODEL 8
REMARK VINA RESULT:      -6.9      2.544      3.825
REMARK  Name = 
REMARK  16 active torsions:
REMARK  status: ('A' for Active; 'I' for Inactive)
REMARK    1  A    between atoms: C_1  and  N_2
REMARK    2  A    between atoms: C_3  and  C_5
REMARK    3  A    between atoms: C_5  and  C_6
REMARK    4  A    between atoms: C_5  and  N_15
REMARK    5  A    between atoms: C_6  and  C_7
REMARK    6  A    between atoms: C_10  and  O_11
REMARK    7  A    between atoms: O_11  and  C_12
REMARK    8  A    between atoms: N_15  and  S_16
REMARK    9  A    between atoms: S_16  and  C_19
REMARK   10  A    between atoms: C_19  and  C_20
REMARK   11  A    between atoms: C_19  and  C_25
REMARK   12  A    between atoms: C_20  and  C_21
REMARK   13  A    between atoms: N_23  and  O_24
REMARK   14  A    between atoms: C_25  and  C_26
REMARK   15  A    between atoms: C_26  and  C_27
REMARK   16  A    between atoms: C_26  and  C_28
REMARK                            x       y       z     vdW  Elec       q    Type
REMARK                         _______ _______ _______ _____ _____    ______ ____
ROOT
ATOM      1  N   UNL     1       4.000   6.318  18.216  0.00  0.00    +0.000 NA
ATOM      2  H   UNL     1       4.402   7.254  18.207  0.00  0.00    +0.000 HD
ENDROOT
BRANCH   1   3
ATOM      3  S   UNL     1       5.258   5.188  18.451  0.00  0.00    +0.000 S 
ATOM      4  O   UNL     1       5.723   5.406  19.797  0.00  0.00    +0.000 OA
ATOM      5  O   UNL     1       4.731   3.926  18.012  0.00  0.00    +0.000 OA
BRANCH   3   6
ATOM      6  C   UNL     1       6.563   5.740  17.275  0.00  0.00    +0.000 C 
BRANCH   6   7
ATOM      7  C   UNL     1       7.718   6.346  18.096  0.00  0.00    +0.000 C 
BRANCH   7   8
ATOM      8  C   UNL     1       7.949   7.837  17.976  0.00  0.00    +0.000 C 
ATOM      9  O   UNL     1       7.416   8.564  17.148  0.00  0.00    +0.000 OA
ATOM     10  N   UNL     1       8.811   8.303  18.942  0.00  0.00    +0.000 N 
ATOM     11  H   UNL     1       9.192   7.746  19.699  0.00  0.00    +0.000 HD
BRANCH  10  12
ATOM     12  O   UNL     1       9.075   9.684  18.989  0.00  0.00    +0.000 OA
ATOM     13  H   UNL     1       8.182  10.079  19.086  0.00  0.00    +0.000 HD
ENDBRANCH  10  12
ENDBRANCH   7   8
ENDBRANCH   6   7
BRANCH   6  14
ATOM     14  C   UNL     1       7.090   4.532  16.451  0.00  0.00    +0.000 C 
BRANCH  14  15
ATOM     15  C   UNL     1       6.539   4.275  15.030  0.00  0.00    +0.000 C 
ATOM     16  C   UNL     1       5.141   4.841  14.787  0.00  0.00    +0.000 C 
ATOM     17  C   UNL     1       7.513   4.881  14.008  0.00  0.00    +0.000 C 
ENDBRANCH  14  15
ENDBRANCH   6  14
ENDBRANCH   3   6
ENDBRANCH   1   3
BRANCH   1  18
ATOM     18  C   UNL     1       2.927   6.356  19.282  0.00  0.00    +0.000 C 
BRANCH  18  21
ATOM     19  C   UNL     1       1.973   3.491  21.598  0.00  0.00    +0.000 C 
ATOM     20  N   UNL     1       2.522   4.711  21.067  0.00  0.00    +0.000 N 
ATOM     21  C   UNL     1       2.219   5.110  19.789  0.00  0.00    +0.000 C 
ATOM     22  O   UNL     1       1.489   4.452  19.045  0.00  0.00    +0.000 OA
ATOM     23  H   UNL     1       2.691   5.466  21.728  0.00  0.00    +0.000 HD
ENDBRANCH  18  21
BRANCH  18  24
ATOM     24  C   UNL     1       1.838   7.399  18.884  0.00  0.00    +0.000 C 
BRANCH  24  25
ATOM     25  C   UNL     1       1.379   8.478  19.855  0.00  0.00    +0.000 A 
ATOM     26  C   UNL     1       1.414   8.176  21.225  0.00  0.00    +0.000 A 
ATOM     27  C   UNL     1       0.915   9.067  22.178  0.00  0.00    +0.000 A 
ATOM     28  C   UNL     1       0.497  10.338  21.806  0.00  0.00    +0.000 A 
ATOM     29  C   UNL     1       0.550  10.704  20.462  0.00  0.00    +0.000 A 
ATOM     30  C   UNL     1       0.966   9.768  19.489  0.00  0.00    +0.000 A 
BRANCH  28  31
ATOM     31  O   UNL     1       0.001  11.097  22.828  0.00  0.00    +0.000 OA
ATOM     32  C   UNL     1      -1.394  10.997  23.068  0.00  0.00    +0.000 C 
ENDBRANCH  28  31
ENDBRANCH  24  25
ENDBRANCH  18  24
ENDBRANCH   1  18
TORSDOF 12
ENDMDL
MODEL 9
REMARK VINA RESULT:      -6.9      2.666      3.536
REMARK  Name = 
REMARK  16 active torsions:
REMARK  status: ('A' for Active; 'I' for Inactive)
REMARK    1  A    between atoms: C_1  and  N_2
REMARK    2  A    between atoms: C_3  and  C_5
REMARK    3  A    between atoms: C_5  and  C_6
REMARK    4  A    between atoms: C_5  and  N_15
REMARK    5  A    between atoms: C_6  and  C_7
REMARK    6  A    between atoms: C_10  and  O_11
REMARK    7  A    between atoms: O_11  and  C_12
REMARK    8  A    between atoms: N_15  and  S_16
REMARK    9  A    between atoms: S_16  and  C_19
REMARK   10  A    between atoms: C_19  and  C_20
REMARK   11  A    between atoms: C_19  and  C_25
REMARK   12  A    between atoms: C_20  and  C_21
REMARK   13  A    between atoms: N_23  and  O_24
REMARK   14  A    between atoms: C_25  and  C_26
REMARK   15  A    between atoms: C_26  and  C_27
REMARK   16  A    between atoms: C_26  and  C_28
REMARK                            x       y       z     vdW  Elec       q    Type
REMARK                         _______ _______ _______ _____ _____    ______ ____
ROOT
ATOM      1  N   UNL     1       2.801   6.095  18.484  0.00  0.00    +0.000 NA
ATOM      2  H   UNL     1       2.563   7.048  18.215  0.00  0.00    +0.000 HD
ENDROOT
BRANCH   1   3
ATOM      3  S   UNL     1       4.458   5.837  18.163  0.00  0.00    +0.000 S 
ATOM      4  O   UNL     1       4.878   6.972  17.381  0.00  0.00    +0.000 OA
ATOM      5  O   UNL     1       5.052   5.510  19.429  0.00  0.00    +0.000 OA
BRANCH   3   6
ATOM      6  C   UNL     1       4.464   4.342  17.088  0.00  0.00    +0.000 C 
BRANCH   6   7
ATOM      7  C   UNL     1       3.044   3.743  17.095  0.00  0.00    +0.000 C 
BRANCH   7   8
ATOM      8  C   UNL     1       2.851   2.420  17.804  0.00  0.00    +0.000 C 
ATOM      9  O   UNL     1       1.772   1.976  18.175  0.00  0.00    +0.000 OA
ATOM     10  N   UNL     1       4.038   1.741  17.956  0.00  0.00    +0.000 N 
ATOM     11  H   UNL     1       4.930   2.036  17.574  0.00  0.00    +0.000 HD
BRANCH  10  12
ATOM     12  O   UNL     1       4.004   0.466  18.549  0.00  0.00    +0.000 OA
ATOM     13  H   UNL     1       3.856  -0.133  17.786  0.00  0.00    +0.000 HD
ENDBRANCH  10  12
ENDBRANCH   7   8
ENDBRANCH   6   7
BRANCH   6  14
ATOM     14  C   UNL     1       4.857   4.728  15.634  0.00  0.00    +0.000 C 
BRANCH  14  15
ATOM     15  C   UNL     1       6.062   4.036  14.957  0.00  0.00    +0.000 C 
ATOM     16  C   UNL     1       5.898   3.818  13.453  0.00  0.00    +0.000 C 
ATOM     17  C   UNL     1       7.319   4.880  15.209  0.00  0.00    +0.000 C 
ENDBRANCH  14  15
ENDBRANCH   6  14
ENDBRANCH   3   6
ENDBRANCH   1   3
BRANCH   1  18
ATOM     18  C   UNL     1       2.373   5.970  19.930  0.00  0.00    +0.000 C 
BRANCH  18  21
ATOM     19  C   UNL     1       2.633   2.545  21.568  0.00  0.00    +0.000 C 
ATOM     20  N   UNL     1       2.939   3.850  21.044  0.00  0.00    +0.000 N 
ATOM     21  C   UNL     1       1.939   4.653  20.555  0.00  0.00    +0.000 C 
ATOM     22  O   UNL     1       0.759   4.299  20.527  0.00  0.00    +0.000 OA
ATOM     23  H   UNL     1       3.723   4.343  21.466  0.00  0.00    +0.000 HD
ENDBRANCH  18  21
BRANCH  18  24
ATOM     24  C   UNL     1       1.274   7.032  20.238  0.00  0.00    +0.000 C 
BRANCH  24  25
ATOM     25  C   UNL     1       1.372   8.454  19.704  0.00  0.00    +0.000 A 
ATOM     26  C   UNL     1       0.954   9.495  20.548  0.00  0.00    +0.000 A 
ATOM     27  C   UNL     1       0.913  10.819  20.103  0.00  0.00    +0.000 A 
ATOM     28  C   UNL     1       1.417  11.160  18.855  0.00  0.00    +0.000 A 
ATOM     29  C   UNL     1       1.936  10.159  18.035  0.00  0.00    +0.000 A 
ATOM     30  C   UNL     1       1.890   8.809  18.450  0.00  0.00    +0.000 A 
BRANCH  28  31
ATOM     31  O   UNL     1       1.286  12.480  18.528  0.00  0.00    +0.000 OA
ATOM     32  C   UNL     1       2.459  13.137  18.075  0.00  0.00    +0.000 C 
ENDBRANCH  28  31
ENDBRANCH  24  25
ENDBRANCH  18  24
ENDBRANCH   1  18
TORSDOF 12
ENDMDL
