MODEL 1
REMARK VINA RESULT:      -5.4      0.000      0.000
REMARK  Name = 
REMARK  11 active torsions:
REMARK  status: ('A' for Active; 'I' for Inactive)
REMARK    1  A    between atoms: C_1  and  N_2
REMARK    2  A    between atoms: N_2  and  C_3
REMARK    3  A    between atoms: N_2  and  C_4
REMARK    4  A    between atoms: C_5  and  C_6
REMARK    5  A    between atoms: C_6  and  C_12
REMARK    6  A    between atoms: C_7  and  C_8
REMARK    7  A    between atoms: N_9  and  C_10
REMARK    8  A    between atoms: N_9  and  C_11
REMARK    9  A    between atoms: C_13  and  N_14
REMARK   10  A    between atoms: N_14  and  C_15
REMARK   11  A    between atoms: N_14  and  C_16
REMARK                            x       y       z     vdW  Elec       q    Type
REMARK                         _______ _______ _______ _____ _____    ______ ____
ROOT
ATOM      1  C   UNL     1       3.050   6.537  17.967  0.00  0.00    +0.000 C 
ATOM      2  C   UNL     1       4.230   6.839  17.374  0.00  0.00    +0.000 C 
ENDROOT
BRANCH   2   3
ATOM      3  C   UNL     1       5.076   5.887  16.608  0.00  0.00    +0.000 C 
ATOM      4  N   UNL     1       6.362   5.752  16.685  0.00  0.00    +0.000 N 
ATOM      5  C   UNL     1       7.287   6.532  17.559  0.00  0.00    +0.000 C 
ATOM      6  C   UNL     1       7.052   4.731  15.834  0.00  0.00    +0.000 C 
ENDBRANCH   2   3
BRANCH   1   8
ATOM      7  C   UNL     1       2.781   4.213  18.772  0.00  0.00    +0.000 C 
ATOM      8  C   UNL     1       2.470   5.193  17.911  0.00  0.00    +0.000 C 
BRANCH   7  10
ATOM      9  C   UNL     1       3.306   1.795  18.605  0.00  0.00    +0.000 C 
ATOM     10  N   UNL     1       2.351   2.891  18.814  0.00  0.00    +0.000 N 
ATOM     11  C   UNL     1       0.944   2.500  18.880  0.00  0.00    +0.000 C 
ENDBRANCH   7  10
ENDBRANCH   1   8
BRANCH   1  12
ATOM     12  C   UNL     1       2.369   7.670  18.619  0.00  0.00    +0.000 C 
ATOM     13  C   UNL     1       1.927   7.697  19.885  0.00  0.00    +0.000 C 
BRANCH  13  14
ATOM     14  N   UNL     1       1.318   8.732  20.585  0.00  0.00    +0.000 N 
ATOM     15  C   UNL     1       1.309   8.875  22.041  0.00  0.00    +0.000 C 
ATOM     16  C   UNL     1       0.627   9.826  19.893  0.00  0.00    +0.000 C 
ENDBRANCH  13  14
ENDBRANCH   1  12
TORSDOF 5
ENDMDL
MODEL 2
REMARK VINA RESULT:      -5.4      2.998      6.236
REMARK  Name = 
REMARK  11 active torsions:
REMARK  status: ('A' for Active; 'I' for Inactive)
REMARK    1  A    between atoms: C_1  and  N_2
REMARK    2  A    between atoms: N_2  and  C_3
REMARK    3  A    between atoms: N_2  and  C_4
REMARK    4  A    between atoms: C_5  and  C_6
REMARK    5  A    between atoms: C_6  and  C_12
REMARK    6  A    between atoms: C_7  and  C_8
REMARK    7  A    between atoms: N_9  and  C_10
REMARK    8  A    between atoms: N_9  and  C_11
REMARK    9  A    between atoms: C_13  and  N_14
REMARK   10  A    between atoms: N_14  and  C_15
REMARK   11  A    between atoms: N_14  and  C_16
REMARK                            x       y       z     vdW  Elec       q    Type
REMARK                         _______ _______ _______ _____ _____    ______ ____
ROOT
ATOM      1  C   UNL     1       5.583   4.492  15.857  0.00  0.00    +0.000 C 
ATOM      2  C   UNL     1       6.887   4.521  16.223  0.00  0.00    +0.000 C 
ENDROOT
BRANCH   2   3
ATOM      3  C   UNL     1       7.389   4.711  17.609  0.00  0.00    +0.000 C 
ATOM      4  N   UNL     1       7.629   5.837  18.202  0.00  0.00    +0.000 N 
ATOM      5  C   UNL     1       7.463   7.202  17.621  0.00  0.00    +0.000 C 
ATOM      6  C   UNL     1       8.130   5.839  19.613  0.00  0.00    +0.000 C 
ENDBRANCH   2   3
BRANCH   1   8
ATOM      7  C   UNL     1       3.872   3.625  17.420  0.00  0.00    +0.000 C 
ATOM      8  C   UNL     1       4.498   4.653  16.828  0.00  0.00    +0.000 C 
BRANCH   7  10
ATOM      9  C   UNL     1       2.823   4.510  19.485  0.00  0.00    +0.000 C 
ATOM     10  N   UNL     1       2.808   3.623  18.315  0.00  0.00    +0.000 N 
ATOM     11  C   UNL     1       1.718   2.648  18.274  0.00  0.00    +0.000 C 
ENDBRANCH   7  10
ENDBRANCH   1   8
BRANCH   1  12
ATOM     12  C   UNL     1       5.339   4.230  14.428  0.00  0.00    +0.000 C 
ATOM     13  C   UNL     1       6.149   3.547  13.605  0.00  0.00    +0.000 C 
BRANCH  13  14
ATOM     14  N   UNL     1       5.974   3.220  12.266  0.00  0.00    +0.000 N 
ATOM     15  C   UNL     1       7.025   2.735  11.371  0.00  0.00    +0.000 C 
ATOM     16  C   UNL     1       4.661   3.315  11.617  0.00  0.00    +0.000 C 
ENDBRANCH  13  14
ENDBRANCH   1  12
TORSDOF 5
ENDMDL
MODEL 3
REMARK VINA RESULT:      -5.3      0.985      3.981
REMARK  Name = 
REMARK  11 active torsions:
REMARK  status: ('A' for Active; 'I' for Inactive)
REMARK    1  A    between atoms: C_1  and  N_2
REMARK    2  A    between atoms: N_2  and  C_3
REMARK    3  A    between atoms: N_2  and  C_4
REMARK    4  A    between atoms: C_5  and  C_6
REMARK    5  A    between atoms: C_6  and  C_12
REMARK    6  A    between atoms: C_7  and  C_8
REMARK    7  A    between atoms: N_9  and  C_10
REMARK    8  A    between atoms: N_9  and  C_11
REMARK    9  A    between atoms: C_13  and  N_14
REMARK   10  A    between atoms: N_14  and  C_15
REMARK   11  A    between atoms: N_14  and  C_16
REMARK                            x       y       z     vdW  Elec       q    Type
REMARK                         _______ _______ _______ _____ _____    ______ ____
ROOT
ATOM      1  C   UNL     1       3.036   6.186  18.110  0.00  0.00    +0.000 C 
ATOM      2  C   UNL     1       2.258   5.086  18.247  0.00  0.00    +0.000 C 
ENDROOT
BRANCH   2   3
ATOM      3  C   UNL     1       2.648   3.703  17.867  0.00  0.00    +0.000 C 
ATOM      4  N   UNL     1       3.262   2.836  18.608  0.00  0.00    +0.000 N 
ATOM      5  C   UNL     1       3.723   3.036  20.014  0.00  0.00    +0.000 C 
ATOM      6  C   UNL     1       3.573   1.479  18.058  0.00  0.00    +0.000 C 
ENDBRANCH   2   3
BRANCH   1   8
ATOM      7  C   UNL     1       5.485   5.885  18.289  0.00  0.00    +0.000 C 
ATOM      8  C   UNL     1       4.390   6.120  17.552  0.00  0.00    +0.000 C 
BRANCH   7  10
ATOM      9  C   UNL     1       7.583   7.082  17.725  0.00  0.00    +0.000 C 
ATOM     10  N   UNL     1       6.823   5.839  17.910  0.00  0.00    +0.000 N 
ATOM     11  C   UNL     1       7.505   4.613  17.499  0.00  0.00    +0.000 C 
ENDBRANCH   7  10
ENDBRANCH   1   8
BRANCH   1  12
ATOM     12  C   UNL     1       2.445   7.439  18.615  0.00  0.00    +0.000 C 
ATOM     13  C   UNL     1       1.919   7.623  19.834  0.00  0.00    +0.000 C 
BRANCH  13  14
ATOM     14  N   UNL     1       1.385   8.774  20.400  0.00  0.00    +0.000 N 
ATOM     15  C   UNL     1       0.887   9.930  19.652  0.00  0.00    +0.000 C 
ATOM     16  C   UNL     1       1.246   8.924  21.853  0.00  0.00    +0.000 C 
ENDBRANCH  13  14
ENDBRANCH   1  12
TORSDOF 5
ENDMDL
MODEL 4
REMARK VINA RESULT:      -5.3      1.361      1.763
REMARK  Name = 
REMARK  11 active torsions:
REMARK  status: ('A' for Active; 'I' for Inactive)
REMARK    1  A    between atoms: C_1  and  N_2
REMARK    2  A    between atoms: N_2  and  C_3
REMARK    3  A    between atoms: N_2  and  C_4
REMARK    4  A    between atoms: C_5  and  C_6
REMARK    5  A    between atoms: C_6  and  C_12
REMARK    6  A    between atoms: C_7  and  C_8
REMARK    7  A    between atoms: N_9  and  C_10
REMARK    8  A    between atoms: N_9  and  C_11
REMARK    9  A    between atoms: C_13  and  N_14
REMARK   10  A    between atoms: N_14  and  C_15
REMARK   11  A    between atoms: N_14  and  C_16
REMARK                            x       y       z     vdW  Elec       q    Type
REMARK                         _______ _______ _______ _____ _____    ______ ____
ROOT
ATOM      1  C   UNL     1       3.018   6.736  17.994  0.00  0.00    +0.000 C 
ATOM      2  C   UNL     1       4.190   6.960  17.353  0.00  0.00    +0.000 C 
ENDROOT
BRANCH   2   3
ATOM      3  C   UNL     1       5.012   5.922  16.676  0.00  0.00    +0.000 C 
ATOM      4  N   UNL     1       6.302   5.813  16.700  0.00  0.00    +0.000 N 
ATOM      5  C   UNL     1       7.257   6.713  17.410  0.00  0.00    +0.000 C 
ATOM      6  C   UNL     1       6.965   4.695  15.957  0.00  0.00    +0.000 C 
ENDBRANCH   2   3
BRANCH   1   8
ATOM      7  C   UNL     1       2.641   4.562  19.112  0.00  0.00    +0.000 C 
ATOM      8  C   UNL     1       2.423   5.400  18.089  0.00  0.00    +0.000 C 
BRANCH   7  10
ATOM      9  C   UNL     1       1.054   3.005  20.212  0.00  0.00    +0.000 C 
ATOM     10  N   UNL     1       2.187   3.263  19.314  0.00  0.00    +0.000 N 
ATOM     11  C   UNL     1       2.886   2.076  18.822  0.00  0.00    +0.000 C 
ENDBRANCH   7  10
ENDBRANCH   1   8
BRANCH   1  12
ATOM     12  C   UNL     1       2.361   7.939  18.535  0.00  0.00    +0.000 C 
ATOM     13  C   UNL     1       1.901   8.974  17.817  0.00  0.00    +0.000 C 
BRANCH  13  14
ATOM     14  N   UNL     1       1.236  10.117  18.242  0.00  0.00    +0.000 N 
ATOM     15  C   UNL     1      -0.186  10.192  18.573  0.00  0.00    +0.000 C 
ATOM     16  C   UNL     1       1.940  11.392  18.425  0.00  0.00    +0.000 C 
ENDBRANCH  13  14
ENDBRANCH   1  12
TORSDOF 5
ENDMDL
MODEL 5
REMARK VINA RESULT:      -5.3      1.442      4.733
REMARK  Name = 
REMARK  11 active torsions:
REMARK  status: ('A' for Active; 'I' for Inactive)
REMARK    1  A    between atoms: C_1  and  N_2
REMARK    2  A    between atoms: N_2  and  C_3
REMARK    3  A    between atoms: N_2  and  C_4
REMARK    4  A    between atoms: C_5  and  C_6
REMARK    5  A    between atoms: C_6  and  C_12
REMARK    6  A    between atoms: C_7  and  C_8
REMARK    7  A    between atoms: N_9  and  C_10
REMARK    8  A    between atoms: N_9  and  C_11
REMARK    9  A    between atoms: C_13  and  N_14
REMARK   10  A    between atoms: N_14  and  C_15
REMARK   11  A    between atoms: N_14  and  C_16
REMARK                            x       y       z     vdW  Elec       q    Type
REMARK                         _______ _______ _______ _____ _____    ______ ____
ROOT
ATOM      1  C   UNL     1       3.256   6.061  17.937  0.00  0.00    +0.000 C 
ATOM      2  C   UNL     1       4.559   5.796  17.679  0.00  0.00    +0.000 C 
ENDROOT
BRANCH   2   3
ATOM      3  C   UNL     1       5.605   6.815  17.396  0.00  0.00    +0.000 C 
ATOM      4  N   UNL     1       6.821   6.826  17.840  0.00  0.00    +0.000 N 
ATOM      5  C   UNL     1       7.447   5.816  18.745  0.00  0.00    +0.000 C 
ATOM      6  C   UNL     1       7.744   7.937  17.445  0.00  0.00    +0.000 C 
ENDBRANCH   2   3
BRANCH   1   8
ATOM      7  C   UNL     1       2.110   7.965  19.025  0.00  0.00    +0.000 C 
ATOM      8  C   UNL     1       2.728   7.428  17.963  0.00  0.00    +0.000 C 
BRANCH   7  10
ATOM      9  C   UNL     1       0.593   9.468  20.286  0.00  0.00    +0.000 C 
ATOM     10  N   UNL     1       1.524   9.217  19.178  0.00  0.00    +0.000 N 
ATOM     11  C   UNL     1       1.632  10.288  18.188  0.00  0.00    +0.000 C 
ENDBRANCH   7  10
ENDBRANCH   1   8
BRANCH   1  12
ATOM     12  C   UNL     1       2.427   4.883  18.245  0.00  0.00    +0.000 C 
ATOM     13  C   UNL     1       2.338   4.275  19.437  0.00  0.00    +0.000 C 
BRANCH  13  14
ATOM     14  N   UNL     1       1.554   3.194  19.821  0.00  0.00    +0.000 N 
ATOM     15  C   UNL     1       1.330   2.760  21.200  0.00  0.00    +0.000 C 
ATOM     16  C   UNL     1       0.834   2.379  18.835  0.00  0.00    +0.000 C 
ENDBRANCH  13  14
ENDBRANCH   1  12
TORSDOF 5
ENDMDL
MODEL 6
REMARK VINA RESULT:      -5.3      1.536      4.152
REMARK  Name = 
REMARK  11 active torsions:
REMARK  status: ('A' for Active; 'I' for Inactive)
REMARK    1  A    between atoms: C_1  and  N_2
REMARK    2  A    between atoms: N_2  and  C_3
REMARK    3  A    between atoms: N_2  and  C_4
REMARK    4  A    between atoms: C_5  and  C_6
REMARK    5  A    between atoms: C_6  and  C_12
REMARK    6  A    between atoms: C_7  and  C_8
REMARK    7  A    between atoms: N_9  and  C_10
REMARK    8  A    between atoms: N_9  and  C_11
REMARK    9  A    between atoms: C_13  and  N_14
REMARK   10  A    between atoms: N_14  and  C_15
REMARK   11  A    between atoms: N_14  and  C_16
REMARK                            x       y       z     vdW  Elec       q    Type
REMARK                         _______ _______ _______ _____ _____    ______ ____
ROOT
ATOM      1  C   UNL     1       2.985   6.281  18.029  0.00  0.00    +0.000 C 
ATOM      2  C   UNL     1       2.186   5.198  18.188  0.00  0.00    +0.000 C 
ENDROOT
BRANCH   2   3
ATOM      3  C   UNL     1       2.556   3.799  17.849  0.00  0.00    +0.000 C 
ATOM      4  N   UNL     1       3.127   2.934  18.627  0.00  0.00    +0.000 N 
ATOM      5  C   UNL     1       3.550   3.154  20.041  0.00  0.00    +0.000 C 
ATOM      6  C   UNL     1       3.424   1.559  18.114  0.00  0.00    +0.000 C 
ENDBRANCH   2   3
BRANCH   1   8
ATOM      7  C   UNL     1       5.408   5.821  18.217  0.00  0.00    +0.000 C 
ATOM      8  C   UNL     1       4.342   6.176  17.486  0.00  0.00    +0.000 C 
BRANCH   7  10
ATOM      9  C   UNL     1       7.673   6.830  18.135  0.00  0.00    +0.000 C 
ATOM     10  N   UNL     1       6.747   5.725  17.854  0.00  0.00    +0.000 N 
ATOM     11  C   UNL     1       7.286   4.643  17.030  0.00  0.00    +0.000 C 
ENDBRANCH   7  10
ENDBRANCH   1   8
BRANCH   1  12
ATOM     12  C   UNL     1       2.411   7.556  18.494  0.00  0.00    +0.000 C 
ATOM     13  C   UNL     1       2.283   8.673  17.763  0.00  0.00    +0.000 C 
BRANCH  13  14
ATOM     14  N   UNL     1       1.719   9.894  18.109  0.00  0.00    +0.000 N 
ATOM     15  C   UNL     1       2.352  11.200  17.923  0.00  0.00    +0.000 C 
ATOM     16  C   UNL     1       0.374   9.983  18.691  0.00  0.00    +0.000 C 
ENDBRANCH  13  14
ENDBRANCH   1  12
TORSDOF 5
ENDMDL
MODEL 7
REMARK VINA RESULT:      -5.3      0.993      1.508
REMARK  Name = 
REMARK  11 active torsions:
REMARK  status: ('A' for Active; 'I' for Inactive)
REMARK    1  A    between atoms: C_1  and  N_2
REMARK    2  A    between atoms: N_2  and  C_3
REMARK    3  A    between atoms: N_2  and  C_4
REMARK    4  A    between atoms: C_5  and  C_6
REMARK    5  A    between atoms: C_6  and  C_12
REMARK    6  A    between atoms: C_7  and  C_8
REMARK    7  A    between atoms: N_9  and  C_10
REMARK    8  A    between atoms: N_9  and  C_11
REMARK    9  A    between atoms: C_13  and  N_14
REMARK   10  A    between atoms: N_14  and  C_15
REMARK   11  A    between atoms: N_14  and  C_16
REMARK                            x       y       z     vdW  Elec       q    Type
REMARK                         _______ _______ _______ _____ _____    ______ ____
ROOT
ATOM      1  C   UNL     1       3.289   6.863  17.965  0.00  0.00    +0.000 C 
ATOM      2  C   UNL     1       4.302   6.957  17.070  0.00  0.00    +0.000 C 
ENDROOT
BRANCH   2   3
ATOM      3  C   UNL     1       5.214   5.849  16.683  0.00  0.00    +0.000 C 
ATOM      4  N   UNL     1       6.489   5.779  16.897  0.00  0.00    +0.000 N 
ATOM      5  C   UNL     1       7.334   6.804  17.579  0.00  0.00    +0.000 C 
ATOM      6  C   UNL     1       7.253   4.576  16.437  0.00  0.00    +0.000 C 
ENDBRANCH   2   3
BRANCH   1   8
ATOM      7  C   UNL     1       1.979   4.794  18.319  0.00  0.00    +0.000 C 
ATOM      8  C   UNL     1       2.982   5.614  18.667  0.00  0.00    +0.000 C 
BRANCH   7  10
ATOM      9  C   UNL     1       0.848   3.646  20.203  0.00  0.00    +0.000 C 
ATOM     10  N   UNL     1       1.545   3.614  18.911  0.00  0.00    +0.000 N 
ATOM     11  C   UNL     1       1.894   2.283  18.414  0.00  0.00    +0.000 C 
ENDBRANCH   7  10
ENDBRANCH   1   8
BRANCH   1  12
ATOM     12  C   UNL     1       2.488   8.089  18.136  0.00  0.00    +0.000 C 
ATOM     13  C   UNL     1       1.782   8.420  19.227  0.00  0.00    +0.000 C 
BRANCH  13  14
ATOM     14  N   UNL     1       1.041   9.567  19.484  0.00  0.00    +0.000 N 
ATOM     15  C   UNL     1       1.135  10.818  18.732  0.00  0.00    +0.000 C 
ATOM     16  C   UNL     1       0.044   9.613  20.559  0.00  0.00    +0.000 C 
ENDBRANCH  13  14
ENDBRANCH   1  12
TORSDOF 5
ENDMDL
MODEL 8
REMARK VINA RESULT:      -5.3      1.319      5.446
REMARK  Name = 
REMARK  11 active torsions:
REMARK  status: ('A' for Active; 'I' for Inactive)
REMARK    1  A    between atoms: C_1  and  N_2
REMARK    2  A    between atoms: N_2  and  C_3
REMARK    3  A    between atoms: N_2  and  C_4
REMARK    4  A    between atoms: C_5  and  C_6
REMARK    5  A    between atoms: C_6  and  C_12
REMARK    6  A    between atoms: C_7  and  C_8
REMARK    7  A    between atoms: N_9  and  C_10
REMARK    8  A    between atoms: N_9  and  C_11
REMARK    9  A    between atoms: C_13  and  N_14
REMARK   10  A    between atoms: N_14  and  C_15
REMARK   11  A    between atoms: N_14  and  C_16
REMARK                            x       y       z     vdW  Elec       q    Type
REMARK                         _______ _______ _______ _____ _____    ______ ____
ROOT
ATOM      1  C   UNL     1       2.828   6.574  17.975  0.00  0.00    +0.000 C 
ATOM      2  C   UNL     1       1.959   7.590  18.192  0.00  0.00    +0.000 C 
ENDROOT
BRANCH   2   3
ATOM      3  C   UNL     1       2.230   9.026  17.923  0.00  0.00    +0.000 C 
ATOM      4  N   UNL     1       1.686  10.045  18.511  0.00  0.00    +0.000 N 
ATOM      5  C   UNL     1       0.655  10.003  19.590  0.00  0.00    +0.000 C 
ATOM      6  C   UNL     1       2.085  11.431  18.111  0.00  0.00    +0.000 C 
ENDBRANCH   2   3
BRANCH   1   8
ATOM      7  C   UNL     1       5.114   5.847  17.367  0.00  0.00    +0.000 C 
ATOM      8  C   UNL     1       4.172   6.799  17.436  0.00  0.00    +0.000 C 
BRANCH   7  10
ATOM      9  C   UNL     1       6.968   4.907  16.015  0.00  0.00    +0.000 C 
ATOM     10  N   UNL     1       6.431   5.924  16.928  0.00  0.00    +0.000 N 
ATOM     11  C   UNL     1       7.407   6.873  17.462  0.00  0.00    +0.000 C 
ENDBRANCH   7  10
ENDBRANCH   1   8
BRANCH   1  12
ATOM     12  C   UNL     1       2.304   5.228  18.267  0.00  0.00    +0.000 C 
ATOM     13  C   UNL     1       2.031   4.738  19.485  0.00  0.00    +0.000 C 
BRANCH  13  14
ATOM     14  N   UNL     1       1.498   3.505  19.841  0.00  0.00    +0.000 N 
ATOM     15  C   UNL     1       1.351   3.013  21.211  0.00  0.00    +0.000 C 
ATOM     16  C   UNL     1       0.994   2.565  18.833  0.00  0.00    +0.000 C 
ENDBRANCH  13  14
ENDBRANCH   1  12
TORSDOF 5
ENDMDL
MODEL 9
REMARK VINA RESULT:      -5.3      1.395      1.823
REMARK  Name = 
REMARK  11 active torsions:
REMARK  status: ('A' for Active; 'I' for Inactive)
REMARK    1  A    between atoms: C_1  and  N_2
REMARK    2  A    between atoms: N_2  and  C_3
REMARK    3  A    between atoms: N_2  and  C_4
REMARK    4  A    between atoms: C_5  and  C_6
REMARK    5  A    between atoms: C_6  and  C_12
REMARK    6  A    between atoms: C_7  and  C_8
REMARK    7  A    between atoms: N_9  and  C_10
REMARK    8  A    between atoms: N_9  and  C_11
REMARK    9  A    between atoms: C_13  and  N_14
REMARK   10  A    between atoms: N_14  and  C_15
REMARK   11  A    between atoms: N_14  and  C_16
REMARK                            x       y       z     vdW  Elec       q    Type
REMARK                         _______ _______ _______ _____ _____    ______ ____
ROOT
ATOM      1  C   UNL     1       2.975   6.780  17.998  0.00  0.00    +0.000 C 
ATOM      2  C   UNL     1       4.174   7.082  17.445  0.00  0.00    +0.000 C 
ENDROOT
BRANCH   2   3
ATOM      3  C   UNL     1       5.072   6.118  16.758  0.00  0.00    +0.000 C 
ATOM      4  N   UNL     1       5.939   5.330  17.312  0.00  0.00    +0.000 N 
ATOM      5  C   UNL     1       6.234   5.218  18.770  0.00  0.00    +0.000 C 
ATOM      6  C   UNL     1       6.761   4.415  16.457  0.00  0.00    +0.000 C 
ENDBRANCH   2   3
BRANCH   1   8
ATOM      7  C   UNL     1       2.501   4.571  19.007  0.00  0.00    +0.000 C 
ATOM      8  C   UNL     1       2.425   5.422  17.973  0.00  0.00    +0.000 C 
BRANCH   7  10
ATOM      9  C   UNL     1       1.061   2.881  20.111  0.00  0.00    +0.000 C 
ATOM     10  N   UNL     1       2.071   3.253  19.112  0.00  0.00    +0.000 N 
ATOM     11  C   UNL     1       2.695   2.139  18.399  0.00  0.00    +0.000 C 
ENDBRANCH   7  10
ENDBRANCH   1   8
BRANCH   1  12
ATOM     12  C   UNL     1       2.243   7.924  18.571  0.00  0.00    +0.000 C 
ATOM     13  C   UNL     1       2.092   9.127  17.997  0.00  0.00    +0.000 C 
BRANCH  13  14
ATOM     14  N   UNL     1       1.387  10.236  18.447  0.00  0.00    +0.000 N 
ATOM     15  C   UNL     1       1.871  11.616  18.407  0.00  0.00    +0.000 C 
ATOM     16  C   UNL     1       0.033  10.115  18.998  0.00  0.00    +0.000 C 
ENDBRANCH  13  14
ENDBRANCH   1  12
TORSDOF 5
ENDMDL
