MODEL 1
REMARK VINA RESULT:      -7.3      0.000      0.000
REMARK  Name = 
REMARK  9 active torsions:
REMARK  status: ('A' for Active; 'I' for Inactive)
REMARK    1  A    between atoms: C_1  and  O_2
REMARK    2  A    between atoms: O_2  and  C_3
REMARK    3  A    between atoms: C_6  and  N_7
REMARK    4  A    between atoms: C_12  and  C_13
REMARK    5  A    between atoms: C_12  and  C_14
REMARK    6  A    between atoms: C_15  and  C_16
REMARK    7  A    between atoms: C_15  and  C_17
REMARK    8  A    between atoms: C_19  and  O_20
REMARK    9  A    between atoms: O_20  and  C_21
REMARK                            x       y       z     vdW  Elec       q    Type
REMARK                         _______ _______ _______ _____ _____    ______ ____
ROOT
ATOM      1  N   UNL     1       2.095   6.584  20.340  0.00  0.00    +0.000 N 
ATOM      2  C   UNL     1       3.009   6.000  19.490  0.00  0.00    +0.000 C 
ATOM      3  O   UNL     1       3.626   6.581  18.599  0.00  0.00    +0.000 OA
ATOM      4  N   UNL     1       3.266   4.669  19.743  0.00  0.00    +0.000 N 
ATOM      5  C   UNL     1       4.260   3.888  18.990  0.00  0.00    +0.000 C 
ATOM      6  C   UNL     1       3.174   2.816  18.777  0.00  0.00    +0.000 C 
ATOM      7  C   UNL     1       3.689   1.394  19.008  0.00  0.00    +0.000 C 
ATOM      8  C   UNL     1       2.561   2.921  17.371  0.00  0.00    +0.000 C 
ATOM      9  C   UNL     1       2.381   3.507  19.965  0.00  0.00    +0.000 C 
ATOM     10  C   UNL     1       2.603   2.949  21.373  0.00  0.00    +0.000 C 
ATOM     11  C   UNL     1       0.898   3.752  19.702  0.00  0.00    +0.000 C 
ATOM     12  H   UNL     1       1.767   6.008  21.099  0.00  0.00    +0.000 HD
ENDROOT
BRANCH   1  16
ATOM     13  C   UNL     1       0.689  10.598  20.362  0.00  0.00    +0.000 A 
ATOM     14  C   UNL     1       1.142  10.013  19.176  0.00  0.00    +0.000 A 
ATOM     15  C   UNL     1       1.606   8.698  19.153  0.00  0.00    +0.000 A 
ATOM     16  C   UNL     1       1.671   7.938  20.317  0.00  0.00    +0.000 A 
ATOM     17  C   UNL     1       1.297   8.549  21.519  0.00  0.00    +0.000 A 
ATOM     18  C   UNL     1       0.808   9.875  21.558  0.00  0.00    +0.000 A 
BRANCH  13  20
ATOM     19  C   UNL     1       1.112  12.919  20.527  0.00  0.00    +0.000 C 
ATOM     20  O   UNL     1       0.164  11.863  20.366  0.00  0.00    +0.000 OA
ENDBRANCH  13  20
BRANCH  18  21
ATOM     21  O   UNL     1       0.485  10.278  22.830  0.00  0.00    +0.000 OA
ATOM     22  C   UNL     1      -0.879  10.252  23.230  0.00  0.00    +0.000 C 
ENDBRANCH  18  21
ENDBRANCH   1  16
TORSDOF 3
ENDMDL
MODEL 2
REMARK VINA RESULT:      -6.8      4.687      7.124
REMARK  Name = 
REMARK  9 active torsions:
REMARK  status: ('A' for Active; 'I' for Inactive)
REMARK    1  A    between atoms: C_1  and  O_2
REMARK    2  A    between atoms: O_2  and  C_3
REMARK    3  A    between atoms: C_6  and  N_7
REMARK    4  A    between atoms: C_12  and  C_13
REMARK    5  A    between atoms: C_12  and  C_14
REMARK    6  A    between atoms: C_15  and  C_16
REMARK    7  A    between atoms: C_15  and  C_17
REMARK    8  A    between atoms: C_19  and  O_20
REMARK    9  A    between atoms: O_20  and  C_21
REMARK                            x       y       z     vdW  Elec       q    Type
REMARK                         _______ _______ _______ _____ _____    ______ ____
ROOT
ATOM      1  N   UNL     1       4.103   4.010  17.262  0.00  0.00    +0.000 N 
ATOM      2  C   UNL     1       4.031   4.368  18.591  0.00  0.00    +0.000 C 
ATOM      3  O   UNL     1       4.856   5.054  19.190  0.00  0.00    +0.000 OA
ATOM      4  N   UNL     1       2.887   3.952  19.240  0.00  0.00    +0.000 N 
ATOM      5  C   UNL     1       2.593   4.292  20.641  0.00  0.00    +0.000 C 
ATOM      6  C   UNL     1       2.321   2.797  20.889  0.00  0.00    +0.000 C 
ATOM      7  C   UNL     1       1.059   2.551  21.718  0.00  0.00    +0.000 C 
ATOM      8  C   UNL     1       3.524   2.121  21.568  0.00  0.00    +0.000 C 
ATOM      9  C   UNL     1       2.202   2.646  19.315  0.00  0.00    +0.000 C 
ATOM     10  C   UNL     1       0.803   2.760  18.705  0.00  0.00    +0.000 C 
ATOM     11  C   UNL     1       2.965   1.469  18.713  0.00  0.00    +0.000 C 
ATOM     12  H   UNL     1       3.289   3.553  16.883  0.00  0.00    +0.000 HD
ENDROOT
BRANCH   1  16
ATOM     13  C   UNL     1       7.206   5.132  14.578  0.00  0.00    +0.000 A 
ATOM     14  C   UNL     1       6.365   4.056  14.278  0.00  0.00    +0.000 A 
ATOM     15  C   UNL     1       5.344   3.677  15.148  0.00  0.00    +0.000 A 
ATOM     16  C   UNL     1       5.152   4.330  16.362  0.00  0.00    +0.000 A 
ATOM     17  C   UNL     1       6.046   5.352  16.703  0.00  0.00    +0.000 A 
ATOM     18  C   UNL     1       7.076   5.761  15.825  0.00  0.00    +0.000 A 
BRANCH  13  20
ATOM     19  C   UNL     1       7.805   5.432  12.310  0.00  0.00    +0.000 C 
ATOM     20  O   UNL     1       8.160   5.549  13.688  0.00  0.00    +0.000 OA
ENDBRANCH  13  20
BRANCH  18  21
ATOM     21  O   UNL     1       7.829   6.786  16.343  0.00  0.00    +0.000 OA
ATOM     22  C   UNL     1       7.465   7.336  17.601  0.00  0.00    +0.000 C 
ENDBRANCH  18  21
ENDBRANCH   1  16
TORSDOF 3
ENDMDL
MODEL 3
REMARK VINA RESULT:      -6.8      0.880      1.864
REMARK  Name = 
REMARK  9 active torsions:
REMARK  status: ('A' for Active; 'I' for Inactive)
REMARK    1  A    between atoms: C_1  and  O_2
REMARK    2  A    between atoms: O_2  and  C_3
REMARK    3  A    between atoms: C_6  and  N_7
REMARK    4  A    between atoms: C_12  and  C_13
REMARK    5  A    between atoms: C_12  and  C_14
REMARK    6  A    between atoms: C_15  and  C_16
REMARK    7  A    between atoms: C_15  and  C_17
REMARK    8  A    between atoms: C_19  and  O_20
REMARK    9  A    between atoms: O_20  and  C_21
REMARK                            x       y       z     vdW  Elec       q    Type
REMARK                         _______ _______ _______ _____ _____    ______ ____
ROOT
ATOM      1  N   UNL     1       1.887   6.628  20.677  0.00  0.00    +0.000 N 
ATOM      2  C   UNL     1       2.779   6.156  19.739  0.00  0.00    +0.000 C 
ATOM      3  O   UNL     1       3.320   6.831  18.865  0.00  0.00    +0.000 OA
ATOM      4  N   UNL     1       3.111   4.824  19.876  0.00  0.00    +0.000 N 
ATOM      5  C   UNL     1       4.097   4.152  19.016  0.00  0.00    +0.000 C 
ATOM      6  C   UNL     1       3.052   3.046  18.777  0.00  0.00    +0.000 C 
ATOM      7  C   UNL     1       3.643   1.638  18.871  0.00  0.00    +0.000 C 
ATOM      8  C   UNL     1       2.359   3.224  17.416  0.00  0.00    +0.000 C 
ATOM      9  C   UNL     1       2.294   3.606  20.052  0.00  0.00    +0.000 C 
ATOM     10  C   UNL     1       2.618   2.957  21.400  0.00  0.00    +0.000 C 
ATOM     11  C   UNL     1       0.789   3.796  19.885  0.00  0.00    +0.000 C 
ATOM     12  H   UNL     1       1.629   5.982  21.405  0.00  0.00    +0.000 HD
ENDROOT
BRANCH   1  16
ATOM     13  C   UNL     1       0.535  10.657  20.856  0.00  0.00    +0.000 A 
ATOM     14  C   UNL     1       0.857   9.966  22.027  0.00  0.00    +0.000 A 
ATOM     15  C   UNL     1       1.301   8.645  21.984  0.00  0.00    +0.000 A 
ATOM     16  C   UNL     1       1.401   7.958  20.779  0.00  0.00    +0.000 A 
ATOM     17  C   UNL     1       0.999   8.620  19.613  0.00  0.00    +0.000 A 
ATOM     18  C   UNL     1       0.563   9.965  19.636  0.00  0.00    +0.000 A 
BRANCH  13  20
ATOM     19  C   UNL     1       1.235  12.912  20.718  0.00  0.00    +0.000 C 
ATOM     20  O   UNL     1       0.171  11.977  20.895  0.00  0.00    +0.000 OA
ENDBRANCH  13  20
BRANCH  18  21
ATOM     21  O   UNL     1       0.230  10.429  18.388  0.00  0.00    +0.000 OA
ATOM     22  C   UNL     1      -1.139  10.447  18.006  0.00  0.00    +0.000 C 
ENDBRANCH  18  21
ENDBRANCH   1  16
TORSDOF 3
ENDMDL
MODEL 4
REMARK VINA RESULT:      -6.6      1.046      2.076
REMARK  Name = 
REMARK  9 active torsions:
REMARK  status: ('A' for Active; 'I' for Inactive)
REMARK    1  A    between atoms: C_1  and  O_2
REMARK    2  A    between atoms: O_2  and  C_3
REMARK    3  A    between atoms: C_6  and  N_7
REMARK    4  A    between atoms: C_12  and  C_13
REMARK    5  A    between atoms: C_12  and  C_14
REMARK    6  A    between atoms: C_15  and  C_16
REMARK    7  A    between atoms: C_15  and  C_17
REMARK    8  A    between atoms: C_19  and  O_20
REMARK    9  A    between atoms: O_20  and  C_21
REMARK                            x       y       z     vdW  Elec       q    Type
REMARK                         _______ _______ _______ _____ _____    ______ ____
ROOT
ATOM      1  N   UNL     1       1.764   6.869  20.760  0.00  0.00    +0.000 N 
ATOM      2  C   UNL     1       2.623   6.423  19.780  0.00  0.00    +0.000 C 
ATOM      3  O   UNL     1       3.094   7.112  18.877  0.00  0.00    +0.000 OA
ATOM      4  N   UNL     1       3.007   5.104  19.904  0.00  0.00    +0.000 N 
ATOM      5  C   UNL     1       3.971   4.462  18.997  0.00  0.00    +0.000 C 
ATOM      6  C   UNL     1       2.955   3.319  18.815  0.00  0.00    +0.000 C 
ATOM      7  C   UNL     1       3.599   1.933  18.884  0.00  0.00    +0.000 C 
ATOM      8  C   UNL     1       2.187   3.466  17.491  0.00  0.00    +0.000 C 
ATOM      9  C   UNL     1       2.243   3.860  20.126  0.00  0.00    +0.000 C 
ATOM     10  C   UNL     1       2.658   3.229  21.458  0.00  0.00    +0.000 C 
ATOM     11  C   UNL     1       0.726   3.996  20.035  0.00  0.00    +0.000 C 
ATOM     12  H   UNL     1       1.565   6.218  21.503  0.00  0.00    +0.000 HD
ENDROOT
BRANCH   1  16
ATOM     13  C   UNL     1       0.328  10.862  21.053  0.00  0.00    +0.000 A 
ATOM     14  C   UNL     1       0.238   9.995  22.146  0.00  0.00    +0.000 A 
ATOM     15  C   UNL     1       0.704   8.684  22.065  0.00  0.00    +0.000 A 
ATOM     16  C   UNL     1       1.237   8.181  20.883  0.00  0.00    +0.000 A 
ATOM     17  C   UNL     1       1.251   9.020  19.762  0.00  0.00    +0.000 A 
ATOM     18  C   UNL     1       0.798  10.358  19.831  0.00  0.00    +0.000 A 
BRANCH  13  20
ATOM     19  C   UNL     1      -0.731  12.515  22.373  0.00  0.00    +0.000 C 
ATOM     20  O   UNL     1      -0.063  12.171  21.159  0.00  0.00    +0.000 OA
ENDBRANCH  13  20
BRANCH  18  21
ATOM     21  O   UNL     1       0.910  11.012  18.629  0.00  0.00    +0.000 OA
ATOM     22  C   UNL     1       2.005  11.896  18.430  0.00  0.00    +0.000 C 
ENDBRANCH  18  21
ENDBRANCH   1  16
TORSDOF 3
ENDMDL
MODEL 5
REMARK VINA RESULT:      -6.6      4.545      7.259
REMARK  Name = 
REMARK  9 active torsions:
REMARK  status: ('A' for Active; 'I' for Inactive)
REMARK    1  A    between atoms: C_1  and  O_2
REMARK    2  A    between atoms: O_2  and  C_3
REMARK    3  A    between atoms: C_6  and  N_7
REMARK    4  A    between atoms: C_12  and  C_13
REMARK    5  A    between atoms: C_12  and  C_14
REMARK    6  A    between atoms: C_15  and  C_16
REMARK    7  A    between atoms: C_15  and  C_17
REMARK    8  A    between atoms: C_19  and  O_20
REMARK    9  A    between atoms: O_20  and  C_21
REMARK                            x       y       z     vdW  Elec       q    Type
REMARK                         _______ _______ _______ _____ _____    ______ ____
ROOT
ATOM      1  N   UNL     1       4.398   3.538  17.070  0.00  0.00    +0.000 N 
ATOM      2  C   UNL     1       3.407   4.277  17.680  0.00  0.00    +0.000 C 
ATOM      3  O   UNL     1       3.196   5.474  17.499  0.00  0.00    +0.000 OA
ATOM      4  N   UNL     1       2.568   3.552  18.501  0.00  0.00    +0.000 N 
ATOM      5  C   UNL     1       1.409   4.145  19.186  0.00  0.00    +0.000 C 
ATOM      6  C   UNL     1       1.929   3.514  20.492  0.00  0.00    +0.000 C 
ATOM      7  C   UNL     1       0.822   2.847  21.311  0.00  0.00    +0.000 C 
ATOM      8  C   UNL     1       2.657   4.554  21.359  0.00  0.00    +0.000 C 
ATOM      9  C   UNL     1       2.827   2.577  19.579  0.00  0.00    +0.000 C 
ATOM     10  C   UNL     1       2.248   1.213  19.193  0.00  0.00    +0.000 C 
ATOM     11  C   UNL     1       4.284   2.449  20.012  0.00  0.00    +0.000 C 
ATOM     12  H   UNL     1       4.364   2.544  17.223  0.00  0.00    +0.000 HD
ENDROOT
BRANCH   1  16
ATOM     13  C   UNL     1       7.268   5.167  14.386  0.00  0.00    +0.000 A 
ATOM     14  C   UNL     1       6.493   4.064  14.012  0.00  0.00    +0.000 A 
ATOM     15  C   UNL     1       5.549   3.520  14.881  0.00  0.00    +0.000 A 
ATOM     16  C   UNL     1       5.373   4.029  16.164  0.00  0.00    +0.000 A 
ATOM     17  C   UNL     1       6.206   5.078  16.571  0.00  0.00    +0.000 A 
ATOM     18  C   UNL     1       7.157   5.653  15.697  0.00  0.00    +0.000 A 
BRANCH  13  20
ATOM     19  C   UNL     1       7.863   5.510  12.123  0.00  0.00    +0.000 C 
ATOM     20  O   UNL     1       8.141   5.745  13.504  0.00  0.00    +0.000 OA
ENDBRANCH  13  20
BRANCH  18  21
ATOM     21  O   UNL     1       7.858   6.676  16.286  0.00  0.00    +0.000 OA
ATOM     22  C   UNL     1       7.418   7.175  17.541  0.00  0.00    +0.000 C 
ENDBRANCH  18  21
ENDBRANCH   1  16
TORSDOF 3
ENDMDL
MODEL 6
REMARK VINA RESULT:      -6.4      2.410      3.822
REMARK  Name = 
REMARK  9 active torsions:
REMARK  status: ('A' for Active; 'I' for Inactive)
REMARK    1  A    between atoms: C_1  and  O_2
REMARK    2  A    between atoms: O_2  and  C_3
REMARK    3  A    between atoms: C_6  and  N_7
REMARK    4  A    between atoms: C_12  and  C_13
REMARK    5  A    between atoms: C_12  and  C_14
REMARK    6  A    between atoms: C_15  and  C_16
REMARK    7  A    between atoms: C_15  and  C_17
REMARK    8  A    between atoms: C_19  and  O_20
REMARK    9  A    between atoms: O_20  and  C_21
REMARK                            x       y       z     vdW  Elec       q    Type
REMARK                         _______ _______ _______ _____ _____    ______ ____
ROOT
ATOM      1  N   UNL     1       2.930   7.367  18.119  0.00  0.00    +0.000 N 
ATOM      2  C   UNL     1       3.260   6.030  18.139  0.00  0.00    +0.000 C 
ATOM      3  O   UNL     1       2.833   5.202  18.941  0.00  0.00    +0.000 OA
ATOM      4  N   UNL     1       4.089   5.623  17.115  0.00  0.00    +0.000 N 
ATOM      5  C   UNL     1       4.499   4.223  16.924  0.00  0.00    +0.000 C 
ATOM      6  C   UNL     1       5.954   4.720  16.837  0.00  0.00    +0.000 C 
ATOM      7  C   UNL     1       6.738   4.071  15.694  0.00  0.00    +0.000 C 
ATOM      8  C   UNL     1       6.697   4.494  18.165  0.00  0.00    +0.000 C 
ATOM      9  C   UNL     1       5.355   6.166  16.582  0.00  0.00    +0.000 C 
ATOM     10  C   UNL     1       5.160   6.596  15.126  0.00  0.00    +0.000 C 
ATOM     11  C   UNL     1       5.985   7.287  17.403  0.00  0.00    +0.000 C 
ATOM     12  H   UNL     1       3.260   7.892  17.325  0.00  0.00    +0.000 HD
ENDROOT
BRANCH   1  16
ATOM     13  C   UNL     1       0.450   9.520  20.824  0.00  0.00    +0.000 A 
ATOM     14  C   UNL     1       1.088   8.344  21.230  0.00  0.00    +0.000 A 
ATOM     15  C   UNL     1       1.904   7.628  20.355  0.00  0.00    +0.000 A 
ATOM     16  C   UNL     1       2.078   8.036  19.036  0.00  0.00    +0.000 A 
ATOM     17  C   UNL     1       1.374   9.165  18.603  0.00  0.00    +0.000 A 
ATOM     18  C   UNL     1       0.556   9.913  19.481  0.00  0.00    +0.000 A 
BRANCH  13  20
ATOM     19  C   UNL     1      -0.336   9.756  23.042  0.00  0.00    +0.000 C 
ATOM     20  O   UNL     1      -0.289  10.260  21.707  0.00  0.00    +0.000 OA
ENDBRANCH  13  20
BRANCH  18  21
ATOM     21  O   UNL     1      -0.032  10.988  18.862  0.00  0.00    +0.000 OA
ATOM     22  C   UNL     1      -1.337  10.836  18.320  0.00  0.00    +0.000 C 
ENDBRANCH  18  21
ENDBRANCH   1  16
TORSDOF 3
ENDMDL
MODEL 7
REMARK VINA RESULT:      -6.4      4.933      7.239
REMARK  Name = 
REMARK  9 active torsions:
REMARK  status: ('A' for Active; 'I' for Inactive)
REMARK    1  A    between atoms: C_1  and  O_2
REMARK    2  A    between atoms: O_2  and  C_3
REMARK    3  A    between atoms: C_6  and  N_7
REMARK    4  A    between atoms: C_12  and  C_13
REMARK    5  A    between atoms: C_12  and  C_14
REMARK    6  A    between atoms: C_15  and  C_16
REMARK    7  A    between atoms: C_15  and  C_17
REMARK    8  A    between atoms: C_19  and  O_20
REMARK    9  A    between atoms: O_20  and  C_21
REMARK                            x       y       z     vdW  Elec       q    Type
REMARK                         _______ _______ _______ _____ _____    ______ ____
ROOT
ATOM      1  N   UNL     1       4.833   3.381  17.774  0.00  0.00    +0.000 N 
ATOM      2  C   UNL     1       3.479   3.123  17.788  0.00  0.00    +0.000 C 
ATOM      3  O   UNL     1       2.717   3.255  16.833  0.00  0.00    +0.000 OA
ATOM      4  N   UNL     1       3.001   2.615  18.978  0.00  0.00    +0.000 N 
ATOM      5  C   UNL     1       1.599   2.213  19.171  0.00  0.00    +0.000 C 
ATOM      6  C   UNL     1       1.587   3.068  20.451  0.00  0.00    +0.000 C 
ATOM      7  C   UNL     1       0.919   2.363  21.633  0.00  0.00    +0.000 C 
ATOM      8  C   UNL     1       0.903   4.423  20.206  0.00  0.00    +0.000 C 
ATOM      9  C   UNL     1       3.172   3.037  20.383  0.00  0.00    +0.000 C 
ATOM     10  C   UNL     1       3.884   1.934  21.171  0.00  0.00    +0.000 C 
ATOM     11  C   UNL     1       3.860   4.384  20.585  0.00  0.00    +0.000 C 
ATOM     12  H   UNL     1       5.344   3.104  18.596  0.00  0.00    +0.000 HD
ENDROOT
BRANCH   1  16
ATOM     13  C   UNL     1       7.015   5.035  14.519  0.00  0.00    +0.000 A 
ATOM     14  C   UNL     1       6.271   3.864  14.350  0.00  0.00    +0.000 A 
ATOM     15  C   UNL     1       5.551   3.310  15.407  0.00  0.00    +0.000 A 
ATOM     16  C   UNL     1       5.580   3.881  16.676  0.00  0.00    +0.000 A 
ATOM     17  C   UNL     1       6.392   5.005  16.868  0.00  0.00    +0.000 A 
ATOM     18  C   UNL     1       7.115   5.590  15.803  0.00  0.00    +0.000 A 
BRANCH  13  20
ATOM     19  C   UNL     1       7.510   4.948  12.207  0.00  0.00    +0.000 C 
ATOM     20  O   UNL     1       7.660   5.617  13.460  0.00  0.00    +0.000 OA
ENDBRANCH  13  20
BRANCH  18  21
ATOM     21  O   UNL     1       7.834   6.690  16.200  0.00  0.00    +0.000 OA
ATOM     22  C   UNL     1       7.497   7.323  17.426  0.00  0.00    +0.000 C 
ENDBRANCH  18  21
ENDBRANCH   1  16
TORSDOF 3
ENDMDL
MODEL 8
REMARK VINA RESULT:      -6.3      4.649      7.740
REMARK  Name = 
REMARK  9 active torsions:
REMARK  status: ('A' for Active; 'I' for Inactive)
REMARK    1  A    between atoms: C_1  and  O_2
REMARK    2  A    between atoms: O_2  and  C_3
REMARK    3  A    between atoms: C_6  and  N_7
REMARK    4  A    between atoms: C_12  and  C_13
REMARK    5  A    between atoms: C_12  and  C_14
REMARK    6  A    between atoms: C_15  and  C_16
REMARK    7  A    between atoms: C_15  and  C_17
REMARK    8  A    between atoms: C_19  and  O_20
REMARK    9  A    between atoms: O_20  and  C_21
REMARK                            x       y       z     vdW  Elec       q    Type
REMARK                         _______ _______ _______ _____ _____    ______ ____
ROOT
ATOM      1  N   UNL     1       4.178   4.272  17.048  0.00  0.00    +0.000 N 
ATOM      2  C   UNL     1       4.142   4.571  18.393  0.00  0.00    +0.000 C 
ATOM      3  O   UNL     1       4.985   5.227  19.000  0.00  0.00    +0.000 OA
ATOM      4  N   UNL     1       3.014   4.130  19.053  0.00  0.00    +0.000 N 
ATOM      5  C   UNL     1       2.758   4.409  20.475  0.00  0.00    +0.000 C 
ATOM      6  C   UNL     1       2.487   2.904  20.664  0.00  0.00    +0.000 C 
ATOM      7  C   UNL     1       1.246   2.626  21.514  0.00  0.00    +0.000 C 
ATOM      8  C   UNL     1       3.704   2.195  21.280  0.00  0.00    +0.000 C 
ATOM      9  C   UNL     1       2.326   2.824  19.088  0.00  0.00    +0.000 C 
ATOM     10  C   UNL     1       0.911   2.970  18.521  0.00  0.00    +0.000 C 
ATOM     11  C   UNL     1       3.068   1.673  18.415  0.00  0.00    +0.000 C 
ATOM     12  H   UNL     1       3.353   3.835  16.671  0.00  0.00    +0.000 HD
ENDROOT
BRANCH   1  16
ATOM     13  C   UNL     1       7.301   5.175  14.305  0.00  0.00    +0.000 A 
ATOM     14  C   UNL     1       7.121   5.951  15.453  0.00  0.00    +0.000 A 
ATOM     15  C   UNL     1       6.101   5.667  16.361  0.00  0.00    +0.000 A 
ATOM     16  C   UNL     1       5.205   4.628  16.136  0.00  0.00    +0.000 A 
ATOM     17  C   UNL     1       5.331   3.902  14.945  0.00  0.00    +0.000 A 
ATOM     18  C   UNL     1       6.369   4.165  14.022  0.00  0.00    +0.000 A 
BRANCH  13  20
ATOM     19  C   UNL     1       7.992   5.934  12.174  0.00  0.00    +0.000 C 
ATOM     20  O   UNL     1       8.348   5.410  13.454  0.00  0.00    +0.000 OA
ENDBRANCH  13  20
BRANCH  18  21
ATOM     21  O   UNL     1       6.323   3.334  12.930  0.00  0.00    +0.000 OA
ATOM     22  C   UNL     1       5.158   3.337  12.116  0.00  0.00    +0.000 C 
ENDBRANCH  18  21
ENDBRANCH   1  16
TORSDOF 3
ENDMDL
MODEL 9
REMARK VINA RESULT:      -6.3      1.343      1.724
REMARK  Name = 
REMARK  9 active torsions:
REMARK  status: ('A' for Active; 'I' for Inactive)
REMARK    1  A    between atoms: C_1  and  O_2
REMARK    2  A    between atoms: O_2  and  C_3
REMARK    3  A    between atoms: C_6  and  N_7
REMARK    4  A    between atoms: C_12  and  C_13
REMARK    5  A    between atoms: C_12  and  C_14
REMARK    6  A    between atoms: C_15  and  C_16
REMARK    7  A    between atoms: C_15  and  C_17
REMARK    8  A    between atoms: C_19  and  O_20
REMARK    9  A    between atoms: O_20  and  C_21
REMARK                            x       y       z     vdW  Elec       q    Type
REMARK                         _______ _______ _______ _____ _____    ______ ____
ROOT
ATOM      1  N   UNL     1       2.654   6.646  19.035  0.00  0.00    +0.000 N 
ATOM      2  C   UNL     1       2.237   5.639  18.192  0.00  0.00    +0.000 C 
ATOM      3  O   UNL     1       1.297   5.713  17.404  0.00  0.00    +0.000 OA
ATOM      4  N   UNL     1       3.013   4.499  18.225  0.00  0.00    +0.000 N 
ATOM      5  C   UNL     1       2.772   3.341  17.351  0.00  0.00    +0.000 C 
ATOM      6  C   UNL     1       2.821   2.452  18.608  0.00  0.00    +0.000 C 
ATOM      7  C   UNL     1       3.650   1.182  18.406  0.00  0.00    +0.000 C 
ATOM      8  C   UNL     1       1.406   2.076  19.075  0.00  0.00    +0.000 C 
ATOM      9  C   UNL     1       3.523   3.673  19.338  0.00  0.00    +0.000 C 
ATOM     10  C   UNL     1       5.053   3.700  19.343  0.00  0.00    +0.000 C 
ATOM     11  C   UNL     1       2.967   4.014  20.717  0.00  0.00    +0.000 C 
ATOM     12  H   UNL     1       3.516   6.480  19.529  0.00  0.00    +0.000 HD
ENDROOT
BRANCH   1  16
ATOM     13  C   UNL     1       0.728  10.404  19.548  0.00  0.00    +0.000 A 
ATOM     14  C   UNL     1       1.239  10.035  18.300  0.00  0.00    +0.000 A 
ATOM     15  C   UNL     1       1.872   8.806  18.117  0.00  0.00    +0.000 A 
ATOM     16  C   UNL     1       2.054   7.924  19.178  0.00  0.00    +0.000 A 
ATOM     17  C   UNL     1       1.619   8.328  20.446  0.00  0.00    +0.000 A 
ATOM     18  C   UNL     1       0.959   9.562  20.646  0.00  0.00    +0.000 A 
BRANCH  13  20
ATOM     19  C   UNL     1      -1.325  11.550  19.290  0.00  0.00    +0.000 C 
ATOM     20  O   UNL     1       0.040  11.578  19.707  0.00  0.00    +0.000 OA
ENDBRANCH  13  20
BRANCH  18  21
ATOM     21  O   UNL     1       0.602   9.759  21.957  0.00  0.00    +0.000 OA
ATOM     22  C   UNL     1      -0.524   9.061  22.473  0.00  0.00    +0.000 C 
ENDBRANCH  18  21
ENDBRANCH   1  16
TORSDOF 3
ENDMDL
