MODEL 1
REMARK VINA RESULT:      -8.3      0.000      0.000
REMARK  Name = 
REMARK  4 active torsions:
REMARK  status: ('A' for Active; 'I' for Inactive)
REMARK    1  A    between atoms: C_2  and  C_4
REMARK    2  A    between atoms: C_7  and  C_8
REMARK    3  A    between atoms: C_12  and  C_13
REMARK    4  A    between atoms: C_16  and  C_17
REMARK                            x       y       z     vdW  Elec       q    Type
REMARK                         _______ _______ _______ _____ _____    ______ ____
ROOT
ATOM      1  C   UNL     1       1.965   6.918  20.144  0.00  0.00    +0.000 A 
ATOM      2  C   UNL     1       1.597   5.807  20.926  0.00  0.00    +0.000 A 
ATOM      3  C   UNL     1       2.075   4.537  20.623  0.00  0.00    +0.000 A 
ATOM      4  C   UNL     1       2.903   4.344  19.521  0.00  0.00    +0.000 A 
ATOM      5  C   UNL     1       3.298   5.435  18.724  0.00  0.00    +0.000 A 
ATOM      6  C   UNL     1       2.844   6.723  19.062  0.00  0.00    +0.000 A 
ENDROOT
BRANCH   1  10
ATOM      7  C   UNL     1       0.353  10.834  20.891  0.00  0.00    +0.000 A 
ATOM      8  C   UNL     1       0.482   9.913  21.943  0.00  0.00    +0.000 A 
ATOM      9  C   UNL     1       1.018   8.651  21.718  0.00  0.00    +0.000 A 
ATOM     10  C   UNL     1       1.421   8.278  20.424  0.00  0.00    +0.000 A 
ATOM     11  N   UNL     1       1.267   9.172  19.412  0.00  0.00    +0.000 NA
ATOM     12  C   UNL     1       0.767  10.421  19.607  0.00  0.00    +0.000 A 
BRANCH   7  14
ATOM     13  N   UNL     1       0.480  13.069  21.768  0.00  0.00    +0.000 NA
ATOM     14  C   UNL     1      -0.209  12.207  21.104  0.00  0.00    +0.000 C 
ATOM     15  N   UNL     1      -1.486  12.591  20.599  0.00  0.00    +0.000 N 
ATOM     16  H   UNL     1       0.134  14.023  21.940  0.00  0.00    +0.000 HD
ATOM     17  H   UNL     1      -1.843  13.542  20.761  0.00  0.00    +0.000 HD
ATOM     18  H   UNL     1      -2.085  11.954  20.061  0.00  0.00    +0.000 HD
ENDBRANCH   7  14
ENDBRANCH   1  10
BRANCH   5  19
ATOM     19  C   UNL     1       4.164   5.241  17.529  0.00  0.00    +0.000 A 
ATOM     20  C   UNL     1       4.611   6.324  16.763  0.00  0.00    +0.000 A 
ATOM     21  C   UNL     1       5.429   6.101  15.658  0.00  0.00    +0.000 A 
ATOM     22  C   UNL     1       5.800   4.796  15.276  0.00  0.00    +0.000 A 
ATOM     23  C   UNL     1       5.321   3.737  16.083  0.00  0.00    +0.000 A 
ATOM     24  N   UNL     1       4.545   3.985  17.172  0.00  0.00    +0.000 NA
BRANCH  22  25
ATOM     25  C   UNL     1       6.670   4.552  14.063  0.00  0.00    +0.000 C 
ATOM     26  N   UNL     1       6.462   3.561  13.265  0.00  0.00    +0.000 NA
ATOM     27  N   UNL     1       7.756   5.417  13.741  0.00  0.00    +0.000 N 
ATOM     28  H   UNL     1       5.714   2.867  13.370  0.00  0.00    +0.000 HD
ATOM     29  H   UNL     1       8.021   6.230  14.310  0.00  0.00    +0.000 HD
ATOM     30  H   UNL     1       8.327   5.231  12.905  0.00  0.00    +0.000 HD
ENDBRANCH  22  25
ENDBRANCH   5  19
TORSDOF 4
ENDMDL
MODEL 2
REMARK VINA RESULT:      -8.3      0.135      8.722
REMARK  Name = 
REMARK  4 active torsions:
REMARK  status: ('A' for Active; 'I' for Inactive)
REMARK    1  A    between atoms: C_2  and  C_4
REMARK    2  A    between atoms: C_7  and  C_8
REMARK    3  A    between atoms: C_12  and  C_13
REMARK    4  A    between atoms: C_16  and  C_17
REMARK                            x       y       z     vdW  Elec       q    Type
REMARK                         _______ _______ _______ _____ _____    ______ ____
ROOT
ATOM      1  C   UNL     1       3.273   5.388  18.636  0.00  0.00    +0.000 A 
ATOM      2  C   UNL     1       2.981   4.313  19.497  0.00  0.00    +0.000 A 
ATOM      3  C   UNL     1       2.175   4.498  20.615  0.00  0.00    +0.000 A 
ATOM      4  C   UNL     1       1.669   5.761  20.913  0.00  0.00    +0.000 A 
ATOM      5  C   UNL     1       1.934   6.855  20.068  0.00  0.00    +0.000 A 
ATOM      6  C   UNL     1       2.716   6.650  18.916  0.00  0.00    +0.000 A 
ENDROOT
BRANCH   1  10
ATOM      7  C   UNL     1       5.833   4.845  15.224  0.00  0.00    +0.000 A 
ATOM      8  C   UNL     1       5.486   6.139  15.647  0.00  0.00    +0.000 A 
ATOM      9  C   UNL     1       4.674   6.328  16.758  0.00  0.00    +0.000 A 
ATOM     10  C   UNL     1       4.176   5.218  17.463  0.00  0.00    +0.000 A 
ATOM     11  N   UNL     1       4.501   3.972  17.026  0.00  0.00    +0.000 NA
ATOM     12  C   UNL     1       5.312   3.758  15.957  0.00  0.00    +0.000 A 
BRANCH   7  14
ATOM     13  N   UNL     1       6.497   3.586  13.287  0.00  0.00    +0.000 NA
ATOM     14  C   UNL     1       6.717   4.610  14.037  0.00  0.00    +0.000 C 
ATOM     15  N   UNL     1       7.798   5.480  13.712  0.00  0.00    +0.000 N 
ATOM     16  H   UNL     1       7.079   3.385  12.461  0.00  0.00    +0.000 HD
ATOM     17  H   UNL     1       8.385   5.293  12.888  0.00  0.00    +0.000 HD
ATOM     18  H   UNL     1       8.026   6.314  14.265  0.00  0.00    +0.000 HD
ENDBRANCH   7  14
ENDBRANCH   1  10
BRANCH   5  19
ATOM     19  C   UNL     1       1.420   8.215  20.387  0.00  0.00    +0.000 A 
ATOM     20  C   UNL     1       1.077   8.582  21.693  0.00  0.00    +0.000 A 
ATOM     21  C   UNL     1       0.610   9.869  21.953  0.00  0.00    +0.000 A 
ATOM     22  C   UNL     1       0.451  10.809  20.914  0.00  0.00    +0.000 A 
ATOM     23  C   UNL     1       0.812  10.388  19.613  0.00  0.00    +0.000 A 
ATOM     24  N   UNL     1       1.289   9.134  19.392  0.00  0.00    +0.000 NA
BRANCH  22  25
ATOM     25  C   UNL     1      -0.077  12.200  21.192  0.00  0.00    +0.000 C 
ATOM     26  N   UNL     1       0.685  13.139  21.639  0.00  0.00    +0.000 NA
ATOM     27  N   UNL     1      -1.442  12.536  20.960  0.00  0.00    +0.000 N 
ATOM     28  H   UNL     1       1.685  13.041  21.841  0.00  0.00    +0.000 HD
ATOM     29  H   UNL     1      -2.140  11.867  20.617  0.00  0.00    +0.000 HD
ATOM     30  H   UNL     1      -1.771  13.493  21.152  0.00  0.00    +0.000 HD
ENDBRANCH  22  25
ENDBRANCH   5  19
TORSDOF 4
ENDMDL
MODEL 3
REMARK VINA RESULT:      -8.2      0.639      1.233
REMARK  Name = 
REMARK  4 active torsions:
REMARK  status: ('A' for Active; 'I' for Inactive)
REMARK    1  A    between atoms: C_2  and  C_4
REMARK    2  A    between atoms: C_7  and  C_8
REMARK    3  A    between atoms: C_12  and  C_13
REMARK    4  A    between atoms: C_16  and  C_17
REMARK                            x       y       z     vdW  Elec       q    Type
REMARK                         _______ _______ _______ _____ _____    ______ ____
ROOT
ATOM      1  C   UNL     1       2.033   6.769  20.120  0.00  0.00    +0.000 A 
ATOM      2  C   UNL     1       1.652   5.659  20.898  0.00  0.00    +0.000 A 
ATOM      3  C   UNL     1       2.118   4.385  20.592  0.00  0.00    +0.000 A 
ATOM      4  C   UNL     1       2.947   4.187  19.491  0.00  0.00    +0.000 A 
ATOM      5  C   UNL     1       3.355   5.276  18.698  0.00  0.00    +0.000 A 
ATOM      6  C   UNL     1       2.912   6.568  19.039  0.00  0.00    +0.000 A 
ENDROOT
BRANCH   1  10
ATOM      7  C   UNL     1       0.459  10.699  20.875  0.00  0.00    +0.000 A 
ATOM      8  C   UNL     1       0.570   9.770  21.923  0.00  0.00    +0.000 A 
ATOM      9  C   UNL     1       1.093   8.503  21.695  0.00  0.00    +0.000 A 
ATOM     10  C   UNL     1       1.503   8.133  20.403  0.00  0.00    +0.000 A 
ATOM     11  N   UNL     1       1.366   9.034  19.394  0.00  0.00    +0.000 NA
ATOM     12  C   UNL     1       0.879  10.288  19.593  0.00  0.00    +0.000 A 
BRANCH   7  14
ATOM     13  N   UNL     1      -0.208  12.520  22.295  0.00  0.00    +0.000 NA
ATOM     14  C   UNL     1      -0.089  12.077  21.092  0.00  0.00    +0.000 C 
ATOM     15  N   UNL     1      -0.488  12.913  20.008  0.00  0.00    +0.000 N 
ATOM     16  H   UNL     1      -0.580  13.460  22.491  0.00  0.00    +0.000 HD
ATOM     17  H   UNL     1      -0.859  13.855  20.190  0.00  0.00    +0.000 HD
ATOM     18  H   UNL     1      -0.418  12.623  19.027  0.00  0.00    +0.000 HD
ENDBRANCH   7  14
ENDBRANCH   1  10
BRANCH   5  19
ATOM     19  C   UNL     1       4.220   5.077  17.504  0.00  0.00    +0.000 A 
ATOM     20  C   UNL     1       4.647   3.803  17.111  0.00  0.00    +0.000 A 
ATOM     21  C   UNL     1       5.448   3.657  15.981  0.00  0.00    +0.000 A 
ATOM     22  C   UNL     1       5.862   4.777  15.232  0.00  0.00    +0.000 A 
ATOM     23  C   UNL     1       5.404   6.042  15.671  0.00  0.00    +0.000 A 
ATOM     24  N   UNL     1       4.602   6.152  16.763  0.00  0.00    +0.000 NA
BRANCH  22  25
ATOM     25  C   UNL     1       6.750   4.621  14.016  0.00  0.00    +0.000 C 
ATOM     26  N   UNL     1       7.789   5.362  13.835  0.00  0.00    +0.000 NA
ATOM     27  N   UNL     1       6.482   3.637  13.021  0.00  0.00    +0.000 N 
ATOM     28  H   UNL     1       8.105   6.100  14.472  0.00  0.00    +0.000 HD
ATOM     29  H   UNL     1       5.677   3.001  13.056  0.00  0.00    +0.000 HD
ATOM     30  H   UNL     1       7.108   3.550  12.208  0.00  0.00    +0.000 HD
ENDBRANCH  22  25
ENDBRANCH   5  19
TORSDOF 4
ENDMDL
MODEL 4
REMARK VINA RESULT:      -8.2      0.727      1.084
REMARK  Name = 
REMARK  4 active torsions:
REMARK  status: ('A' for Active; 'I' for Inactive)
REMARK    1  A    between atoms: C_2  and  C_4
REMARK    2  A    between atoms: C_7  and  C_8
REMARK    3  A    between atoms: C_12  and  C_13
REMARK    4  A    between atoms: C_16  and  C_17
REMARK                            x       y       z     vdW  Elec       q    Type
REMARK                         _______ _______ _______ _____ _____    ______ ____
ROOT
ATOM      1  C   UNL     1       1.945   6.804  20.198  0.00  0.00    +0.000 A 
ATOM      2  C   UNL     1       1.565   5.672  20.943  0.00  0.00    +0.000 A 
ATOM      3  C   UNL     1       2.038   4.409  20.606  0.00  0.00    +0.000 A 
ATOM      4  C   UNL     1       2.874   4.244  19.505  0.00  0.00    +0.000 A 
ATOM      5  C   UNL     1       3.282   5.356  18.744  0.00  0.00    +0.000 A 
ATOM      6  C   UNL     1       2.832   6.636  19.117  0.00  0.00    +0.000 A 
ENDROOT
BRANCH   1  10
ATOM      7  C   UNL     1       0.439  10.713  21.170  0.00  0.00    +0.000 A 
ATOM      8  C   UNL     1       0.766  10.393  19.841  0.00  0.00    +0.000 A 
ATOM      9  C   UNL     1       1.237   9.128  19.512  0.00  0.00    +0.000 A 
ATOM     10  C   UNL     1       1.407   8.157  20.514  0.00  0.00    +0.000 A 
ATOM     11  N   UNL     1       1.110   8.490  21.799  0.00  0.00    +0.000 NA
ATOM     12  C   UNL     1       0.626   9.712  22.146  0.00  0.00    +0.000 A 
BRANCH   7  14
ATOM     13  N   UNL     1      -0.490  12.256  22.761  0.00  0.00    +0.000 NA
ATOM     14  C   UNL     1      -0.082  12.064  21.554  0.00  0.00    +0.000 C 
ATOM     15  N   UNL     1      -0.147  13.144  20.626  0.00  0.00    +0.000 N 
ATOM     16  H   UNL     1      -0.857  13.168  23.069  0.00  0.00    +0.000 HD
ATOM     17  H   UNL     1      -0.508  14.061  20.922  0.00  0.00    +0.000 HD
ATOM     18  H   UNL     1       0.164  13.059  19.652  0.00  0.00    +0.000 HD
ENDBRANCH   7  14
ENDBRANCH   1  10
BRANCH   5  19
ATOM     19  C   UNL     1       4.155   5.193  17.550  0.00  0.00    +0.000 A 
ATOM     20  C   UNL     1       4.562   6.291  16.783  0.00  0.00    +0.000 A 
ATOM     21  C   UNL     1       5.390   6.099  15.679  0.00  0.00    +0.000 A 
ATOM     22  C   UNL     1       5.810   4.807  15.301  0.00  0.00    +0.000 A 
ATOM     23  C   UNL     1       5.371   3.732  16.109  0.00  0.00    +0.000 A 
ATOM     24  N   UNL     1       4.585   3.952  17.196  0.00  0.00    +0.000 NA
BRANCH  22  25
ATOM     25  C   UNL     1       6.691   4.595  14.088  0.00  0.00    +0.000 C 
ATOM     26  N   UNL     1       6.485   3.629  13.260  0.00  0.00    +0.000 NA
ATOM     27  N   UNL     1       7.784   5.463  13.803  0.00  0.00    +0.000 N 
ATOM     28  H   UNL     1       5.732   2.938  13.336  0.00  0.00    +0.000 HD
ATOM     29  H   UNL     1       8.049   6.256  14.399  0.00  0.00    +0.000 HD
ATOM     30  H   UNL     1       8.363   5.298  12.967  0.00  0.00    +0.000 HD
ENDBRANCH  22  25
ENDBRANCH   5  19
TORSDOF 4
ENDMDL
MODEL 5
REMARK VINA RESULT:      -8.2      0.585      8.660
REMARK  Name = 
REMARK  4 active torsions:
REMARK  status: ('A' for Active; 'I' for Inactive)
REMARK    1  A    between atoms: C_2  and  C_4
REMARK    2  A    between atoms: C_7  and  C_8
REMARK    3  A    between atoms: C_12  and  C_13
REMARK    4  A    between atoms: C_16  and  C_17
REMARK                            x       y       z     vdW  Elec       q    Type
REMARK                         _______ _______ _______ _____ _____    ______ ____
ROOT
ATOM      1  C   UNL     1       3.283   5.282  18.567  0.00  0.00    +0.000 A 
ATOM      2  C   UNL     1       2.994   4.225  19.450  0.00  0.00    +0.000 A 
ATOM      3  C   UNL     1       2.210   4.438  20.579  0.00  0.00    +0.000 A 
ATOM      4  C   UNL     1       1.724   5.711  20.865  0.00  0.00    +0.000 A 
ATOM      5  C   UNL     1       1.987   6.789  19.998  0.00  0.00    +0.000 A 
ATOM      6  C   UNL     1       2.746   6.556  18.836  0.00  0.00    +0.000 A 
ENDROOT
BRANCH   1  10
ATOM      7  C   UNL     1       5.866   4.764  15.168  0.00  0.00    +0.000 A 
ATOM      8  C   UNL     1       5.449   3.648  15.914  0.00  0.00    +0.000 A 
ATOM      9  C   UNL     1       4.601   3.801  17.004  0.00  0.00    +0.000 A 
ATOM     10  C   UNL     1       4.164   5.083  17.381  0.00  0.00    +0.000 A 
ATOM     11  N   UNL     1       4.596   6.154  16.664  0.00  0.00    +0.000 NA
ATOM     12  C   UNL     1       5.407   6.032  15.581  0.00  0.00    +0.000 A 
BRANCH   7  14
ATOM     13  N   UNL     1       7.744   5.461  13.840  0.00  0.00    +0.000 NA
ATOM     14  C   UNL     1       6.771   4.630  13.981  0.00  0.00    +0.000 C 
ATOM     15  N   UNL     1       6.587   3.613  12.998  0.00  0.00    +0.000 N 
ATOM     16  H   UNL     1       8.391   5.407  13.040  0.00  0.00    +0.000 HD
ATOM     17  H   UNL     1       7.227   3.546  12.196  0.00  0.00    +0.000 HD
ATOM     18  H   UNL     1       5.833   2.918  13.052  0.00  0.00    +0.000 HD
ENDBRANCH   7  14
ENDBRANCH   1  10
BRANCH   5  19
ATOM     19  C   UNL     1       1.495   8.159  20.303  0.00  0.00    +0.000 A 
ATOM     20  C   UNL     1       1.103   8.527  21.596  0.00  0.00    +0.000 A 
ATOM     21  C   UNL     1       0.659   9.825  21.844  0.00  0.00    +0.000 A 
ATOM     22  C   UNL     1       0.572  10.775  20.807  0.00  0.00    +0.000 A 
ATOM     23  C   UNL     1       0.980  10.353  19.519  0.00  0.00    +0.000 A 
ATOM     24  N   UNL     1       1.434   9.088  19.311  0.00  0.00    +0.000 NA
BRANCH  22  25
ATOM     25  C   UNL     1       0.069  12.178  21.071  0.00  0.00    +0.000 C 
ATOM     26  N   UNL     1       0.838  13.098  21.544  0.00  0.00    +0.000 NA
ATOM     27  N   UNL     1      -1.280  12.547  20.797  0.00  0.00    +0.000 N 
ATOM     28  H   UNL     1       1.829  12.975  21.778  0.00  0.00    +0.000 HD
ATOM     29  H   UNL     1      -1.982  11.895  20.430  0.00  0.00    +0.000 HD
ATOM     30  H   UNL     1      -1.592  13.512  20.980  0.00  0.00    +0.000 HD
ENDBRANCH  22  25
ENDBRANCH   5  19
TORSDOF 4
ENDMDL
MODEL 6
REMARK VINA RESULT:      -8.1      0.891      8.650
REMARK  Name = 
REMARK  4 active torsions:
REMARK  status: ('A' for Active; 'I' for Inactive)
REMARK    1  A    between atoms: C_2  and  C_4
REMARK    2  A    between atoms: C_7  and  C_8
REMARK    3  A    between atoms: C_12  and  C_13
REMARK    4  A    between atoms: C_16  and  C_17
REMARK                            x       y       z     vdW  Elec       q    Type
REMARK                         _______ _______ _______ _____ _____    ______ ____
ROOT
ATOM      1  C   UNL     1       3.256   5.265  18.634  0.00  0.00    +0.000 A 
ATOM      2  C   UNL     1       2.960   4.196  19.501  0.00  0.00    +0.000 A 
ATOM      3  C   UNL     1       2.170   4.395  20.628  0.00  0.00    +0.000 A 
ATOM      4  C   UNL     1       1.685   5.665  20.929  0.00  0.00    +0.000 A 
ATOM      5  C   UNL     1       1.954   6.754  20.078  0.00  0.00    +0.000 A 
ATOM      6  C   UNL     1       2.720   6.536  18.918  0.00  0.00    +0.000 A 
ENDROOT
BRANCH   1  10
ATOM      7  C   UNL     1       5.857   4.789  15.243  0.00  0.00    +0.000 A 
ATOM      8  C   UNL     1       5.436   3.664  15.972  0.00  0.00    +0.000 A 
ATOM      9  C   UNL     1       4.582   3.804  17.059  0.00  0.00    +0.000 A 
ATOM     10  C   UNL     1       4.143   5.080  17.450  0.00  0.00    +0.000 A 
ATOM     11  N   UNL     1       4.580   6.161  16.750  0.00  0.00    +0.000 NA
ATOM     12  C   UNL     1       5.397   6.052  15.669  0.00  0.00    +0.000 A 
BRANCH   7  14
ATOM     13  N   UNL     1       7.752   5.492  13.942  0.00  0.00    +0.000 NA
ATOM     14  C   UNL     1       6.768   4.670  14.059  0.00  0.00    +0.000 C 
ATOM     15  N   UNL     1       6.580   3.676  13.054  0.00  0.00    +0.000 N 
ATOM     16  H   UNL     1       8.403   5.448  13.145  0.00  0.00    +0.000 HD
ATOM     17  H   UNL     1       7.224   3.619  12.254  0.00  0.00    +0.000 HD
ATOM     18  H   UNL     1       5.818   2.989  13.088  0.00  0.00    +0.000 HD
ENDBRANCH   7  14
ENDBRANCH   1  10
BRANCH   5  19
ATOM     19  C   UNL     1       1.463   8.121  20.400  0.00  0.00    +0.000 A 
ATOM     20  C   UNL     1       1.297   9.094  19.406  0.00  0.00    +0.000 A 
ATOM     21  C   UNL     1       0.824  10.359  19.746  0.00  0.00    +0.000 A 
ATOM     22  C   UNL     1       0.530  10.692  21.084  0.00  0.00    +0.000 A 
ATOM     23  C   UNL     1       0.716   9.674  22.049  0.00  0.00    +0.000 A 
ATOM     24  N   UNL     1       1.154   8.440  21.686  0.00  0.00    +0.000 NA
BRANCH  22  25
ATOM     25  C   UNL     1       0.037  12.074  21.456  0.00  0.00    +0.000 C 
ATOM     26  N   UNL     1      -0.368  12.352  22.648  0.00  0.00    +0.000 NA
ATOM     27  N   UNL     1       0.011  13.134  20.505  0.00  0.00    +0.000 N 
ATOM     28  H   UNL     1      -0.395  11.690  23.431  0.00  0.00    +0.000 HD
ATOM     29  H   UNL     1       0.298  13.025  19.526  0.00  0.00    +0.000 HD
ATOM     30  H   UNL     1      -0.324  14.067  20.790  0.00  0.00    +0.000 HD
ENDBRANCH  22  25
ENDBRANCH   5  19
TORSDOF 4
ENDMDL
MODEL 7
REMARK VINA RESULT:      -8.1      0.828      1.421
REMARK  Name = 
REMARK  4 active torsions:
REMARK  status: ('A' for Active; 'I' for Inactive)
REMARK    1  A    between atoms: C_2  and  C_4
REMARK    2  A    between atoms: C_7  and  C_8
REMARK    3  A    between atoms: C_12  and  C_13
REMARK    4  A    between atoms: C_16  and  C_17
REMARK                            x       y       z     vdW  Elec       q    Type
REMARK                         _______ _______ _______ _____ _____    ______ ____
ROOT
ATOM      1  C   UNL     1       1.950   6.889  20.107  0.00  0.00    +0.000 A 
ATOM      2  C   UNL     1       1.590   5.804  20.929  0.00  0.00    +0.000 A 
ATOM      3  C   UNL     1       2.076   4.527  20.671  0.00  0.00    +0.000 A 
ATOM      4  C   UNL     1       2.905   4.300  19.575  0.00  0.00    +0.000 A 
ATOM      5  C   UNL     1       3.292   5.365  18.739  0.00  0.00    +0.000 A 
ATOM      6  C   UNL     1       2.829   6.661  19.032  0.00  0.00    +0.000 A 
ENDROOT
BRANCH   1  10
ATOM      7  C   UNL     1       0.398  10.832  20.839  0.00  0.00    +0.000 A 
ATOM      8  C   UNL     1       0.823  10.469  19.550  0.00  0.00    +0.000 A 
ATOM      9  C   UNL     1       1.310   9.193  19.297  0.00  0.00    +0.000 A 
ATOM     10  C   UNL     1       1.398   8.254  20.339  0.00  0.00    +0.000 A 
ATOM     11  N   UNL     1       1.006   8.628  21.586  0.00  0.00    +0.000 NA
ATOM     12  C   UNL     1       0.504   9.862  21.857  0.00  0.00    +0.000 A 
BRANCH   7  14
ATOM     13  N   UNL     1      -0.264  12.564  22.368  0.00  0.00    +0.000 NA
ATOM     14  C   UNL     1      -0.143  12.197  21.140  0.00  0.00    +0.000 C 
ATOM     15  N   UNL     1      -0.533  13.102  20.110  0.00  0.00    +0.000 N 
ATOM     16  H   UNL     1      -0.631  13.492  22.623  0.00  0.00    +0.000 HD
ATOM     17  H   UNL     1      -0.898  14.033  20.350  0.00  0.00    +0.000 HD
ATOM     18  H   UNL     1      -0.460  12.874  19.113  0.00  0.00    +0.000 HD
ENDBRANCH   7  14
ENDBRANCH   1  10
BRANCH   5  19
ATOM     19  C   UNL     1       4.157   5.134  17.551  0.00  0.00    +0.000 A 
ATOM     20  C   UNL     1       4.559   3.847  17.174  0.00  0.00    +0.000 A 
ATOM     21  C   UNL     1       5.360   3.671  16.048  0.00  0.00    +0.000 A 
ATOM     22  C   UNL     1       5.799   4.774  15.287  0.00  0.00    +0.000 A 
ATOM     23  C   UNL     1       5.365   6.052  15.710  0.00  0.00    +0.000 A 
ATOM     24  N   UNL     1       4.562   6.192  16.798  0.00  0.00    +0.000 NA
BRANCH  22  25
ATOM     25  C   UNL     1       6.687   4.585  14.076  0.00  0.00    +0.000 C 
ATOM     26  N   UNL     1       6.516   3.609  13.253  0.00  0.00    +0.000 NA
ATOM     27  N   UNL     1       7.750   5.490  13.787  0.00  0.00    +0.000 N 
ATOM     28  H   UNL     1       5.787   2.891  13.333  0.00  0.00    +0.000 HD
ATOM     29  H   UNL     1       7.986   6.295  14.378  0.00  0.00    +0.000 HD
ATOM     30  H   UNL     1       8.334   5.340  12.952  0.00  0.00    +0.000 HD
ENDBRANCH  22  25
ENDBRANCH   5  19
TORSDOF 4
ENDMDL
MODEL 8
REMARK VINA RESULT:      -8.0      1.128      1.458
REMARK  Name = 
REMARK  4 active torsions:
REMARK  status: ('A' for Active; 'I' for Inactive)
REMARK    1  A    between atoms: C_2  and  C_4
REMARK    2  A    between atoms: C_7  and  C_8
REMARK    3  A    between atoms: C_12  and  C_13
REMARK    4  A    between atoms: C_16  and  C_17
REMARK                            x       y       z     vdW  Elec       q    Type
REMARK                         _______ _______ _______ _____ _____    ______ ____
ROOT
ATOM      1  C   UNL     1       1.737   7.739  19.805  0.00  0.00    +0.000 A 
ATOM      2  C   UNL     1       1.387   6.794  20.789  0.00  0.00    +0.000 A 
ATOM      3  C   UNL     1       1.894   5.500  20.740  0.00  0.00    +0.000 A 
ATOM      4  C   UNL     1       2.733   5.114  19.699  0.00  0.00    +0.000 A 
ATOM      5  C   UNL     1       3.110   6.036  18.705  0.00  0.00    +0.000 A 
ATOM      6  C   UNL     1       2.626   7.356  18.784  0.00  0.00    +0.000 A 
ENDROOT
BRANCH   1  10
ATOM      7  C   UNL     1       0.067  11.701  19.756  0.00  0.00    +0.000 A 
ATOM      8  C   UNL     1      -0.270  10.807  20.786  0.00  0.00    +0.000 A 
ATOM      9  C   UNL     1       0.277   9.530  20.822  0.00  0.00    +0.000 A 
ATOM     10  C   UNL     1       1.163   9.115  19.814  0.00  0.00    +0.000 A 
ATOM     11  N   UNL     1       1.459   9.983  18.810  0.00  0.00    +0.000 NA
ATOM     12  C   UNL     1       0.958  11.245  18.762  0.00  0.00    +0.000 A 
BRANCH   7  14
ATOM     13  N   UNL     1      -0.809  13.685  20.794  0.00  0.00    +0.000 NA
ATOM     14  C   UNL     1      -0.497  13.089  19.696  0.00  0.00    +0.000 C 
ATOM     15  N   UNL     1      -0.702  13.771  18.461  0.00  0.00    +0.000 N 
ATOM     16  H   UNL     1      -1.199  14.638  20.801  0.00  0.00    +0.000 HD
ATOM     17  H   UNL     1      -1.088  14.725  18.453  0.00  0.00    +0.000 HD
ATOM     18  H   UNL     1      -0.473  13.355  17.551  0.00  0.00    +0.000 HD
ENDBRANCH   7  14
ENDBRANCH   1  10
BRANCH   5  19
ATOM     19  C   UNL     1       3.986   5.632  17.572  0.00  0.00    +0.000 A 
ATOM     20  C   UNL     1       4.256   4.285  17.297  0.00  0.00    +0.000 A 
ATOM     21  C   UNL     1       5.072   3.947  16.220  0.00  0.00    +0.000 A 
ATOM     22  C   UNL     1       5.658   4.940  15.410  0.00  0.00    +0.000 A 
ATOM     23  C   UNL     1       5.355   6.285  15.731  0.00  0.00    +0.000 A 
ATOM     24  N   UNL     1       4.534   6.586  16.772  0.00  0.00    +0.000 NA
BRANCH  22  25
ATOM     25  C   UNL     1       6.564   4.574  14.254  0.00  0.00    +0.000 C 
ATOM     26  N   UNL     1       6.339   3.540  13.517  0.00  0.00    +0.000 NA
ATOM     27  N   UNL     1       7.702   5.364  13.922  0.00  0.00    +0.000 N 
ATOM     28  H   UNL     1       5.555   2.891  13.635  0.00  0.00    +0.000 HD
ATOM     29  H   UNL     1       7.983   6.201  14.446  0.00  0.00    +0.000 HD
ATOM     30  H   UNL     1       8.296   5.094  13.125  0.00  0.00    +0.000 HD
ENDBRANCH  22  25
ENDBRANCH   5  19
TORSDOF 4
ENDMDL
MODEL 9
REMARK VINA RESULT:      -7.9      0.928      8.743
REMARK  Name = 
REMARK  4 active torsions:
REMARK  status: ('A' for Active; 'I' for Inactive)
REMARK    1  A    between atoms: C_2  and  C_4
REMARK    2  A    between atoms: C_7  and  C_8
REMARK    3  A    between atoms: C_12  and  C_13
REMARK    4  A    between atoms: C_16  and  C_17
REMARK                            x       y       z     vdW  Elec       q    Type
REMARK                         _______ _______ _______ _____ _____    ______ ____
ROOT
ATOM      1  C   UNL     1       3.111   6.040  18.608  0.00  0.00    +0.000 A 
ATOM      2  C   UNL     1       2.817   5.118  19.630  0.00  0.00    +0.000 A 
ATOM      3  C   UNL     1       1.996   5.476  20.694  0.00  0.00    +0.000 A 
ATOM      4  C   UNL     1       1.478   6.766  20.777  0.00  0.00    +0.000 A 
ATOM      5  C   UNL     1       1.744   7.709  19.767  0.00  0.00    +0.000 A 
ATOM      6  C   UNL     1       2.541   7.326  18.672  0.00  0.00    +0.000 A 
ENDROOT
BRANCH   1  10
ATOM      7  C   UNL     1       5.712   4.973  15.355  0.00  0.00    +0.000 A 
ATOM      8  C   UNL     1       5.397   6.321  15.593  0.00  0.00    +0.000 A 
ATOM      9  C   UNL     1       4.572   6.680  16.651  0.00  0.00    +0.000 A 
ATOM     10  C   UNL     1       4.028   5.689  17.488  0.00  0.00    +0.000 A 
ATOM     11  N   UNL     1       4.323   4.388  17.229  0.00  0.00    +0.000 NA
ATOM     12  C   UNL     1       5.145   4.009  16.215  0.00  0.00    +0.000 A 
BRANCH   7  14
ATOM     13  N   UNL     1       6.362   3.454  13.609  0.00  0.00    +0.000 NA
ATOM     14  C   UNL     1       6.609   4.555  14.229  0.00  0.00    +0.000 C 
ATOM     15  N   UNL     1       7.730   5.336  13.823  0.00  0.00    +0.000 N 
ATOM     16  H   UNL     1       6.951   3.127  12.830  0.00  0.00    +0.000 HD
ATOM     17  H   UNL     1       8.325   5.023  13.044  0.00  0.00    +0.000 HD
ATOM     18  H   UNL     1       7.981   6.224  14.272  0.00  0.00    +0.000 HD
ENDBRANCH   7  14
ENDBRANCH   1  10
BRANCH   5  19
ATOM     19  C   UNL     1       1.217   9.098  19.854  0.00  0.00    +0.000 A 
ATOM     20  C   UNL     1       1.077   9.903  18.716  0.00  0.00    +0.000 A 
ATOM     21  C   UNL     1       0.569  11.194  18.837  0.00  0.00    +0.000 A 
ATOM     22  C   UNL     1       0.212  11.721  20.095  0.00  0.00    +0.000 A 
ATOM     23  C   UNL     1       0.372  10.868  21.212  0.00  0.00    +0.000 A 
ATOM     24  N   UNL     1       0.847   9.603  21.061  0.00  0.00    +0.000 NA
BRANCH  22  25
ATOM     25  C   UNL     1      -0.320  13.132  20.229  0.00  0.00    +0.000 C 
ATOM     26  N   UNL     1      -0.011  13.881  21.232  0.00  0.00    +0.000 NA
ATOM     27  N   UNL     1      -1.179  13.699  19.244  0.00  0.00    +0.000 N 
ATOM     28  H   UNL     1       0.602  13.606  22.007  0.00  0.00    +0.000 HD
ATOM     29  H   UNL     1      -1.499  13.192  18.412  0.00  0.00    +0.000 HD
ATOM     30  H   UNL     1      -1.519  14.665  19.359  0.00  0.00    +0.000 HD
ENDBRANCH  22  25
ENDBRANCH   5  19
TORSDOF 4
ENDMDL
