MODEL 1
REMARK VINA RESULT:      -7.2      0.000      0.000
REMARK  Name = 
REMARK  7 active torsions:
REMARK  status: ('A' for Active; 'I' for Inactive)
REMARK    1  A    between atoms: C_1  and  O_2
REMARK    2  A    between atoms: O_2  and  C_3
REMARK    3  A    between atoms: C_3  and  C_5
REMARK    4  A    between atoms: C_5  and  C_6
REMARK    5  A    between atoms: C_6  and  C_7
REMARK    6  A    between atoms: C_16  and  O_17
REMARK    7  A    between atoms: O_17  and  C_18
REMARK                            x       y       z     vdW  Elec       q    Type
REMARK                         _______ _______ _______ _____ _____    ______ ____
ROOT
ATOM      1  C   UNL     1       4.702   4.843  17.311  0.00  0.00    +0.000 A 
ATOM      2  N   UNL     1       3.357   4.630  17.336  0.00  0.00    +0.000 NA
ATOM      3  C   UNL     1       2.851   3.966  18.382  0.00  0.00    +0.000 A 
ATOM      4  C   UNL     1       1.483   3.755  18.440  0.00  0.00    +0.000 A 
ATOM      5  C   UNL     1       0.907   3.074  19.510  0.00  0.00    +0.000 A 
ATOM      6  C   UNL     1       1.718   2.599  20.534  0.00  0.00    +0.000 A 
ATOM      7  C   UNL     1       3.097   2.809  20.479  0.00  0.00    +0.000 A 
ATOM      8  C   UNL     1       3.679   3.487  19.418  0.00  0.00    +0.000 A 
ATOM      9  N   UNL     1       5.010   3.678  19.391  0.00  0.00    +0.000 NA
ATOM     10  C   UNL     1       5.516   4.351  18.332  0.00  0.00    +0.000 A 
ENDROOT
BRANCH  10  11
ATOM     11  O   UNL     1       6.881   4.548  18.279  0.00  0.00    +0.000 OA
ATOM     12  C   UNL     1       7.310   5.647  19.094  0.00  0.00    +0.000 C 
ENDBRANCH  10  11
BRANCH   1  13
ATOM     13  C   UNL     1       5.214   5.560  16.091  0.00  0.00    +0.000 C 
BRANCH  13  14
ATOM     14  C   UNL     1       5.497   4.596  14.927  0.00  0.00    +0.000 C 
BRANCH  14  15
ATOM     15  C   UNL     1       6.857   4.844  14.332  0.00  0.00    +0.000 C 
ATOM     16  O   UNL     1       7.794   5.361  14.922  0.00  0.00    +0.000 OA
BRANCH  15  18
ATOM     17  C   UNL     1       5.887   3.438  12.740  0.00  0.00    +0.000 C 
ATOM     18  O   UNL     1       6.899   4.401  13.041  0.00  0.00    +0.000 OA
ENDBRANCH  15  18
ENDBRANCH  14  15
ENDBRANCH  13  14
ENDBRANCH   1  13
TORSDOF 5
ENDMDL
MODEL 2
REMARK VINA RESULT:      -7.0      2.086      2.988
REMARK  Name = 
REMARK  7 active torsions:
REMARK  status: ('A' for Active; 'I' for Inactive)
REMARK    1  A    between atoms: C_1  and  O_2
REMARK    2  A    between atoms: O_2  and  C_3
REMARK    3  A    between atoms: C_3  and  C_5
REMARK    4  A    between atoms: C_5  and  C_6
REMARK    5  A    between atoms: C_6  and  C_7
REMARK    6  A    between atoms: C_16  and  O_17
REMARK    7  A    between atoms: O_17  and  C_18
REMARK                            x       y       z     vdW  Elec       q    Type
REMARK                         _______ _______ _______ _____ _____    ______ ____
ROOT
ATOM      1  C   UNL     1       4.058   5.420  17.487  0.00  0.00    +0.000 A 
ATOM      2  N   UNL     1       4.117   4.190  18.071  0.00  0.00    +0.000 NA
ATOM      3  C   UNL     1       3.454   4.016  19.220  0.00  0.00    +0.000 A 
ATOM      4  C   UNL     1       3.482   2.768  19.823  0.00  0.00    +0.000 A 
ATOM      5  C   UNL     1       2.805   2.533  21.018  0.00  0.00    +0.000 A 
ATOM      6  C   UNL     1       2.092   3.567  21.614  0.00  0.00    +0.000 A 
ATOM      7  C   UNL     1       2.063   4.826  21.010  0.00  0.00    +0.000 A 
ATOM      8  C   UNL     1       2.733   5.068  19.820  0.00  0.00    +0.000 A 
ATOM      9  N   UNL     1       2.685   6.289  19.259  0.00  0.00    +0.000 NA
ATOM     10  C   UNL     1       3.355   6.461  18.096  0.00  0.00    +0.000 A 
ENDROOT
BRANCH  10  11
ATOM     11  O   UNL     1       3.328   7.709  17.508  0.00  0.00    +0.000 OA
ATOM     12  C   UNL     1       2.170   8.468  17.881  0.00  0.00    +0.000 C 
ENDBRANCH  10  11
BRANCH   1  13
ATOM     13  C   UNL     1       4.854   5.565  16.218  0.00  0.00    +0.000 C 
BRANCH  13  14
ATOM     14  C   UNL     1       5.757   4.348  15.956  0.00  0.00    +0.000 C 
BRANCH  14  15
ATOM     15  C   UNL     1       7.196   4.760  15.806  0.00  0.00    +0.000 C 
ATOM     16  O   UNL     1       7.629   5.478  14.916  0.00  0.00    +0.000 OA
BRANCH  15  18
ATOM     17  C   UNL     1       7.717   4.834  18.081  0.00  0.00    +0.000 C 
ATOM     18  O   UNL     1       7.951   4.225  16.810  0.00  0.00    +0.000 OA
ENDBRANCH  15  18
ENDBRANCH  14  15
ENDBRANCH  13  14
ENDBRANCH   1  13
TORSDOF 5
ENDMDL
MODEL 3
REMARK VINA RESULT:      -7.0      3.085      5.728
REMARK  Name = 
REMARK  7 active torsions:
REMARK  status: ('A' for Active; 'I' for Inactive)
REMARK    1  A    between atoms: C_1  and  O_2
REMARK    2  A    between atoms: O_2  and  C_3
REMARK    3  A    between atoms: C_3  and  C_5
REMARK    4  A    between atoms: C_5  and  C_6
REMARK    5  A    between atoms: C_6  and  C_7
REMARK    6  A    between atoms: C_16  and  O_17
REMARK    7  A    between atoms: O_17  and  C_18
REMARK                            x       y       z     vdW  Elec       q    Type
REMARK                         _______ _______ _______ _____ _____    ______ ____
ROOT
ATOM      1  C   UNL     1       4.005   4.096  17.668  0.00  0.00    +0.000 A 
ATOM      2  N   UNL     1       4.462   5.262  17.130  0.00  0.00    +0.000 NA
ATOM      3  C   UNL     1       5.612   5.756  17.603  0.00  0.00    +0.000 A 
ATOM      4  C   UNL     1       6.108   6.929  17.058  0.00  0.00    +0.000 A 
ATOM      5  C   UNL     1       7.303   7.483  17.512  0.00  0.00    +0.000 A 
ATOM      6  C   UNL     1       8.008   6.847  18.527  0.00  0.00    +0.000 A 
ATOM      7  C   UNL     1       7.511   5.665  19.080  0.00  0.00    +0.000 A 
ATOM      8  C   UNL     1       6.322   5.107  18.633  0.00  0.00    +0.000 A 
ATOM      9  N   UNL     1       5.869   3.966  19.181  0.00  0.00    +0.000 NA
ATOM     10  C   UNL     1       4.706   3.469  18.699  0.00  0.00    +0.000 A 
ENDROOT
BRANCH  10  11
ATOM     11  O   UNL     1       4.217   2.304  19.255  0.00  0.00    +0.000 OA
ATOM     12  C   UNL     1       4.640   2.122  20.612  0.00  0.00    +0.000 C 
ENDBRANCH  10  11
BRANCH   1  13
ATOM     13  C   UNL     1       2.688   3.612  17.123  0.00  0.00    +0.000 C 
BRANCH  13  14
ATOM     14  C   UNL     1       1.491   4.224  17.868  0.00  0.00    +0.000 C 
BRANCH  14  15
ATOM     15  C   UNL     1       0.968   3.286  18.922  0.00  0.00    +0.000 C 
ATOM     16  O   UNL     1       0.870   2.075  18.794  0.00  0.00    +0.000 OA
BRANCH  15  18
ATOM     17  C   UNL     1       1.756   4.400  20.818  0.00  0.00    +0.000 C 
ATOM     18  O   UNL     1       0.628   3.980  20.048  0.00  0.00    +0.000 OA
ENDBRANCH  15  18
ENDBRANCH  14  15
ENDBRANCH  13  14
ENDBRANCH   1  13
TORSDOF 5
ENDMDL
MODEL 4
REMARK VINA RESULT:      -6.9      0.945      1.044
REMARK  Name = 
REMARK  7 active torsions:
REMARK  status: ('A' for Active; 'I' for Inactive)
REMARK    1  A    between atoms: C_1  and  O_2
REMARK    2  A    between atoms: O_2  and  C_3
REMARK    3  A    between atoms: C_3  and  C_5
REMARK    4  A    between atoms: C_5  and  C_6
REMARK    5  A    between atoms: C_6  and  C_7
REMARK    6  A    between atoms: C_16  and  O_17
REMARK    7  A    between atoms: O_17  and  C_18
REMARK                            x       y       z     vdW  Elec       q    Type
REMARK                         _______ _______ _______ _____ _____    ______ ____
ROOT
ATOM      1  C   UNL     1       4.885   5.588  18.108  0.00  0.00    +0.000 A 
ATOM      2  N   UNL     1       3.530   5.553  18.248  0.00  0.00    +0.000 NA
ATOM      3  C   UNL     1       3.009   4.592  19.020  0.00  0.00    +0.000 A 
ATOM      4  C   UNL     1       1.635   4.549  19.194  0.00  0.00    +0.000 A 
ATOM      5  C   UNL     1       1.043   3.571  19.991  0.00  0.00    +0.000 A 
ATOM      6  C   UNL     1       1.844   2.626  20.620  0.00  0.00    +0.000 A 
ATOM      7  C   UNL     1       3.229   2.665  20.446  0.00  0.00    +0.000 A 
ATOM      8  C   UNL     1       3.827   3.636  19.655  0.00  0.00    +0.000 A 
ATOM      9  N   UNL     1       5.163   3.653  19.508  0.00  0.00    +0.000 NA
ATOM     10  C   UNL     1       5.686   4.628  18.728  0.00  0.00    +0.000 A 
ENDROOT
BRANCH  10  11
ATOM     11  O   UNL     1       7.055   4.657  18.554  0.00  0.00    +0.000 OA
ATOM     12  C   UNL     1       7.706   5.554  19.462  0.00  0.00    +0.000 C 
ENDBRANCH  10  11
BRANCH   1  13
ATOM     13  C   UNL     1       5.407   6.666  17.198  0.00  0.00    +0.000 C 
BRANCH  13  14
ATOM     14  C   UNL     1       5.130   6.360  15.716  0.00  0.00    +0.000 C 
BRANCH  14  15
ATOM     15  C   UNL     1       6.121   5.367  15.171  0.00  0.00    +0.000 C 
ATOM     16  O   UNL     1       7.334   5.458  15.281  0.00  0.00    +0.000 OA
BRANCH  15  18
ATOM     17  C   UNL     1       6.210   3.784  13.456  0.00  0.00    +0.000 C 
ATOM     18  O   UNL     1       5.469   4.345  14.542  0.00  0.00    +0.000 OA
ENDBRANCH  15  18
ENDBRANCH  14  15
ENDBRANCH  13  14
ENDBRANCH   1  13
TORSDOF 5
ENDMDL
MODEL 5
REMARK VINA RESULT:      -6.9      2.090      2.608
REMARK  Name = 
REMARK  7 active torsions:
REMARK  status: ('A' for Active; 'I' for Inactive)
REMARK    1  A    between atoms: C_1  and  O_2
REMARK    2  A    between atoms: O_2  and  C_3
REMARK    3  A    between atoms: C_3  and  C_5
REMARK    4  A    between atoms: C_5  and  C_6
REMARK    5  A    between atoms: C_6  and  C_7
REMARK    6  A    between atoms: C_16  and  O_17
REMARK    7  A    between atoms: O_17  and  C_18
REMARK                            x       y       z     vdW  Elec       q    Type
REMARK                         _______ _______ _______ _____ _____    ______ ____
ROOT
ATOM      1  C   UNL     1       3.955   5.702  17.518  0.00  0.00    +0.000 A 
ATOM      2  N   UNL     1       3.828   4.389  17.858  0.00  0.00    +0.000 NA
ATOM      3  C   UNL     1       2.980   4.081  18.846  0.00  0.00    +0.000 A 
ATOM      4  C   UNL     1       2.818   2.749  19.195  0.00  0.00    +0.000 A 
ATOM      5  C   UNL     1       1.944   2.375  20.213  0.00  0.00    +0.000 A 
ATOM      6  C   UNL     1       1.224   3.353  20.888  0.00  0.00    +0.000 A 
ATOM      7  C   UNL     1       1.384   4.696  20.540  0.00  0.00    +0.000 A 
ATOM      8  C   UNL     1       2.252   5.077  19.527  0.00  0.00    +0.000 A 
ATOM      9  N   UNL     1       2.384   6.377  19.210  0.00  0.00    +0.000 NA
ATOM     10  C   UNL     1       3.242   6.684  18.209  0.00  0.00    +0.000 A 
ENDROOT
BRANCH  10  11
ATOM     11  O   UNL     1       3.402   8.014  17.875  0.00  0.00    +0.000 OA
ATOM     12  C   UNL     1       2.153   8.708  17.768  0.00  0.00    +0.000 C 
ENDBRANCH  10  11
BRANCH   1  13
ATOM     13  C   UNL     1       4.952   5.989  16.429  0.00  0.00    +0.000 C 
BRANCH  13  14
ATOM     14  C   UNL     1       5.586   4.706  15.868  0.00  0.00    +0.000 C 
BRANCH  14  15
ATOM     15  C   UNL     1       7.089   4.781  15.904  0.00  0.00    +0.000 C 
ATOM     16  O   UNL     1       7.785   4.423  16.842  0.00  0.00    +0.000 OA
BRANCH  15  18
ATOM     17  C   UNL     1       7.021   4.668  13.572  0.00  0.00    +0.000 C 
ATOM     18  O   UNL     1       7.565   5.298  14.733  0.00  0.00    +0.000 OA
ENDBRANCH  15  18
ENDBRANCH  14  15
ENDBRANCH  13  14
ENDBRANCH   1  13
TORSDOF 5
ENDMDL
MODEL 6
REMARK VINA RESULT:      -6.9      0.910      1.099
REMARK  Name = 
REMARK  7 active torsions:
REMARK  status: ('A' for Active; 'I' for Inactive)
REMARK    1  A    between atoms: C_1  and  O_2
REMARK    2  A    between atoms: O_2  and  C_3
REMARK    3  A    between atoms: C_3  and  C_5
REMARK    4  A    between atoms: C_5  and  C_6
REMARK    5  A    between atoms: C_6  and  C_7
REMARK    6  A    between atoms: C_16  and  O_17
REMARK    7  A    between atoms: O_17  and  C_18
REMARK                            x       y       z     vdW  Elec       q    Type
REMARK                         _______ _______ _______ _____ _____    ______ ____
ROOT
ATOM      1  C   UNL     1       4.992   5.342  17.658  0.00  0.00    +0.000 A 
ATOM      2  N   UNL     1       3.635   5.221  17.663  0.00  0.00    +0.000 NA
ATOM      3  C   UNL     1       3.091   4.356  18.527  0.00  0.00    +0.000 A 
ATOM      4  C   UNL     1       1.712   4.231  18.565  0.00  0.00    +0.000 A 
ATOM      5  C   UNL     1       1.096   3.348  19.450  0.00  0.00    +0.000 A 
ATOM      6  C   UNL     1       1.878   2.581  20.305  0.00  0.00    +0.000 A 
ATOM      7  C   UNL     1       3.269   2.703  20.268  0.00  0.00    +0.000 A 
ATOM      8  C   UNL     1       3.890   3.581  19.392  0.00  0.00    +0.000 A 
ATOM      9  N   UNL     1       5.231   3.681  19.381  0.00  0.00    +0.000 NA
ATOM     10  C   UNL     1       5.777   4.559  18.507  0.00  0.00    +0.000 A 
ENDROOT
BRANCH  10  11
ATOM     11  O   UNL     1       7.152   4.670  18.470  0.00  0.00    +0.000 OA
ATOM     12  C   UNL     1       7.651   5.634  19.405  0.00  0.00    +0.000 C 
ENDBRANCH  10  11
BRANCH   1  13
ATOM     13  C   UNL     1       5.546   6.301  16.639  0.00  0.00    +0.000 C 
BRANCH  13  14
ATOM     14  C   UNL     1       5.373   5.785  15.201  0.00  0.00    +0.000 C 
BRANCH  14  15
ATOM     15  C   UNL     1       6.429   4.771  14.855  0.00  0.00    +0.000 C 
ATOM     16  O   UNL     1       6.277   3.559  14.899  0.00  0.00    +0.000 OA
BRANCH  15  18
ATOM     17  C   UNL     1       7.883   5.241  13.088  0.00  0.00    +0.000 C 
ATOM     18  O   UNL     1       7.582   5.397  14.477  0.00  0.00    +0.000 OA
ENDBRANCH  15  18
ENDBRANCH  14  15
ENDBRANCH  13  14
ENDBRANCH   1  13
TORSDOF 5
ENDMDL
MODEL 7
REMARK VINA RESULT:      -6.8      2.079      3.355
REMARK  Name = 
REMARK  7 active torsions:
REMARK  status: ('A' for Active; 'I' for Inactive)
REMARK    1  A    between atoms: C_1  and  O_2
REMARK    2  A    between atoms: O_2  and  C_3
REMARK    3  A    between atoms: C_3  and  C_5
REMARK    4  A    between atoms: C_5  and  C_6
REMARK    5  A    between atoms: C_6  and  C_7
REMARK    6  A    between atoms: C_16  and  O_17
REMARK    7  A    between atoms: O_17  and  C_18
REMARK                            x       y       z     vdW  Elec       q    Type
REMARK                         _______ _______ _______ _____ _____    ______ ____
ROOT
ATOM      1  C   UNL     1       3.971   5.562  17.469  0.00  0.00    +0.000 A 
ATOM      2  N   UNL     1       3.833   4.262  17.854  0.00  0.00    +0.000 NA
ATOM      3  C   UNL     1       2.966   3.992  18.836  0.00  0.00    +0.000 A 
ATOM      4  C   UNL     1       2.794   2.675  19.230  0.00  0.00    +0.000 A 
ATOM      5  C   UNL     1       1.901   2.340  20.246  0.00  0.00    +0.000 A 
ATOM      6  C   UNL     1       1.172   3.344  20.872  0.00  0.00    +0.000 A 
ATOM      7  C   UNL     1       1.343   4.673  20.479  0.00  0.00    +0.000 A 
ATOM      8  C   UNL     1       2.230   5.015  19.468  0.00  0.00    +0.000 A 
ATOM      9  N   UNL     1       2.373   6.302  19.107  0.00  0.00    +0.000 NA
ATOM     10  C   UNL     1       3.249   6.570  18.111  0.00  0.00    +0.000 A 
ENDROOT
BRANCH  10  11
ATOM     11  O   UNL     1       3.420   7.886  17.732  0.00  0.00    +0.000 OA
ATOM     12  C   UNL     1       2.218   8.656  17.861  0.00  0.00    +0.000 C 
ENDBRANCH  10  11
BRANCH   1  13
ATOM     13  C   UNL     1       4.988   5.806  16.388  0.00  0.00    +0.000 C 
BRANCH  13  14
ATOM     14  C   UNL     1       6.357   6.211  16.959  0.00  0.00    +0.000 C 
BRANCH  14  15
ATOM     15  C   UNL     1       7.251   5.013  17.129  0.00  0.00    +0.000 C 
ATOM     16  O   UNL     1       7.850   4.452  16.223  0.00  0.00    +0.000 OA
BRANCH  15  18
ATOM     17  C   UNL     1       7.630   5.726  19.321  0.00  0.00    +0.000 C 
ATOM     18  O   UNL     1       7.306   4.646  18.443  0.00  0.00    +0.000 OA
ENDBRANCH  15  18
ENDBRANCH  14  15
ENDBRANCH  13  14
ENDBRANCH   1  13
TORSDOF 5
ENDMDL
MODEL 8
REMARK VINA RESULT:      -6.8      1.127      1.172
REMARK  Name = 
REMARK  7 active torsions:
REMARK  status: ('A' for Active; 'I' for Inactive)
REMARK    1  A    between atoms: C_1  and  O_2
REMARK    2  A    between atoms: O_2  and  C_3
REMARK    3  A    between atoms: C_3  and  C_5
REMARK    4  A    between atoms: C_5  and  C_6
REMARK    5  A    between atoms: C_6  and  C_7
REMARK    6  A    between atoms: C_16  and  O_17
REMARK    7  A    between atoms: O_17  and  C_18
REMARK                            x       y       z     vdW  Elec       q    Type
REMARK                         _______ _______ _______ _____ _____    ______ ____
ROOT
ATOM      1  C   UNL     1       4.814   4.124  17.322  0.00  0.00    +0.000 A 
ATOM      2  N   UNL     1       3.703   3.346  17.456  0.00  0.00    +0.000 NA
ATOM      3  C   UNL     1       2.872   3.618  18.469  0.00  0.00    +0.000 A 
ATOM      4  C   UNL     1       1.725   2.854  18.612  0.00  0.00    +0.000 A 
ATOM      5  C   UNL     1       0.825   3.099  19.647  0.00  0.00    +0.000 A 
ATOM      6  C   UNL     1       1.083   4.125  20.548  0.00  0.00    +0.000 A 
ATOM      7  C   UNL     1       2.238   4.897  20.407  0.00  0.00    +0.000 A 
ATOM      8  C   UNL     1       3.139   4.660  19.379  0.00  0.00    +0.000 A 
ATOM      9  N   UNL     1       4.242   5.421  19.265  0.00  0.00    +0.000 NA
ATOM     10  C   UNL     1       5.079   5.143  18.238  0.00  0.00    +0.000 A 
ENDROOT
BRANCH  10  11
ATOM     11  O   UNL     1       6.223   5.905  18.109  0.00  0.00    +0.000 OA
ATOM     12  C   UNL     1       7.176   5.645  19.147  0.00  0.00    +0.000 C 
ENDBRANCH  10  11
BRANCH   1  13
ATOM     13  C   UNL     1       5.729   3.744  16.190  0.00  0.00    +0.000 C 
BRANCH  13  14
ATOM     14  C   UNL     1       5.490   4.603  14.937  0.00  0.00    +0.000 C 
BRANCH  14  15
ATOM     15  C   UNL     1       6.722   4.662  14.074  0.00  0.00    +0.000 C 
ATOM     16  O   UNL     1       7.653   5.436  14.237  0.00  0.00    +0.000 OA
BRANCH  15  18
ATOM     17  C   UNL     1       5.356   3.606  12.501  0.00  0.00    +0.000 C 
ATOM     18  O   UNL     1       6.654   3.721  13.087  0.00  0.00    +0.000 OA
ENDBRANCH  15  18
ENDBRANCH  14  15
ENDBRANCH  13  14
ENDBRANCH   1  13
TORSDOF 5
ENDMDL
MODEL 9
REMARK VINA RESULT:      -6.8      0.748      1.176
REMARK  Name = 
REMARK  7 active torsions:
REMARK  status: ('A' for Active; 'I' for Inactive)
REMARK    1  A    between atoms: C_1  and  O_2
REMARK    2  A    between atoms: O_2  and  C_3
REMARK    3  A    between atoms: C_3  and  C_5
REMARK    4  A    between atoms: C_5  and  C_6
REMARK    5  A    between atoms: C_6  and  C_7
REMARK    6  A    between atoms: C_16  and  O_17
REMARK    7  A    between atoms: O_17  and  C_18
REMARK                            x       y       z     vdW  Elec       q    Type
REMARK                         _______ _______ _______ _____ _____    ______ ____
ROOT
ATOM      1  C   UNL     1       4.719   4.383  17.272  0.00  0.00    +0.000 A 
ATOM      2  N   UNL     1       3.390   4.086  17.229  0.00  0.00    +0.000 NA
ATOM      3  C   UNL     1       2.818   3.631  18.350  0.00  0.00    +0.000 A 
ATOM      4  C   UNL     1       1.463   3.341  18.336  0.00  0.00    +0.000 A 
ATOM      5  C   UNL     1       0.819   2.869  19.477  0.00  0.00    +0.000 A 
ATOM      6  C   UNL     1       1.547   2.686  20.647  0.00  0.00    +0.000 A 
ATOM      7  C   UNL     1       2.913   2.976  20.664  0.00  0.00    +0.000 A 
ATOM      8  C   UNL     1       3.563   3.447  19.533  0.00  0.00    +0.000 A 
ATOM      9  N   UNL     1       4.878   3.721  19.579  0.00  0.00    +0.000 NA
ATOM     10  C   UNL     1       5.452   4.183  18.443  0.00  0.00    +0.000 A 
ENDROOT
BRANCH  10  11
ATOM     11  O   UNL     1       6.804   4.461  18.465  0.00  0.00    +0.000 OA
ATOM     12  C   UNL     1       7.124   5.575  19.308  0.00  0.00    +0.000 C 
ENDBRANCH  10  11
BRANCH   1  13
ATOM     13  C   UNL     1       5.313   4.853  15.972  0.00  0.00    +0.000 C 
BRANCH  13  14
ATOM     14  C   UNL     1       5.966   3.705  15.183  0.00  0.00    +0.000 C 
BRANCH  14  15
ATOM     15  C   UNL     1       6.472   4.181  13.848  0.00  0.00    +0.000 C 
ATOM     16  O   UNL     1       6.176   3.686  12.771  0.00  0.00    +0.000 OA
BRANCH  15  18
ATOM     17  C   UNL     1       8.126   5.510  12.871  0.00  0.00    +0.000 C 
ATOM     18  O   UNL     1       7.302   5.253  14.010  0.00  0.00    +0.000 OA
ENDBRANCH  15  18
ENDBRANCH  14  15
ENDBRANCH  13  14
ENDBRANCH   1  13
TORSDOF 5
ENDMDL
