MODEL 1
REMARK VINA RESULT:      -6.8      0.000      0.000
REMARK  Name = 
REMARK  8 active torsions:
REMARK  status: ('A' for Active; 'I' for Inactive)
REMARK    1  A    between atoms: C_1  and  C_2
REMARK    2  A    between atoms: C_2  and  C_3
REMARK    3  A    between atoms: C_2  and  N_4
REMARK    4  A    between atoms: N_4  and  C_5
REMARK    5  A    between atoms: N_4  and  C_6
REMARK    6  A    between atoms: C_6  and  C_7
REMARK    7  A    between atoms: N_15  and  C_16
REMARK    8  A    between atoms: C_16  and  C_17
REMARK                            x       y       z     vdW  Elec       q    Type
REMARK                         _______ _______ _______ _____ _____    ______ ____
ROOT
ATOM      1  C   UNL     1       3.929   4.193  17.392  0.00  0.00    +0.000 A 
ATOM      2  C   UNL     1       4.873   4.031  16.373  0.00  0.00    +0.000 A 
ATOM      3  N   UNL     1       5.553   5.023  15.754  0.00  0.00    +0.000 NA
ATOM      4  C   UNL     1       5.223   6.275  16.108  0.00  0.00    +0.000 A 
ATOM      5  C   UNL     1       4.210   6.585  17.007  0.00  0.00    +0.000 A 
ATOM      6  C   UNL     1       3.560   5.528  17.681  0.00  0.00    +0.000 A 
ATOM      7  C   UNL     1       2.395   5.882  18.580  0.00  0.00    +0.000 C 
ATOM      8  C   UNL     1       2.300   7.379  18.938  0.00  0.00    +0.000 C 
ATOM      9  N   UNL     1       2.494   8.228  17.750  0.00  0.00    +0.000 NA
ATOM     10  C   UNL     1       3.870   8.031  17.257  0.00  0.00    +0.000 C 
ENDROOT
BRANCH   1  11
ATOM     11  C   UNL     1       3.292   2.959  18.030  0.00  0.00    +0.000 C 
BRANCH  11  12
ATOM     12  N   UNL     1       3.226   2.908  19.523  0.00  0.00    +0.000 NA
ATOM     13  C   UNL     1       4.352   2.141  20.076  0.00  0.00    +0.000 C 
BRANCH  12  15
ATOM     14  C   UNL     1       1.413   2.989  21.298  0.00  0.00    +0.000 C 
ATOM     15  C   UNL     1       1.930   2.330  19.999  0.00  0.00    +0.000 C 
ATOM     16  C   UNL     1       0.798   2.473  18.969  0.00  0.00    +0.000 C 
ENDBRANCH  12  15
ENDBRANCH  11  12
ENDBRANCH   1  11
BRANCH   9  17
ATOM     17  C   UNL     1       2.295   9.660  18.044  0.00  0.00    +0.000 C 
BRANCH  17  18
ATOM     18  C   UNL     1       0.905   9.982  18.522  0.00  0.00    +0.000 A 
ATOM     19  C   UNL     1      -0.296   9.833  17.850  0.00  0.00    +0.000 A 
ATOM     20  C   UNL     1      -1.410  10.267  18.629  0.00  0.00    +0.000 A 
ATOM     21  C   UNL     1      -1.024  10.739  19.859  0.00  0.00    +0.000 A 
ATOM     22  S   UNL     1       0.671  10.663  20.079  0.00  0.00    +0.000 S 
ENDBRANCH  17  18
ENDBRANCH   9  17
TORSDOF 5
ENDMDL
MODEL 2
REMARK VINA RESULT:      -6.5      1.547      2.442
REMARK  Name = 
REMARK  8 active torsions:
REMARK  status: ('A' for Active; 'I' for Inactive)
REMARK    1  A    between atoms: C_1  and  C_2
REMARK    2  A    between atoms: C_2  and  C_3
REMARK    3  A    between atoms: C_2  and  N_4
REMARK    4  A    between atoms: N_4  and  C_5
REMARK    5  A    between atoms: N_4  and  C_6
REMARK    6  A    between atoms: C_6  and  C_7
REMARK    7  A    between atoms: N_15  and  C_16
REMARK    8  A    between atoms: C_16  and  C_17
REMARK                            x       y       z     vdW  Elec       q    Type
REMARK                         _______ _______ _______ _____ _____    ______ ____
ROOT
ATOM      1  C   UNL     1       3.347   5.658  19.125  0.00  0.00    +0.000 A 
ATOM      2  C   UNL     1       4.077   5.413  17.958  0.00  0.00    +0.000 A 
ATOM      3  N   UNL     1       4.317   6.304  16.968  0.00  0.00    +0.000 NA
ATOM      4  C   UNL     1       3.727   7.503  17.097  0.00  0.00    +0.000 A 
ATOM      5  C   UNL     1       2.867   7.835  18.136  0.00  0.00    +0.000 A 
ATOM      6  C   UNL     1       2.685   6.907  19.184  0.00  0.00    +0.000 A 
ATOM      7  C   UNL     1       1.669   7.247  20.253  0.00  0.00    +0.000 C 
ATOM      8  C   UNL     1       1.233   8.726  20.268  0.00  0.00    +0.000 C 
ATOM      9  N   UNL     1       0.943   9.213  18.908  0.00  0.00    +0.000 NA
ATOM     10  C   UNL     1       2.193   9.182  18.126  0.00  0.00    +0.000 C 
ENDROOT
BRANCH   1  11
ATOM     11  C   UNL     1       3.220   4.556  20.176  0.00  0.00    +0.000 C 
BRANCH  11  12
ATOM     12  N   UNL     1       2.146   3.533  19.981  0.00  0.00    +0.000 NA
ATOM     13  C   UNL     1       1.458   3.241  21.247  0.00  0.00    +0.000 C 
BRANCH  12  15
ATOM     14  C   UNL     1       2.470   2.176  17.861  0.00  0.00    +0.000 C 
ATOM     15  C   UNL     1       2.688   2.270  19.388  0.00  0.00    +0.000 C 
ATOM     16  C   UNL     1       4.199   2.105  19.614  0.00  0.00    +0.000 C 
ENDBRANCH  12  15
ENDBRANCH  11  12
ENDBRANCH   1  11
BRANCH   9  17
ATOM     17  C   UNL     1       0.414  10.590  18.905  0.00  0.00    +0.000 C 
BRANCH  17  18
ATOM     18  C   UNL     1      -0.980  10.690  18.348  0.00  0.00    +0.000 A 
ATOM     19  C   UNL     1      -1.585   9.900  17.386  0.00  0.00    +0.000 A 
ATOM     20  C   UNL     1      -2.921  10.317  17.103  0.00  0.00    +0.000 A 
ATOM     21  C   UNL     1      -3.285  11.412  17.848  0.00  0.00    +0.000 A 
ATOM     22  S   UNL     1      -2.029  11.938  18.882  0.00  0.00    +0.000 S 
ENDBRANCH  17  18
ENDBRANCH   9  17
TORSDOF 5
ENDMDL
MODEL 3
REMARK VINA RESULT:      -6.4      3.086      7.981
REMARK  Name = 
REMARK  8 active torsions:
REMARK  status: ('A' for Active; 'I' for Inactive)
REMARK    1  A    between atoms: C_1  and  C_2
REMARK    2  A    between atoms: C_2  and  C_3
REMARK    3  A    between atoms: C_2  and  N_4
REMARK    4  A    between atoms: N_4  and  C_5
REMARK    5  A    between atoms: N_4  and  C_6
REMARK    6  A    between atoms: C_6  and  C_7
REMARK    7  A    between atoms: N_15  and  C_16
REMARK    8  A    between atoms: C_16  and  C_17
REMARK                            x       y       z     vdW  Elec       q    Type
REMARK                         _______ _______ _______ _____ _____    ______ ____
ROOT
ATOM      1  C   UNL     1       0.368  10.329  19.794  0.00  0.00    +0.000 A 
ATOM      2  C   UNL     1      -0.184  10.124  21.062  0.00  0.00    +0.000 A 
ATOM      3  N   UNL     1       0.126   9.118  21.911  0.00  0.00    +0.000 NA
ATOM      4  C   UNL     1       0.985   8.197  21.447  0.00  0.00    +0.000 A 
ATOM      5  C   UNL     1       1.505   8.203  20.159  0.00  0.00    +0.000 A 
ATOM      6  C   UNL     1       1.211   9.298  19.317  0.00  0.00    +0.000 A 
ATOM      7  C   UNL     1       1.705   9.235  17.887  0.00  0.00    +0.000 C 
ATOM      8  C   UNL     1       2.782   8.162  17.633  0.00  0.00    +0.000 C 
ATOM      9  N   UNL     1       2.419   6.879  18.258  0.00  0.00    +0.000 NA
ATOM     10  C   UNL     1       2.390   7.065  19.721  0.00  0.00    +0.000 C 
ENDROOT
BRANCH   1  11
ATOM     11  C   UNL     1      -0.049  11.555  18.982  0.00  0.00    +0.000 C 
BRANCH  11  12
ATOM     12  N   UNL     1       0.414  12.893  19.463  0.00  0.00    +0.000 NA
ATOM     13  C   UNL     1      -0.726  13.752  19.814  0.00  0.00    +0.000 C 
BRANCH  12  15
ATOM     14  C   UNL     1       1.616  15.036  18.825  0.00  0.00    +0.000 C 
ATOM     15  C   UNL     1       1.276  13.577  18.448  0.00  0.00    +0.000 C 
ATOM     16  C   UNL     1       2.623  12.867  18.233  0.00  0.00    +0.000 C 
ENDBRANCH  12  15
ENDBRANCH  11  12
ENDBRANCH   1  11
BRANCH   9  17
ATOM     17  C   UNL     1       3.376   5.804  17.934  0.00  0.00    +0.000 C 
BRANCH  17  18
ATOM     18  C   UNL     1       2.849   4.427  18.238  0.00  0.00    +0.000 A 
ATOM     19  C   UNL     1       1.589   3.911  17.994  0.00  0.00    +0.000 A 
ATOM     20  C   UNL     1       1.459   2.562  18.442  0.00  0.00    +0.000 A 
ATOM     21  C   UNL     1       2.615   2.100  19.020  0.00  0.00    +0.000 A 
ATOM     22  S   UNL     1       3.853   3.280  19.026  0.00  0.00    +0.000 S 
ENDBRANCH  17  18
ENDBRANCH   9  17
TORSDOF 5
ENDMDL
MODEL 4
REMARK VINA RESULT:      -6.4      1.826      4.067
REMARK  Name = 
REMARK  8 active torsions:
REMARK  status: ('A' for Active; 'I' for Inactive)
REMARK    1  A    between atoms: C_1  and  C_2
REMARK    2  A    between atoms: C_2  and  C_3
REMARK    3  A    between atoms: C_2  and  N_4
REMARK    4  A    between atoms: N_4  and  C_5
REMARK    5  A    between atoms: N_4  and  C_6
REMARK    6  A    between atoms: C_6  and  C_7
REMARK    7  A    between atoms: N_15  and  C_16
REMARK    8  A    between atoms: C_16  and  C_17
REMARK                            x       y       z     vdW  Elec       q    Type
REMARK                         _______ _______ _______ _____ _____    ______ ____
ROOT
ATOM      1  C   UNL     1       4.265   5.580  17.630  0.00  0.00    +0.000 A 
ATOM      2  C   UNL     1       4.562   4.395  18.310  0.00  0.00    +0.000 A 
ATOM      3  N   UNL     1       3.948   3.943  19.427  0.00  0.00    +0.000 NA
ATOM      4  C   UNL     1       3.023   4.756  19.962  0.00  0.00    +0.000 A 
ATOM      5  C   UNL     1       2.724   6.020  19.469  0.00  0.00    +0.000 A 
ATOM      6  C   UNL     1       3.338   6.438  18.268  0.00  0.00    +0.000 A 
ATOM      7  C   UNL     1       3.075   7.855  17.803  0.00  0.00    +0.000 C 
ATOM      8  C   UNL     1       1.878   8.539  18.493  0.00  0.00    +0.000 C 
ATOM      9  N   UNL     1       1.904   8.321  19.950  0.00  0.00    +0.000 NA
ATOM     10  C   UNL     1       1.732   6.879  20.208  0.00  0.00    +0.000 C 
ENDROOT
BRANCH   1  11
ATOM     11  C   UNL     1       5.017   5.917  16.343  0.00  0.00    +0.000 C 
BRANCH  11  12
ATOM     12  N   UNL     1       6.498   6.109  16.437  0.00  0.00    +0.000 NA
ATOM     13  C   UNL     1       7.205   4.826  16.318  0.00  0.00    +0.000 C 
BRANCH  12  15
ATOM     14  C   UNL     1       7.753   5.906  18.633  0.00  0.00    +0.000 C 
ATOM     15  C   UNL     1       6.887   6.793  17.710  0.00  0.00    +0.000 C 
ATOM     16  C   UNL     1       7.693   8.081  17.475  0.00  0.00    +0.000 C 
ENDBRANCH  12  15
ENDBRANCH  11  12
ENDBRANCH   1  11
BRANCH   9  17
ATOM     17  C   UNL     1       0.834   9.060  20.648  0.00  0.00    +0.000 C 
BRANCH  17  18
ATOM     18  C   UNL     1       0.278  10.203  19.843  0.00  0.00    +0.000 A 
ATOM     19  C   UNL     1      -0.812  10.210  18.990  0.00  0.00    +0.000 A 
ATOM     20  C   UNL     1      -1.020  11.487  18.387  0.00  0.00    +0.000 A 
ATOM     21  C   UNL     1      -0.081  12.404  18.790  0.00  0.00    +0.000 A 
ATOM     22  S   UNL     1       1.047  11.736  19.887  0.00  0.00    +0.000 S 
ENDBRANCH  17  18
ENDBRANCH   9  17
TORSDOF 5
ENDMDL
MODEL 5
REMARK VINA RESULT:      -6.3      2.823      7.764
REMARK  Name = 
REMARK  8 active torsions:
REMARK  status: ('A' for Active; 'I' for Inactive)
REMARK    1  A    between atoms: C_1  and  C_2
REMARK    2  A    between atoms: C_2  and  C_3
REMARK    3  A    between atoms: C_2  and  N_4
REMARK    4  A    between atoms: N_4  and  C_5
REMARK    5  A    between atoms: N_4  and  C_6
REMARK    6  A    between atoms: C_6  and  C_7
REMARK    7  A    between atoms: N_15  and  C_16
REMARK    8  A    between atoms: C_16  and  C_17
REMARK                            x       y       z     vdW  Elec       q    Type
REMARK                         _______ _______ _______ _____ _____    ______ ____
ROOT
ATOM      1  C   UNL     1      -0.367  11.232  19.483  0.00  0.00    +0.000 A 
ATOM      2  C   UNL     1      -0.913  11.458  20.750  0.00  0.00    +0.000 A 
ATOM      3  N   UNL     1      -0.576  10.810  21.888  0.00  0.00    +0.000 NA
ATOM      4  C   UNL     1       0.309   9.808  21.757  0.00  0.00    +0.000 A 
ATOM      5  C   UNL     1       0.827   9.388  20.540  0.00  0.00    +0.000 A 
ATOM      6  C   UNL     1       0.504  10.122  19.378  0.00  0.00    +0.000 A 
ATOM      7  C   UNL     1       0.999   9.588  18.051  0.00  0.00    +0.000 C 
ATOM      8  C   UNL     1       2.105   8.521  18.168  0.00  0.00    +0.000 C 
ATOM      9  N   UNL     1       1.777   7.519  19.196  0.00  0.00    +0.000 NA
ATOM     10  C   UNL     1       1.744   8.192  20.508  0.00  0.00    +0.000 C 
ENDROOT
BRANCH   1  11
ATOM     11  C   UNL     1      -0.817  12.097  18.305  0.00  0.00    +0.000 C 
BRANCH  11  12
ATOM     12  N   UNL     1      -2.174  11.834  17.733  0.00  0.00    +0.000 NA
ATOM     13  C   UNL     1      -3.209  11.901  18.774  0.00  0.00    +0.000 C 
BRANCH  12  15
ATOM     14  C   UNL     1      -3.223   9.523  17.694  0.00  0.00    +0.000 C 
ATOM     15  C   UNL     1      -2.233  10.511  17.036  0.00  0.00    +0.000 C 
ATOM     16  C   UNL     1      -2.662  10.629  15.564  0.00  0.00    +0.000 C 
ENDBRANCH  12  15
ENDBRANCH  11  12
ENDBRANCH   1  11
BRANCH   9  17
ATOM     17  C   UNL     1       2.763   6.423  19.249  0.00  0.00    +0.000 C 
BRANCH  17  18
ATOM     18  C   UNL     1       2.141   5.057  19.140  0.00  0.00    +0.000 A 
ATOM     19  C   UNL     1       2.046   4.237  18.030  0.00  0.00    +0.000 A 
ATOM     20  C   UNL     1       1.365   3.015  18.316  0.00  0.00    +0.000 A 
ATOM     21  C   UNL     1       0.957   2.949  19.625  0.00  0.00    +0.000 A 
ATOM     22  S   UNL     1       1.387   4.348  20.509  0.00  0.00    +0.000 S 
ENDBRANCH  17  18
ENDBRANCH   9  17
TORSDOF 5
ENDMDL
MODEL 6
REMARK VINA RESULT:      -6.2      3.260      8.365
REMARK  Name = 
REMARK  8 active torsions:
REMARK  status: ('A' for Active; 'I' for Inactive)
REMARK    1  A    between atoms: C_1  and  C_2
REMARK    2  A    between atoms: C_2  and  C_3
REMARK    3  A    between atoms: C_2  and  N_4
REMARK    4  A    between atoms: N_4  and  C_5
REMARK    5  A    between atoms: N_4  and  C_6
REMARK    6  A    between atoms: C_6  and  C_7
REMARK    7  A    between atoms: N_15  and  C_16
REMARK    8  A    between atoms: C_16  and  C_17
REMARK                            x       y       z     vdW  Elec       q    Type
REMARK                         _______ _______ _______ _____ _____    ______ ____
ROOT
ATOM      1  C   UNL     1      -0.548  11.137  21.089  0.00  0.00    +0.000 A 
ATOM      2  C   UNL     1      -0.885  11.148  22.446  0.00  0.00    +0.000 A 
ATOM      3  N   UNL     1      -0.364  10.346  23.402  0.00  0.00    +0.000 NA
ATOM      4  C   UNL     1       0.499   9.408  22.980  0.00  0.00    +0.000 A 
ATOM      5  C   UNL     1       0.821   9.196  21.645  0.00  0.00    +0.000 A 
ATOM      6  C   UNL     1       0.308  10.088  20.678  0.00  0.00    +0.000 A 
ATOM      7  C   UNL     1       0.590   9.780  19.222  0.00  0.00    +0.000 C 
ATOM      8  C   UNL     1       1.712   8.747  18.997  0.00  0.00    +0.000 C 
ATOM      9  N   UNL     1       1.563   7.589  19.894  0.00  0.00    +0.000 NA
ATOM     10  C   UNL     1       1.733   8.053  21.284  0.00  0.00    +0.000 C 
ENDROOT
BRANCH   1  11
ATOM     11  C   UNL     1      -1.189  12.154  20.147  0.00  0.00    +0.000 C 
BRANCH  11  12
ATOM     12  N   UNL     1      -2.446  11.749  19.443  0.00  0.00    +0.000 NA
ATOM     13  C   UNL     1      -2.238  11.680  17.989  0.00  0.00    +0.000 C 
BRANCH  12  15
ATOM     14  C   UNL     1      -4.924  12.214  19.156  0.00  0.00    +0.000 C 
ATOM     15  C   UNL     1      -3.577  12.678  19.755  0.00  0.00    +0.000 C 
ATOM     16  C   UNL     1      -3.816  12.842  21.265  0.00  0.00    +0.000 C 
ENDBRANCH  12  15
ENDBRANCH  11  12
ENDBRANCH   1  11
BRANCH   9  17
ATOM     17  C   UNL     1       2.557   6.534  19.621  0.00  0.00    +0.000 C 
BRANCH  17  18
ATOM     18  C   UNL     1       1.951   5.160  19.514  0.00  0.00    +0.000 A 
ATOM     19  C   UNL     1       1.323   4.415  20.496  0.00  0.00    +0.000 A 
ATOM     20  C   UNL     1       0.892   3.141  20.017  0.00  0.00    +0.000 A 
ATOM     21  C   UNL     1       1.213   2.954  18.695  0.00  0.00    +0.000 A 
ATOM     22  S   UNL     1       2.030   4.302  18.031  0.00  0.00    +0.000 S 
ENDBRANCH  17  18
ENDBRANCH   9  17
TORSDOF 5
ENDMDL
MODEL 7
REMARK VINA RESULT:      -6.1      2.790      7.072
REMARK  Name = 
REMARK  8 active torsions:
REMARK  status: ('A' for Active; 'I' for Inactive)
REMARK    1  A    between atoms: C_1  and  C_2
REMARK    2  A    between atoms: C_2  and  C_3
REMARK    3  A    between atoms: C_2  and  N_4
REMARK    4  A    between atoms: N_4  and  C_5
REMARK    5  A    between atoms: N_4  and  C_6
REMARK    6  A    between atoms: C_6  and  C_7
REMARK    7  A    between atoms: N_15  and  C_16
REMARK    8  A    between atoms: C_16  and  C_17
REMARK                            x       y       z     vdW  Elec       q    Type
REMARK                         _______ _______ _______ _____ _____    ______ ____
ROOT
ATOM      1  C   UNL     1       0.999   8.901  19.716  0.00  0.00    +0.000 A 
ATOM      2  C   UNL     1       1.314   9.873  18.762  0.00  0.00    +0.000 A 
ATOM      3  N   UNL     1       2.124   9.706  17.692  0.00  0.00    +0.000 NA
ATOM      4  C   UNL     1       2.736   8.515  17.596  0.00  0.00    +0.000 A 
ATOM      5  C   UNL     1       2.621   7.506  18.544  0.00  0.00    +0.000 A 
ATOM      6  C   UNL     1       1.721   7.688  19.617  0.00  0.00    +0.000 A 
ATOM      7  C   UNL     1       1.686   6.621  20.690  0.00  0.00    +0.000 C 
ATOM      8  C   UNL     1       2.360   5.294  20.290  0.00  0.00    +0.000 C 
ATOM      9  N   UNL     1       3.662   5.528  19.641  0.00  0.00    +0.000 NA
ATOM     10  C   UNL     1       3.428   6.245  18.374  0.00  0.00    +0.000 C 
ENDROOT
BRANCH   1  11
ATOM     11  C   UNL     1       0.015   9.237  20.835  0.00  0.00    +0.000 C 
BRANCH  11  12
ATOM     12  N   UNL     1       0.482  10.162  21.914  0.00  0.00    +0.000 NA
ATOM     13  C   UNL     1       0.352   9.537  23.238  0.00  0.00    +0.000 C 
BRANCH  12  15
ATOM     14  C   UNL     1      -1.090  11.658  20.598  0.00  0.00    +0.000 C 
ATOM     15  C   UNL     1      -0.259  11.462  21.886  0.00  0.00    +0.000 C 
ATOM     16  C   UNL     1      -1.244  11.613  23.057  0.00  0.00    +0.000 C 
ENDBRANCH  12  15
ENDBRANCH  11  12
ENDBRANCH   1  11
BRANCH   9  17
ATOM     17  C   UNL     1       4.381   4.273  19.352  0.00  0.00    +0.000 C 
BRANCH  17  18
ATOM     18  C   UNL     1       5.151   4.314  18.060  0.00  0.00    +0.000 A 
ATOM     19  C   UNL     1       4.757   3.885  16.805  0.00  0.00    +0.000 A 
ATOM     20  C   UNL     1       5.777   4.073  15.823  0.00  0.00    +0.000 A 
ATOM     21  C   UNL     1       6.912   4.627  16.361  0.00  0.00    +0.000 A 
ATOM     22  S   UNL     1       6.756   4.920  18.039  0.00  0.00    +0.000 S 
ENDBRANCH  17  18
ENDBRANCH   9  17
TORSDOF 5
ENDMDL
MODEL 8
REMARK VINA RESULT:      -6.0      1.353      1.684
REMARK  Name = 
REMARK  8 active torsions:
REMARK  status: ('A' for Active; 'I' for Inactive)
REMARK    1  A    between atoms: C_1  and  C_2
REMARK    2  A    between atoms: C_2  and  C_3
REMARK    3  A    between atoms: C_2  and  N_4
REMARK    4  A    between atoms: N_4  and  C_5
REMARK    5  A    between atoms: N_4  and  C_6
REMARK    6  A    between atoms: C_6  and  C_7
REMARK    7  A    between atoms: N_15  and  C_16
REMARK    8  A    between atoms: C_16  and  C_17
REMARK                            x       y       z     vdW  Elec       q    Type
REMARK                         _______ _______ _______ _____ _____    ______ ____
ROOT
ATOM      1  C   UNL     1       4.230   4.491  18.449  0.00  0.00    +0.000 A 
ATOM      2  C   UNL     1       4.928   4.375  17.244  0.00  0.00    +0.000 A 
ATOM      3  N   UNL     1       5.148   5.369  16.353  0.00  0.00    +0.000 NA
ATOM      4  C   UNL     1       4.571   6.549  16.631  0.00  0.00    +0.000 A 
ATOM      5  C   UNL     1       3.740   6.767  17.722  0.00  0.00    +0.000 A 
ATOM      6  C   UNL     1       3.578   5.729  18.665  0.00  0.00    +0.000 A 
ATOM      7  C   UNL     1       2.592   5.953  19.792  0.00  0.00    +0.000 C 
ATOM      8  C   UNL     1       2.168   7.423  19.982  0.00  0.00    +0.000 C 
ATOM      9  N   UNL     1       1.847   8.059  18.693  0.00  0.00    +0.000 NA
ATOM     10  C   UNL     1       3.076   8.110  17.880  0.00  0.00    +0.000 C 
ENDROOT
BRANCH   1  11
ATOM     11  C   UNL     1       4.121   3.280  19.375  0.00  0.00    +0.000 C 
BRANCH  11  12
ATOM     12  N   UNL     1       3.085   2.251  19.050  0.00  0.00    +0.000 NA
ATOM     13  C   UNL     1       2.490   2.500  17.730  0.00  0.00    +0.000 C 
BRANCH  12  15
ATOM     14  C   UNL     1       2.462   2.780  21.454  0.00  0.00    +0.000 C 
ATOM     15  C   UNL     1       2.013   2.199  20.094  0.00  0.00    +0.000 C 
ATOM     16  C   UNL     1       0.750   2.978  19.693  0.00  0.00    +0.000 C 
ENDBRANCH  12  15
ENDBRANCH  11  12
ENDBRANCH   1  11
BRANCH   9  17
ATOM     17  C   UNL     1       1.328   9.431  18.857  0.00  0.00    +0.000 C 
BRANCH  17  18
ATOM     18  C   UNL     1       0.685   9.667  20.197  0.00  0.00    +0.000 A 
ATOM     19  C   UNL     1       0.015   8.765  21.005  0.00  0.00    +0.000 A 
ATOM     20  C   UNL     1      -0.475   9.370  22.202  0.00  0.00    +0.000 A 
ATOM     21  C   UNL     1      -0.173  10.708  22.261  0.00  0.00    +0.000 A 
ATOM     22  S   UNL     1       0.695  11.238  20.886  0.00  0.00    +0.000 S 
ENDBRANCH  17  18
ENDBRANCH   9  17
TORSDOF 5
ENDMDL
MODEL 9
REMARK VINA RESULT:      -6.0      2.852      7.875
REMARK  Name = 
REMARK  8 active torsions:
REMARK  status: ('A' for Active; 'I' for Inactive)
REMARK    1  A    between atoms: C_1  and  C_2
REMARK    2  A    between atoms: C_2  and  C_3
REMARK    3  A    between atoms: C_2  and  N_4
REMARK    4  A    between atoms: N_4  and  C_5
REMARK    5  A    between atoms: N_4  and  C_6
REMARK    6  A    between atoms: C_6  and  C_7
REMARK    7  A    between atoms: N_15  and  C_16
REMARK    8  A    between atoms: C_16  and  C_17
REMARK                            x       y       z     vdW  Elec       q    Type
REMARK                         _______ _______ _______ _____ _____    ______ ____
ROOT
ATOM      1  C   UNL     1       0.662   9.966  19.686  0.00  0.00    +0.000 A 
ATOM      2  C   UNL     1       0.054   9.684  20.913  0.00  0.00    +0.000 A 
ATOM      3  N   UNL     1       0.337   8.634  21.718  0.00  0.00    +0.000 NA
ATOM      4  C   UNL     1       1.230   7.751  21.245  0.00  0.00    +0.000 A 
ATOM      5  C   UNL     1       1.810   7.835  19.986  0.00  0.00    +0.000 A 
ATOM      6  C   UNL     1       1.542   8.973  19.194  0.00  0.00    +0.000 A 
ATOM      7  C   UNL     1       2.104   8.996  17.788  0.00  0.00    +0.000 C 
ATOM      8  C   UNL     1       3.207   7.951  17.527  0.00  0.00    +0.000 C 
ATOM      9  N   UNL     1       2.832   6.631  18.061  0.00  0.00    +0.000 NA
ATOM     10  C   UNL     1       2.731   6.734  19.529  0.00  0.00    +0.000 C 
ENDROOT
BRANCH   1  11
ATOM     11  C   UNL     1       0.268  11.231  18.925  0.00  0.00    +0.000 C 
BRANCH  11  12
ATOM     12  N   UNL     1      -1.073  11.825  19.217  0.00  0.00    +0.000 NA
ATOM     13  C   UNL     1      -1.862  11.981  17.987  0.00  0.00    +0.000 C 
BRANCH  12  15
ATOM     14  C   UNL     1      -0.436  14.273  19.000  0.00  0.00    +0.000 C 
ATOM     15  C   UNL     1      -0.952  13.142  19.919  0.00  0.00    +0.000 C 
ATOM     16  C   UNL     1      -2.289  13.637  20.495  0.00  0.00    +0.000 C 
ENDBRANCH  12  15
ENDBRANCH  11  12
ENDBRANCH   1  11
BRANCH   9  17
ATOM     17  C   UNL     1       3.818   5.587  17.725  0.00  0.00    +0.000 C 
BRANCH  17  18
ATOM     18  C   UNL     1       3.334   4.193  18.022  0.00  0.00    +0.000 A 
ATOM     19  C   UNL     1       2.209   3.548  17.539  0.00  0.00    +0.000 A 
ATOM     20  C   UNL     1       2.072   2.229  18.067  0.00  0.00    +0.000 A 
ATOM     21  C   UNL     1       3.086   1.917  18.939  0.00  0.00    +0.000 A 
ATOM     22  S   UNL     1       4.198   3.203  19.125  0.00  0.00    +0.000 S 
ENDBRANCH  17  18
ENDBRANCH   9  17
TORSDOF 5
ENDMDL
