MODEL 1
REMARK VINA RESULT:      -6.3      0.000      0.000
REMARK  Name = 
REMARK  5 active torsions:
REMARK  status: ('A' for Active; 'I' for Inactive)
REMARK    1  A    between atoms: C_1  and  C_2
REMARK    2  A    between atoms: C_2  and  N_3
REMARK    3  A    between atoms: N_3  and  C_4
REMARK    4  A    between atoms: C_4  and  C_5
REMARK    5  A    between atoms: C_11  and  C_13
REMARK                            x       y       z     vdW  Elec       q    Type
REMARK                         _______ _______ _______ _____ _____    ______ ____
ROOT
ATOM      1  N   UNL     1       4.293   5.639  18.282  0.00  0.00    +0.000 N 
ATOM      2  C   UNL     1       4.500   4.487  19.066  0.00  0.00    +0.000 C 
ATOM      3  O   UNL     1       5.659   4.187  19.377  0.00  0.00    +0.000 OA
ENDROOT
BRANCH   2   4
ATOM      4  C   UNL     1       3.382   3.648  19.497  0.00  0.00    +0.000 A 
ATOM      5  C   UNL     1       2.546   3.708  20.599  0.00  0.00    +0.000 A 
ATOM      6  C   UNL     1       1.503   2.733  20.560  0.00  0.00    +0.000 A 
ATOM      7  C   UNL     1       1.543   1.981  19.410  0.00  0.00    +0.000 A 
ATOM      8  S   UNL     1       2.853   2.420  18.408  0.00  0.00    +0.000 S 
ENDBRANCH   2   4
BRANCH   1  10
ATOM      9  C   UNL     1       5.577   6.166  16.188  0.00  0.00    +0.000 C 
ATOM     10  C   UNL     1       5.496   6.255  17.706  0.00  0.00    +0.000 C 
ENDBRANCH   1  10
BRANCH   1  11
ATOM     11  C   UNL     1       3.002   6.147  17.814  0.00  0.00    +0.000 C 
BRANCH  11  12
ATOM     12  C   UNL     1       2.421   7.363  18.497  0.00  0.00    +0.000 A 
ATOM     13  C   UNL     1       2.047   8.532  17.823  0.00  0.00    +0.000 A 
ATOM     14  C   UNL     1       1.386   9.563  18.500  0.00  0.00    +0.000 A 
ATOM     15  C   UNL     1       1.083   9.436  19.856  0.00  0.00    +0.000 A 
ATOM     16  C   UNL     1       1.465   8.292  20.546  0.00  0.00    +0.000 A 
ATOM     17  C   UNL     1       2.133   7.268  19.872  0.00  0.00    +0.000 A 
ENDBRANCH  11  12
ENDBRANCH   1  11
TORSDOF 4
ENDMDL
MODEL 2
REMARK VINA RESULT:      -6.3      3.075      5.646
REMARK  Name = 
REMARK  5 active torsions:
REMARK  status: ('A' for Active; 'I' for Inactive)
REMARK    1  A    between atoms: C_1  and  C_2
REMARK    2  A    between atoms: C_2  and  N_3
REMARK    3  A    between atoms: N_3  and  C_4
REMARK    4  A    between atoms: C_4  and  C_5
REMARK    5  A    between atoms: C_11  and  C_13
REMARK                            x       y       z     vdW  Elec       q    Type
REMARK                         _______ _______ _______ _____ _____    ______ ____
ROOT
ATOM      1  N   UNL     1       5.461   5.650  16.901  0.00  0.00    +0.000 N 
ATOM      2  C   UNL     1       4.258   5.495  17.617  0.00  0.00    +0.000 C 
ATOM      3  O   UNL     1       3.689   6.509  18.039  0.00  0.00    +0.000 OA
ENDROOT
BRANCH   2   4
ATOM      4  C   UNL     1       3.691   4.171  17.876  0.00  0.00    +0.000 A 
ATOM      5  C   UNL     1       2.800   3.386  17.164  0.00  0.00    +0.000 A 
ATOM      6  C   UNL     1       2.608   2.096  17.745  0.00  0.00    +0.000 A 
ATOM      7  C   UNL     1       3.388   1.912  18.862  0.00  0.00    +0.000 A 
ATOM      8  S   UNL     1       4.310   3.299  19.230  0.00  0.00    +0.000 S 
ENDBRANCH   2   4
BRANCH   1  10
ATOM      9  C   UNL     1       7.450   7.050  17.532  0.00  0.00    +0.000 C 
ATOM     10  C   UNL     1       6.056   6.993  16.920  0.00  0.00    +0.000 C 
ENDBRANCH   1  10
BRANCH   1  11
ATOM     11  C   UNL     1       6.274   4.574  16.332  0.00  0.00    +0.000 C 
BRANCH  11  12
ATOM     12  C   UNL     1       6.478   4.544  14.835  0.00  0.00    +0.000 A 
ATOM     13  C   UNL     1       7.511   5.221  14.175  0.00  0.00    +0.000 A 
ATOM     14  C   UNL     1       7.720   5.034  12.804  0.00  0.00    +0.000 A 
ATOM     15  C   UNL     1       6.908   4.164  12.078  0.00  0.00    +0.000 A 
ATOM     16  C   UNL     1       5.864   3.500  12.713  0.00  0.00    +0.000 A 
ATOM     17  C   UNL     1       5.649   3.694  14.078  0.00  0.00    +0.000 A 
ENDBRANCH  11  12
ENDBRANCH   1  11
TORSDOF 4
ENDMDL
MODEL 3
REMARK VINA RESULT:      -6.3      1.882      3.802
REMARK  Name = 
REMARK  5 active torsions:
REMARK  status: ('A' for Active; 'I' for Inactive)
REMARK    1  A    between atoms: C_1  and  C_2
REMARK    2  A    between atoms: C_2  and  N_3
REMARK    3  A    between atoms: N_3  and  C_4
REMARK    4  A    between atoms: C_4  and  C_5
REMARK    5  A    between atoms: C_11  and  C_13
REMARK                            x       y       z     vdW  Elec       q    Type
REMARK                         _______ _______ _______ _____ _____    ______ ____
ROOT
ATOM      1  N   UNL     1       2.928   4.820  18.753  0.00  0.00    +0.000 N 
ATOM      2  C   UNL     1       4.038   4.542  17.930  0.00  0.00    +0.000 C 
ATOM      3  O   UNL     1       3.936   3.642  17.088  0.00  0.00    +0.000 OA
ENDROOT
BRANCH   2   4
ATOM      4  C   UNL     1       5.292   5.282  18.068  0.00  0.00    +0.000 A 
ATOM      5  C   UNL     1       6.311   5.219  19.004  0.00  0.00    +0.000 A 
ATOM      6  C   UNL     1       7.416   6.064  18.681  0.00  0.00    +0.000 A 
ATOM      7  C   UNL     1       7.232   6.719  17.487  0.00  0.00    +0.000 A 
ATOM      8  S   UNL     1       5.722   6.351  16.784  0.00  0.00    +0.000 S 
ENDBRANCH   2   4
BRANCH   1  10
ATOM      9  C   UNL     1       1.011   3.755  19.980  0.00  0.00    +0.000 C 
ATOM     10  C   UNL     1       1.822   3.855  18.694  0.00  0.00    +0.000 C 
ENDBRANCH   1  10
BRANCH   1  11
ATOM     11  C   UNL     1       2.862   5.838  19.802  0.00  0.00    +0.000 C 
BRANCH  11  12
ATOM     12  C   UNL     1       2.346   7.210  19.437  0.00  0.00    +0.000 A 
ATOM     13  C   UNL     1       2.418   7.754  18.149  0.00  0.00    +0.000 A 
ATOM     14  C   UNL     1       1.795   8.971  17.855  0.00  0.00    +0.000 A 
ATOM     15  C   UNL     1       1.085   9.657  18.840  0.00  0.00    +0.000 A 
ATOM     16  C   UNL     1       1.020   9.143  20.130  0.00  0.00    +0.000 A 
ATOM     17  C   UNL     1       1.651   7.933  20.425  0.00  0.00    +0.000 A 
ENDBRANCH  11  12
ENDBRANCH   1  11
TORSDOF 4
ENDMDL
MODEL 4
REMARK VINA RESULT:      -6.2      1.778      3.804
REMARK  Name = 
REMARK  5 active torsions:
REMARK  status: ('A' for Active; 'I' for Inactive)
REMARK    1  A    between atoms: C_1  and  C_2
REMARK    2  A    between atoms: C_2  and  N_3
REMARK    3  A    between atoms: N_3  and  C_4
REMARK    4  A    between atoms: C_4  and  C_5
REMARK    5  A    between atoms: C_11  and  C_13
REMARK                            x       y       z     vdW  Elec       q    Type
REMARK                         _______ _______ _______ _____ _____    ______ ____
ROOT
ATOM      1  N   UNL     1       3.060   3.287  19.836  0.00  0.00    +0.000 N 
ATOM      2  C   UNL     1       4.402   3.158  19.426  0.00  0.00    +0.000 C 
ATOM      3  O   UNL     1       5.167   2.477  20.120  0.00  0.00    +0.000 OA
ENDROOT
BRANCH   2   4
ATOM      4  C   UNL     1       4.896   3.819  18.219  0.00  0.00    +0.000 A 
ATOM      5  C   UNL     1       4.569   3.677  16.881  0.00  0.00    +0.000 A 
ATOM      6  C   UNL     1       5.234   4.622  16.042  0.00  0.00    +0.000 A 
ATOM      7  C   UNL     1       6.020   5.489  16.764  0.00  0.00    +0.000 A 
ATOM      8  S   UNL     1       5.988   5.138  18.432  0.00  0.00    +0.000 S 
ENDBRANCH   2   4
BRANCH   1  10
ATOM      9  C   UNL     1       1.257   2.775  21.510  0.00  0.00    +0.000 C 
ATOM     10  C   UNL     1       2.745   2.790  21.182  0.00  0.00    +0.000 C 
ENDBRANCH   1  10
BRANCH   1  11
ATOM     11  C   UNL     1       2.016   4.050  19.152  0.00  0.00    +0.000 C 
BRANCH  11  12
ATOM     12  C   UNL     1       2.108   5.559  19.163  0.00  0.00    +0.000 A 
ATOM     13  C   UNL     1       2.308   6.336  18.015  0.00  0.00    +0.000 A 
ATOM     14  C   UNL     1       2.243   7.732  18.082  0.00  0.00    +0.000 A 
ATOM     15  C   UNL     1       1.967   8.369  19.292  0.00  0.00    +0.000 A 
ATOM     16  C   UNL     1       1.786   7.614  20.445  0.00  0.00    +0.000 A 
ATOM     17  C   UNL     1       1.862   6.222  20.380  0.00  0.00    +0.000 A 
ENDBRANCH  11  12
ENDBRANCH   1  11
TORSDOF 4
ENDMDL
MODEL 5
REMARK VINA RESULT:      -6.2      2.967      4.090
REMARK  Name = 
REMARK  5 active torsions:
REMARK  status: ('A' for Active; 'I' for Inactive)
REMARK    1  A    between atoms: C_1  and  C_2
REMARK    2  A    between atoms: C_2  and  N_3
REMARK    3  A    between atoms: N_3  and  C_4
REMARK    4  A    between atoms: C_4  and  C_5
REMARK    5  A    between atoms: C_11  and  C_13
REMARK                            x       y       z     vdW  Elec       q    Type
REMARK                         _______ _______ _______ _____ _____    ______ ____
ROOT
ATOM      1  N   UNL     1       4.413   3.868  17.189  0.00  0.00    +0.000 N 
ATOM      2  C   UNL     1       3.634   2.934  17.899  0.00  0.00    +0.000 C 
ATOM      3  O   UNL     1       3.716   1.740  17.586  0.00  0.00    +0.000 OA
ENDROOT
BRANCH   2   4
ATOM      4  C   UNL     1       2.734   3.352  18.973  0.00  0.00    +0.000 A 
ATOM      5  C   UNL     1       1.521   4.020  18.962  0.00  0.00    +0.000 A 
ATOM      6  C   UNL     1       0.930   4.122  20.258  0.00  0.00    +0.000 A 
ATOM      7  C   UNL     1       1.685   3.493  21.220  0.00  0.00    +0.000 A 
ATOM      8  S   UNL     1       3.114   2.825  20.571  0.00  0.00    +0.000 S 
ENDBRANCH   2   4
BRANCH   1  10
ATOM      9  C   UNL     1       5.305   4.426  14.907  0.00  0.00    +0.000 C 
ATOM     10  C   UNL     1       5.081   3.368  15.980  0.00  0.00    +0.000 C 
ENDBRANCH   1  10
BRANCH   1  11
ATOM     11  C   UNL     1       4.445   5.315  17.411  0.00  0.00    +0.000 C 
BRANCH  11  12
ATOM     12  C   UNL     1       5.723   5.932  17.929  0.00  0.00    +0.000 A 
ATOM     13  C   UNL     1       6.488   5.386  18.967  0.00  0.00    +0.000 A 
ATOM     14  C   UNL     1       7.731   5.935  19.300  0.00  0.00    +0.000 A 
ATOM     15  C   UNL     1       8.231   7.030  18.593  0.00  0.00    +0.000 A 
ATOM     16  C   UNL     1       7.476   7.597  17.573  0.00  0.00    +0.000 A 
ATOM     17  C   UNL     1       6.231   7.056  17.250  0.00  0.00    +0.000 A 
ENDBRANCH  11  12
ENDBRANCH   1  11
TORSDOF 4
ENDMDL
MODEL 6
REMARK VINA RESULT:      -6.2      3.412      5.469
REMARK  Name = 
REMARK  5 active torsions:
REMARK  status: ('A' for Active; 'I' for Inactive)
REMARK    1  A    between atoms: C_1  and  C_2
REMARK    2  A    between atoms: C_2  and  N_3
REMARK    3  A    between atoms: N_3  and  C_4
REMARK    4  A    between atoms: C_4  and  C_5
REMARK    5  A    between atoms: C_11  and  C_13
REMARK                            x       y       z     vdW  Elec       q    Type
REMARK                         _______ _______ _______ _____ _____    ______ ____
ROOT
ATOM      1  N   UNL     1       6.015   5.514  17.318  0.00  0.00    +0.000 N 
ATOM      2  C   UNL     1       5.414   4.675  18.277  0.00  0.00    +0.000 C 
ATOM      3  O   UNL     1       6.006   4.486  19.347  0.00  0.00    +0.000 OA
ENDROOT
BRANCH   2   4
ATOM      4  C   UNL     1       4.129   4.024  18.021  0.00  0.00    +0.000 A 
ATOM      5  C   UNL     1       3.800   2.731  17.652  0.00  0.00    +0.000 A 
ATOM      6  C   UNL     1       2.390   2.503  17.621  0.00  0.00    +0.000 A 
ATOM      7  C   UNL     1       1.680   3.614  18.008  0.00  0.00    +0.000 A 
ATOM      8  S   UNL     1       2.703   4.932  18.363  0.00  0.00    +0.000 S 
ENDBRANCH   2   4
BRANCH   1  10
ATOM      9  C   UNL     1       7.638   7.411  17.596  0.00  0.00    +0.000 C 
ATOM     10  C   UNL     1       7.406   5.906  17.582  0.00  0.00    +0.000 C 
ENDBRANCH   1  10
BRANCH   1  11
ATOM     11  C   UNL     1       5.472   5.850  16.001  0.00  0.00    +0.000 C 
BRANCH  11  12
ATOM     12  C   UNL     1       5.965   5.072  14.803  0.00  0.00    +0.000 A 
ATOM     13  C   UNL     1       5.220   4.076  14.160  0.00  0.00    +0.000 A 
ATOM     14  C   UNL     1       5.683   3.496  12.974  0.00  0.00    +0.000 A 
ATOM     15  C   UNL     1       6.890   3.910  12.409  0.00  0.00    +0.000 A 
ATOM     16  C   UNL     1       7.652   4.883  13.045  0.00  0.00    +0.000 A 
ATOM     17  C   UNL     1       7.195   5.453  14.234  0.00  0.00    +0.000 A 
ENDBRANCH  11  12
ENDBRANCH   1  11
TORSDOF 4
ENDMDL
MODEL 7
REMARK VINA RESULT:      -6.2      1.772      3.855
REMARK  Name = 
REMARK  5 active torsions:
REMARK  status: ('A' for Active; 'I' for Inactive)
REMARK    1  A    between atoms: C_1  and  C_2
REMARK    2  A    between atoms: C_2  and  N_3
REMARK    3  A    between atoms: N_3  and  C_4
REMARK    4  A    between atoms: C_4  and  C_5
REMARK    5  A    between atoms: C_11  and  C_13
REMARK                            x       y       z     vdW  Elec       q    Type
REMARK                         _______ _______ _______ _____ _____    ______ ____
ROOT
ATOM      1  N   UNL     1       2.914   5.145  18.407  0.00  0.00    +0.000 N 
ATOM      2  C   UNL     1       3.953   4.846  17.504  0.00  0.00    +0.000 C 
ATOM      3  O   UNL     1       3.755   3.976  16.646  0.00  0.00    +0.000 OA
ENDROOT
BRANCH   2   4
ATOM      4  C   UNL     1       5.244   5.528  17.576  0.00  0.00    +0.000 A 
ATOM      5  C   UNL     1       5.714   6.693  16.992  0.00  0.00    +0.000 A 
ATOM      6  C   UNL     1       7.025   7.048  17.435  0.00  0.00    +0.000 A 
ATOM      7  C   UNL     1       7.507   6.169  18.375  0.00  0.00    +0.000 A 
ATOM      8  S   UNL     1       6.405   4.904  18.688  0.00  0.00    +0.000 S 
ENDBRANCH   2   4
BRANCH   1  10
ATOM      9  C   UNL     1       1.604   3.415  19.675  0.00  0.00    +0.000 C 
ATOM     10  C   UNL     1       1.765   4.230  18.397  0.00  0.00    +0.000 C 
ENDBRANCH   1  10
BRANCH   1  11
ATOM     11  C   UNL     1       2.963   6.132  19.486  0.00  0.00    +0.000 C 
BRANCH  11  12
ATOM     12  C   UNL     1       2.339   7.488  19.246  0.00  0.00    +0.000 A 
ATOM     13  C   UNL     1       2.350   8.143  18.009  0.00  0.00    +0.000 A 
ATOM     14  C   UNL     1       1.633   9.331  17.827  0.00  0.00    +0.000 A 
ATOM     15  C   UNL     1       0.887   9.873  18.874  0.00  0.00    +0.000 A 
ATOM     16  C   UNL     1       0.881   9.246  20.115  0.00  0.00    +0.000 A 
ATOM     17  C   UNL     1       1.606   8.068  20.299  0.00  0.00    +0.000 A 
ENDBRANCH  11  12
ENDBRANCH   1  11
TORSDOF 4
ENDMDL
MODEL 8
REMARK VINA RESULT:      -6.2      3.093      5.615
REMARK  Name = 
REMARK  5 active torsions:
REMARK  status: ('A' for Active; 'I' for Inactive)
REMARK    1  A    between atoms: C_1  and  C_2
REMARK    2  A    between atoms: C_2  and  N_3
REMARK    3  A    between atoms: N_3  and  C_4
REMARK    4  A    between atoms: C_4  and  C_5
REMARK    5  A    between atoms: C_11  and  C_13
REMARK                            x       y       z     vdW  Elec       q    Type
REMARK                         _______ _______ _______ _____ _____    ______ ____
ROOT
ATOM      1  N   UNL     1       5.590   5.724  17.026  0.00  0.00    +0.000 N 
ATOM      2  C   UNL     1       4.336   5.543  17.643  0.00  0.00    +0.000 C 
ATOM      3  O   UNL     1       3.697   6.546  17.984  0.00  0.00    +0.000 OA
ENDROOT
BRANCH   2   4
ATOM      4  C   UNL     1       3.797   4.207  17.895  0.00  0.00    +0.000 A 
ATOM      5  C   UNL     1       2.981   3.377  17.144  0.00  0.00    +0.000 A 
ATOM      6  C   UNL     1       2.793   2.093  17.740  0.00  0.00    +0.000 A 
ATOM      7  C   UNL     1       3.503   1.959  18.910  0.00  0.00    +0.000 A 
ATOM      8  S   UNL     1       4.353   3.384  19.305  0.00  0.00    +0.000 S 
ENDBRANCH   2   4
BRANCH   1  10
ATOM      9  C   UNL     1       7.557   7.183  17.584  0.00  0.00    +0.000 C 
ATOM     10  C   UNL     1       6.133   7.088  17.053  0.00  0.00    +0.000 C 
ENDBRANCH   1  10
BRANCH   1  11
ATOM     11  C   UNL     1       6.487   4.664  16.562  0.00  0.00    +0.000 C 
BRANCH  11  12
ATOM     12  C   UNL     1       6.585   4.409  15.075  0.00  0.00    +0.000 A 
ATOM     13  C   UNL     1       5.649   3.665  14.348  0.00  0.00    +0.000 A 
ATOM     14  C   UNL     1       5.730   3.588  12.953  0.00  0.00    +0.000 A 
ATOM     15  C   UNL     1       6.741   4.260  12.267  0.00  0.00    +0.000 A 
ATOM     16  C   UNL     1       7.692   4.987  12.974  0.00  0.00    +0.000 A 
ATOM     17  C   UNL     1       7.616   5.055  14.366  0.00  0.00    +0.000 A 
ENDBRANCH  11  12
ENDBRANCH   1  11
TORSDOF 4
ENDMDL
MODEL 9
REMARK VINA RESULT:      -6.2      2.056      4.153
REMARK  Name = 
REMARK  5 active torsions:
REMARK  status: ('A' for Active; 'I' for Inactive)
REMARK    1  A    between atoms: C_1  and  C_2
REMARK    2  A    between atoms: C_2  and  N_3
REMARK    3  A    between atoms: N_3  and  C_4
REMARK    4  A    between atoms: C_4  and  C_5
REMARK    5  A    between atoms: C_11  and  C_13
REMARK                            x       y       z     vdW  Elec       q    Type
REMARK                         _______ _______ _______ _____ _____    ______ ____
ROOT
ATOM      1  N   UNL     1       3.794   4.881  18.217  0.00  0.00    +0.000 N 
ATOM      2  C   UNL     1       4.911   4.870  17.358  0.00  0.00    +0.000 C 
ATOM      3  O   UNL     1       4.932   4.054  16.429  0.00  0.00    +0.000 OA
ENDROOT
BRANCH   2   4
ATOM      4  C   UNL     1       6.034   5.786  17.558  0.00  0.00    +0.000 A 
ATOM      5  C   UNL     1       6.305   7.048  17.056  0.00  0.00    +0.000 A 
ATOM      6  C   UNL     1       7.485   7.627  17.615  0.00  0.00    +0.000 A 
ATOM      7  C   UNL     1       8.062   6.812  18.558  0.00  0.00    +0.000 A 
ATOM      8  S   UNL     1       7.213   5.343  18.737  0.00  0.00    +0.000 S 
ENDBRANCH   2   4
BRANCH   1  10
ATOM      9  C   UNL     1       1.428   4.181  17.743  0.00  0.00    +0.000 C 
ATOM     10  C   UNL     1       2.855   3.761  18.071  0.00  0.00    +0.000 C 
ENDBRANCH   1  10
BRANCH   1  11
ATOM     11  C   UNL     1       3.595   5.765  19.366  0.00  0.00    +0.000 C 
BRANCH  11  12
ATOM     12  C   UNL     1       2.708   6.976  19.194  0.00  0.00    +0.000 A 
ATOM     13  C   UNL     1       1.922   7.519  20.218  0.00  0.00    +0.000 A 
ATOM     14  C   UNL     1       1.235   8.722  20.024  0.00  0.00    +0.000 A 
ATOM     15  C   UNL     1       1.331   9.403  18.810  0.00  0.00    +0.000 A 
ATOM     16  C   UNL     1       2.090   8.868  17.776  0.00  0.00    +0.000 A 
ATOM     17  C   UNL     1       2.767   7.662  17.966  0.00  0.00    +0.000 A 
ENDBRANCH  11  12
ENDBRANCH   1  11
TORSDOF 4
ENDMDL
