MODEL 1
REMARK VINA RESULT:      -8.0      0.000      0.000
REMARK  Name = 
REMARK  9 active torsions:
REMARK  status: ('A' for Active; 'I' for Inactive)
REMARK    1  A    between atoms: C_1  and  C_2
REMARK    2  A    between atoms: C_2  and  O_3
REMARK    3  A    between atoms: O_3  and  C_4
REMARK    4  A    between atoms: C_4  and  C_5
REMARK    5  A    between atoms: C_5  and  N_6
REMARK    6  A    between atoms: C_10  and  O_11
REMARK    7  A    between atoms: O_11  and  C_12
REMARK    8  A    between atoms: C_12  and  C_13
REMARK    9  A    between atoms: N_15  and  C_16
REMARK                            x       y       z     vdW  Elec       q    Type
REMARK                         _______ _______ _______ _____ _____    ______ ____
ROOT
ATOM      1  N   UNL     1       6.265   5.424  17.724  0.00  0.00    +0.000 N 
ATOM      2  C   UNL     1       6.216   5.305  19.099  0.00  0.00    +0.000 A 
ATOM      3  C   UNL     1       5.311   4.546  19.722  0.00  0.00    +0.000 A 
ATOM      4  C   UNL     1       4.331   3.787  18.944  0.00  0.00    +0.000 A 
ATOM      5  C   UNL     1       3.378   2.956  19.556  0.00  0.00    +0.000 A 
ATOM      6  C   UNL     1       2.499   2.202  18.765  0.00  0.00    +0.000 A 
ATOM      7  C   UNL     1       2.530   2.314  17.373  0.00  0.00    +0.000 A 
ATOM      8  C   UNL     1       3.443   3.167  16.763  0.00  0.00    +0.000 A 
ATOM      9  C   UNL     1       4.347   3.898  17.545  0.00  0.00    +0.000 A 
ATOM     10  C   UNL     1       5.339   4.790  16.886  0.00  0.00    +0.000 A 
ATOM     11  O   UNL     1       5.292   4.938  15.667  0.00  0.00    +0.000 OA
ENDROOT
BRANCH   1  12
ATOM     12  C   UNL     1       7.315   6.252  17.113  0.00  0.00    +0.000 C 
BRANCH  12  13
ATOM     13  C   UNL     1       7.172   7.753  17.399  0.00  0.00    +0.000 C 
BRANCH  13  14
ATOM     14  O   UNL     1       8.236   8.210  18.236  0.00  0.00    +0.000 OA
BRANCH  14  16
ATOM     15  C   UNL     1       9.265  10.103  19.263  0.00  0.00    +0.000 C 
ATOM     16  C   UNL     1       8.480   9.603  18.067  0.00  0.00    +0.000 C 
ENDBRANCH  14  16
ENDBRANCH  13  14
ENDBRANCH  12  13
ENDBRANCH   1  12
BRANCH   5  17
ATOM     17  O   UNL     1       3.392   2.897  20.930  0.00  0.00    +0.000 OA
BRANCH  17  18
ATOM     18  C   UNL     1       2.192   3.320  21.569  0.00  0.00    +0.000 C 
BRANCH  18  19
ATOM     19  C   UNL     1       1.582   4.531  20.868  0.00  0.00    +0.000 C 
ATOM     20  O   UNL     1       0.505   4.413  20.282  0.00  0.00    +0.000 OA
ATOM     21  N   UNL     1       2.336   5.690  20.969  0.00  0.00    +0.000 N 
ATOM     22  H   UNL     1       3.270   5.568  21.348  0.00  0.00    +0.000 HD
BRANCH  21  23
ATOM     23  C   UNL     1       2.015   6.933  20.384  0.00  0.00    +0.000 A 
ATOM     24  C   UNL     1       1.267   7.911  21.046  0.00  0.00    +0.000 A 
ATOM     25  C   UNL     1       0.877   9.086  20.395  0.00  0.00    +0.000 A 
ATOM     26  C   UNL     1       1.252   9.298  19.073  0.00  0.00    +0.000 A 
ATOM     27  C   UNL     1       2.047   8.354  18.434  0.00  0.00    +0.000 A 
ATOM     28  F   UNL     1       2.415   8.563  17.162  0.00  0.00    +0.000 F 
ATOM     29  C   UNL     1       2.449   7.186  19.079  0.00  0.00    +0.000 A 
ENDBRANCH  21  23
ENDBRANCH  18  19
ENDBRANCH  17  18
ENDBRANCH   5  17
TORSDOF 8
ENDMDL
MODEL 2
REMARK VINA RESULT:      -7.6      2.961      7.311
REMARK  Name = 
REMARK  9 active torsions:
REMARK  status: ('A' for Active; 'I' for Inactive)
REMARK    1  A    between atoms: C_1  and  C_2
REMARK    2  A    between atoms: C_2  and  O_3
REMARK    3  A    between atoms: O_3  and  C_4
REMARK    4  A    between atoms: C_4  and  C_5
REMARK    5  A    between atoms: C_5  and  N_6
REMARK    6  A    between atoms: C_10  and  O_11
REMARK    7  A    between atoms: O_11  and  C_12
REMARK    8  A    between atoms: C_12  and  C_13
REMARK    9  A    between atoms: N_15  and  C_16
REMARK                            x       y       z     vdW  Elec       q    Type
REMARK                         _______ _______ _______ _____ _____    ______ ____
ROOT
ATOM      1  N   UNL     1       2.500   4.486  17.918  0.00  0.00    +0.000 N 
ATOM      2  C   UNL     1       2.859   5.734  18.387  0.00  0.00    +0.000 A 
ATOM      3  C   UNL     1       4.035   6.299  18.098  0.00  0.00    +0.000 A 
ATOM      4  C   UNL     1       4.993   5.600  17.242  0.00  0.00    +0.000 A 
ATOM      5  C   UNL     1       6.229   6.167  16.890  0.00  0.00    +0.000 A 
ATOM      6  C   UNL     1       7.088   5.484  16.018  0.00  0.00    +0.000 A 
ATOM      7  C   UNL     1       6.744   4.219  15.537  0.00  0.00    +0.000 A 
ATOM      8  C   UNL     1       5.540   3.633  15.915  0.00  0.00    +0.000 A 
ATOM      9  C   UNL     1       4.662   4.324  16.759  0.00  0.00    +0.000 A 
ATOM     10  C   UNL     1       3.364   3.704  17.140  0.00  0.00    +0.000 A 
ATOM     11  O   UNL     1       3.120   2.556  16.775  0.00  0.00    +0.000 OA
ENDROOT
BRANCH   1  12
ATOM     12  C   UNL     1       1.173   3.949  18.252  0.00  0.00    +0.000 C 
BRANCH  12  13
ATOM     13  C   UNL     1       0.929   3.780  19.758  0.00  0.00    +0.000 C 
BRANCH  13  14
ATOM     14  O   UNL     1       1.398   2.506  20.203  0.00  0.00    +0.000 OA
BRANCH  14  16
ATOM     15  C   UNL     1       2.457   4.008  21.726  0.00  0.00    +0.000 C 
ATOM     16  C   UNL     1       2.501   2.631  21.095  0.00  0.00    +0.000 C 
ENDBRANCH  14  16
ENDBRANCH  13  14
ENDBRANCH  12  13
ENDBRANCH   1  12
BRANCH   5  17
ATOM     17  O   UNL     1       6.513   7.411  17.405  0.00  0.00    +0.000 OA
BRANCH  17  18
ATOM     18  C   UNL     1       7.829   7.569  17.925  0.00  0.00    +0.000 C 
BRANCH  18  19
ATOM     19  C   UNL     1       8.170   9.040  18.143  0.00  0.00    +0.000 C 
ATOM     20  O   UNL     1       7.575   9.903  17.495  0.00  0.00    +0.000 OA
ATOM     21  N   UNL     1       9.155   9.264  19.092  0.00  0.00    +0.000 N 
ATOM     22  H   UNL     1       9.647   8.435  19.410  0.00  0.00    +0.000 HD
BRANCH  21  23
ATOM     23  C   UNL     1       9.675  10.524  19.456  0.00  0.00    +0.000 A 
ATOM     24  C   UNL     1      10.555  11.245  18.642  0.00  0.00    +0.000 A 
ATOM     25  C   UNL     1      11.133  12.438  19.085  0.00  0.00    +0.000 A 
ATOM     26  C   UNL     1      10.819  12.932  20.346  0.00  0.00    +0.000 A 
ATOM     27  C   UNL     1       9.897  12.248  21.130  0.00  0.00    +0.000 A 
ATOM     28  F   UNL     1       9.588  12.728  22.342  0.00  0.00    +0.000 F 
ATOM     29  C   UNL     1       9.308  11.063  20.693  0.00  0.00    +0.000 A 
ENDBRANCH  21  23
ENDBRANCH  18  19
ENDBRANCH  17  18
ENDBRANCH   5  17
TORSDOF 8
ENDMDL
MODEL 3
REMARK VINA RESULT:      -7.5      3.588      4.788
REMARK  Name = 
REMARK  9 active torsions:
REMARK  status: ('A' for Active; 'I' for Inactive)
REMARK    1  A    between atoms: C_1  and  C_2
REMARK    2  A    between atoms: C_2  and  O_3
REMARK    3  A    between atoms: O_3  and  C_4
REMARK    4  A    between atoms: C_4  and  C_5
REMARK    5  A    between atoms: C_5  and  N_6
REMARK    6  A    between atoms: C_10  and  O_11
REMARK    7  A    between atoms: O_11  and  C_12
REMARK    8  A    between atoms: C_12  and  C_13
REMARK    9  A    between atoms: N_15  and  C_16
REMARK                            x       y       z     vdW  Elec       q    Type
REMARK                         _______ _______ _______ _____ _____    ______ ____
ROOT
ATOM      1  N   UNL     1       4.558   5.322  16.818  0.00  0.00    +0.000 N 
ATOM      2  C   UNL     1       4.292   6.667  16.986  0.00  0.00    +0.000 A 
ATOM      3  C   UNL     1       3.483   7.125  17.944  0.00  0.00    +0.000 A 
ATOM      4  C   UNL     1       2.851   6.191  18.877  0.00  0.00    +0.000 A 
ATOM      5  C   UNL     1       2.014   6.630  19.917  0.00  0.00    +0.000 A 
ATOM      6  C   UNL     1       1.481   5.702  20.822  0.00  0.00    +0.000 A 
ATOM      7  C   UNL     1       1.734   4.338  20.666  0.00  0.00    +0.000 A 
ATOM      8  C   UNL     1       2.527   3.892  19.613  0.00  0.00    +0.000 A 
ATOM      9  C   UNL     1       3.092   4.817  18.725  0.00  0.00    +0.000 A 
ATOM     10  C   UNL     1       3.961   4.338  17.616  0.00  0.00    +0.000 A 
ATOM     11  O   UNL     1       4.101   3.129  17.446  0.00  0.00    +0.000 OA
ENDROOT
BRANCH   1  12
ATOM     12  C   UNL     1       5.489   4.902  15.761  0.00  0.00    +0.000 C 
BRANCH  12  13
ATOM     13  C   UNL     1       6.957   4.852  16.206  0.00  0.00    +0.000 C 
BRANCH  13  14
ATOM     14  O   UNL     1       7.510   6.168  16.267  0.00  0.00    +0.000 OA
BRANCH  14  16
ATOM     15  C   UNL     1       7.754   8.120  17.618  0.00  0.00    +0.000 C 
ATOM     16  C   UNL     1       7.679   6.607  17.611  0.00  0.00    +0.000 C 
ENDBRANCH  14  16
ENDBRANCH  13  14
ENDBRANCH  12  13
ENDBRANCH   1  12
BRANCH   5  17
ATOM     17  O   UNL     1       1.795   7.984  20.011  0.00  0.00    +0.000 OA
BRANCH  17  18
ATOM     18  C   UNL     1       1.388   8.447  21.294  0.00  0.00    +0.000 C 
BRANCH  18  19
ATOM     19  C   UNL     1       0.335   9.547  21.183  0.00  0.00    +0.000 C 
ATOM     20  O   UNL     1      -0.291   9.682  20.130  0.00  0.00    +0.000 OA
ATOM     21  N   UNL     1       0.183  10.312  22.328  0.00  0.00    +0.000 N 
ATOM     22  H   UNL     1       0.890  10.168  23.043  0.00  0.00    +0.000 HD
BRANCH  21  23
ATOM     23  C   UNL     1      -0.694  11.407  22.476  0.00  0.00    +0.000 A 
ATOM     24  C   UNL     1      -0.417  12.676  21.956  0.00  0.00    +0.000 A 
ATOM     25  C   UNL     1      -1.260  13.761  22.216  0.00  0.00    +0.000 A 
ATOM     26  C   UNL     1      -2.402  13.579  22.987  0.00  0.00    +0.000 A 
ATOM     27  C   UNL     1      -2.710  12.306  23.452  0.00  0.00    +0.000 A 
ATOM     28  F   UNL     1      -3.815  12.129  24.189  0.00  0.00    +0.000 F 
ATOM     29  C   UNL     1      -1.881  11.216  23.189  0.00  0.00    +0.000 A 
ENDBRANCH  21  23
ENDBRANCH  18  19
ENDBRANCH  17  18
ENDBRANCH   5  17
TORSDOF 8
ENDMDL
MODEL 4
REMARK VINA RESULT:      -7.5      3.079      4.707
REMARK  Name = 
REMARK  9 active torsions:
REMARK  status: ('A' for Active; 'I' for Inactive)
REMARK    1  A    between atoms: C_1  and  C_2
REMARK    2  A    between atoms: C_2  and  O_3
REMARK    3  A    between atoms: O_3  and  C_4
REMARK    4  A    between atoms: C_4  and  C_5
REMARK    5  A    between atoms: C_5  and  N_6
REMARK    6  A    between atoms: C_10  and  O_11
REMARK    7  A    between atoms: O_11  and  C_12
REMARK    8  A    between atoms: C_12  and  C_13
REMARK    9  A    between atoms: N_15  and  C_16
REMARK                            x       y       z     vdW  Elec       q    Type
REMARK                         _______ _______ _______ _____ _____    ______ ____
ROOT
ATOM      1  N   UNL     1       4.603   4.359  16.957  0.00  0.00    +0.000 N 
ATOM      2  C   UNL     1       4.544   5.736  17.034  0.00  0.00    +0.000 A 
ATOM      3  C   UNL     1       3.786   6.374  17.931  0.00  0.00    +0.000 A 
ATOM      4  C   UNL     1       2.989   5.611  18.891  0.00  0.00    +0.000 A 
ATOM      5  C   UNL     1       2.198   6.239  19.867  0.00  0.00    +0.000 A 
ATOM      6  C   UNL     1       1.499   5.464  20.804  0.00  0.00    +0.000 A 
ATOM      7  C   UNL     1       1.542   4.070  20.739  0.00  0.00    +0.000 A 
ATOM      8  C   UNL     1       2.289   3.441  19.748  0.00  0.00    +0.000 A 
ATOM      9  C   UNL     1       3.018   4.209  18.830  0.00  0.00    +0.000 A 
ATOM     10  C   UNL     1       3.836   3.532  17.787  0.00  0.00    +0.000 A 
ATOM     11  O   UNL     1       3.792   2.307  17.695  0.00  0.00    +0.000 OA
ENDROOT
BRANCH   1  12
ATOM     12  C   UNL     1       5.490   3.734  15.965  0.00  0.00    +0.000 C 
BRANCH  12  13
ATOM     13  C   UNL     1       6.512   4.697  15.347  0.00  0.00    +0.000 C 
BRANCH  13  14
ATOM     14  O   UNL     1       6.230   4.909  13.963  0.00  0.00    +0.000 OA
BRANCH  14  16
ATOM     15  C   UNL     1       5.557   3.399  12.241  0.00  0.00    +0.000 C 
ATOM     16  C   UNL     1       6.685   3.825  13.159  0.00  0.00    +0.000 C 
ENDBRANCH  14  16
ENDBRANCH  13  14
ENDBRANCH  12  13
ENDBRANCH   1  12
BRANCH   5  17
ATOM     17  O   UNL     1       2.190   7.614  19.872  0.00  0.00    +0.000 OA
BRANCH  17  18
ATOM     18  C   UNL     1       1.693   8.216  21.064  0.00  0.00    +0.000 C 
BRANCH  18  19
ATOM     19  C   UNL     1       0.332   8.866  20.835  0.00  0.00    +0.000 C 
ATOM     20  O   UNL     1      -0.609   8.580  21.578  0.00  0.00    +0.000 OA
ATOM     21  N   UNL     1       0.293   9.752  19.769  0.00  0.00    +0.000 N 
ATOM     22  H   UNL     1       1.112   9.745  19.170  0.00  0.00    +0.000 HD
BRANCH  21  23
ATOM     23  C   UNL     1      -0.847  10.456  19.327  0.00  0.00    +0.000 A 
ATOM     24  C   UNL     1      -1.319  11.609  19.962  0.00  0.00    +0.000 A 
ATOM     25  C   UNL     1      -2.513  12.217  19.560  0.00  0.00    +0.000 A 
ATOM     26  C   UNL     1      -3.237  11.682  18.501  0.00  0.00    +0.000 A 
ATOM     27  C   UNL     1      -2.736  10.573  17.830  0.00  0.00    +0.000 A 
ATOM     28  F   UNL     1      -3.430  10.061  16.804  0.00  0.00    +0.000 F 
ATOM     29  C   UNL     1      -1.542   9.966  18.217  0.00  0.00    +0.000 A 
ENDBRANCH  21  23
ENDBRANCH  18  19
ENDBRANCH  17  18
ENDBRANCH   5  17
TORSDOF 8
ENDMDL
MODEL 5
REMARK VINA RESULT:      -7.4      1.062      1.435
REMARK  Name = 
REMARK  9 active torsions:
REMARK  status: ('A' for Active; 'I' for Inactive)
REMARK    1  A    between atoms: C_1  and  C_2
REMARK    2  A    between atoms: C_2  and  O_3
REMARK    3  A    between atoms: O_3  and  C_4
REMARK    4  A    between atoms: C_4  and  C_5
REMARK    5  A    between atoms: C_5  and  N_6
REMARK    6  A    between atoms: C_10  and  O_11
REMARK    7  A    between atoms: O_11  and  C_12
REMARK    8  A    between atoms: C_12  and  C_13
REMARK    9  A    between atoms: N_15  and  C_16
REMARK                            x       y       z     vdW  Elec       q    Type
REMARK                         _______ _______ _______ _____ _____    ______ ____
ROOT
ATOM      1  N   UNL     1       5.967   4.742  17.291  0.00  0.00    +0.000 N 
ATOM      2  C   UNL     1       6.054   4.807  18.667  0.00  0.00    +0.000 A 
ATOM      3  C   UNL     1       5.180   4.199  19.473  0.00  0.00    +0.000 A 
ATOM      4  C   UNL     1       4.085   3.412  18.904  0.00  0.00    +0.000 A 
ATOM      5  C   UNL     1       3.158   2.734  19.713  0.00  0.00    +0.000 A 
ATOM      6  C   UNL     1       2.162   1.944  19.121  0.00  0.00    +0.000 A 
ATOM      7  C   UNL     1       2.053   1.870  17.731  0.00  0.00    +0.000 A 
ATOM      8  C   UNL     1       2.942   2.573  16.924  0.00  0.00    +0.000 A 
ATOM      9  C   UNL     1       3.961   3.337  17.509  0.00  0.00    +0.000 A 
ATOM     10  C   UNL     1       4.925   4.067  16.641  0.00  0.00    +0.000 A 
ATOM     11  O   UNL     1       4.760   4.056  15.423  0.00  0.00    +0.000 OA
ENDROOT
BRANCH   1  12
ATOM     12  C   UNL     1       6.990   5.410  16.474  0.00  0.00    +0.000 C 
BRANCH  12  13
ATOM     13  C   UNL     1       6.842   6.937  16.415  0.00  0.00    +0.000 C 
BRANCH  13  14
ATOM     14  O   UNL     1       8.068   7.575  16.774  0.00  0.00    +0.000 OA
BRANCH  14  16
ATOM     15  C   UNL     1       8.471   9.468  18.170  0.00  0.00    +0.000 C 
ATOM     16  C   UNL     1       8.060   8.011  18.130  0.00  0.00    +0.000 C 
ENDBRANCH  14  16
ENDBRANCH  13  14
ENDBRANCH  12  13
ENDBRANCH   1  12
BRANCH   5  17
ATOM     17  O   UNL     1       3.312   2.856  21.074  0.00  0.00    +0.000 OA
BRANCH  17  18
ATOM     18  C   UNL     1       2.248   3.518  21.751  0.00  0.00    +0.000 C 
BRANCH  18  19
ATOM     19  C   UNL     1       1.642   4.624  20.890  0.00  0.00    +0.000 C 
ATOM     20  O   UNL     1       0.514   4.474  20.417  0.00  0.00    +0.000 OA
ATOM     21  N   UNL     1       2.459   5.731  20.724  0.00  0.00    +0.000 N 
ATOM     22  H   UNL     1       3.414   5.618  21.047  0.00  0.00    +0.000 HD
BRANCH  21  23
ATOM     23  C   UNL     1       2.152   6.871  19.951  0.00  0.00    +0.000 A 
ATOM     24  C   UNL     1       2.481   6.979  18.596  0.00  0.00    +0.000 A 
ATOM     25  C   UNL     1       2.258   8.166  17.892  0.00  0.00    +0.000 A 
ATOM     26  C   UNL     1       1.681   9.254  18.538  0.00  0.00    +0.000 A 
ATOM     27  C   UNL     1       1.297   9.126  19.868  0.00  0.00    +0.000 A 
ATOM     28  F   UNL     1       0.734  10.171  20.489  0.00  0.00    +0.000 F 
ATOM     29  C   UNL     1       1.507   7.943  20.575  0.00  0.00    +0.000 A 
ENDBRANCH  21  23
ENDBRANCH  18  19
ENDBRANCH  17  18
ENDBRANCH   5  17
TORSDOF 8
ENDMDL
MODEL 6
REMARK VINA RESULT:      -7.4      3.183      4.912
REMARK  Name = 
REMARK  9 active torsions:
REMARK  status: ('A' for Active; 'I' for Inactive)
REMARK    1  A    between atoms: C_1  and  C_2
REMARK    2  A    between atoms: C_2  and  O_3
REMARK    3  A    between atoms: O_3  and  C_4
REMARK    4  A    between atoms: C_4  and  C_5
REMARK    5  A    between atoms: C_5  and  N_6
REMARK    6  A    between atoms: C_10  and  O_11
REMARK    7  A    between atoms: O_11  and  C_12
REMARK    8  A    between atoms: C_12  and  C_13
REMARK    9  A    between atoms: N_15  and  C_16
REMARK                            x       y       z     vdW  Elec       q    Type
REMARK                         _______ _______ _______ _____ _____    ______ ____
ROOT
ATOM      1  N   UNL     1       4.908   4.476  17.066  0.00  0.00    +0.000 N 
ATOM      2  C   UNL     1       4.834   5.847  17.215  0.00  0.00    +0.000 A 
ATOM      3  C   UNL     1       4.001   6.432  18.079  0.00  0.00    +0.000 A 
ATOM      4  C   UNL     1       3.130   5.615  18.925  0.00  0.00    +0.000 A 
ATOM      5  C   UNL     1       2.257   6.186  19.866  0.00  0.00    +0.000 A 
ATOM      6  C   UNL     1       1.487   5.358  20.695  0.00  0.00    +0.000 A 
ATOM      7  C   UNL     1       1.543   3.970  20.556  0.00  0.00    +0.000 A 
ATOM      8  C   UNL     1       2.374   3.400  19.597  0.00  0.00    +0.000 A 
ATOM      9  C   UNL     1       3.172   4.219  18.788  0.00  0.00    +0.000 A 
ATOM     10  C   UNL     1       4.079   3.603  17.781  0.00  0.00    +0.000 A 
ATOM     11  O   UNL     1       4.050   2.385  17.617  0.00  0.00    +0.000 OA
ENDROOT
BRANCH   1  12
ATOM     12  C   UNL     1       5.878   3.909  16.119  0.00  0.00    +0.000 C 
BRANCH  12  13
ATOM     13  C   UNL     1       6.030   4.718  14.823  0.00  0.00    +0.000 C 
BRANCH  13  14
ATOM     14  O   UNL     1       5.202   4.176  13.792  0.00  0.00    +0.000 OA
BRANCH  14  16
ATOM     15  C   UNL     1       5.028   3.062  11.689  0.00  0.00    +0.000 C 
ATOM     16  C   UNL     1       5.972   3.564  12.763  0.00  0.00    +0.000 C 
ENDBRANCH  14  16
ENDBRANCH  13  14
ENDBRANCH  12  13
ENDBRANCH   1  12
BRANCH   5  17
ATOM     17  O   UNL     1       2.240   7.559  19.947  0.00  0.00    +0.000 OA
BRANCH  17  18
ATOM     18  C   UNL     1       1.663   8.091  21.135  0.00  0.00    +0.000 C 
BRANCH  18  19
ATOM     19  C   UNL     1       0.345   8.804  20.845  0.00  0.00    +0.000 C 
ATOM     20  O   UNL     1      -0.609   8.650  21.610  0.00  0.00    +0.000 OA
ATOM     21  N   UNL     1       0.358   9.587  19.701  0.00  0.00    +0.000 N 
ATOM     22  H   UNL     1       1.173   9.471  19.106  0.00  0.00    +0.000 HD
BRANCH  21  23
ATOM     23  C   UNL     1      -0.735  10.319  19.193  0.00  0.00    +0.000 A 
ATOM     24  C   UNL     1      -1.322  10.044  17.954  0.00  0.00    +0.000 A 
ATOM     25  C   UNL     1      -2.333  10.861  17.437  0.00  0.00    +0.000 A 
ATOM     26  C   UNL     1      -2.779  11.955  18.170  0.00  0.00    +0.000 A 
ATOM     27  C   UNL     1      -2.239  12.192  19.429  0.00  0.00    +0.000 A 
ATOM     28  F   UNL     1      -2.674  13.242  20.139  0.00  0.00    +0.000 F 
ATOM     29  C   UNL     1      -1.238  11.378  19.956  0.00  0.00    +0.000 A 
ENDBRANCH  21  23
ENDBRANCH  18  19
ENDBRANCH  17  18
ENDBRANCH   5  17
TORSDOF 8
ENDMDL
MODEL 7
REMARK VINA RESULT:      -7.3      3.323      4.742
REMARK  Name = 
REMARK  9 active torsions:
REMARK  status: ('A' for Active; 'I' for Inactive)
REMARK    1  A    between atoms: C_1  and  C_2
REMARK    2  A    between atoms: C_2  and  O_3
REMARK    3  A    between atoms: O_3  and  C_4
REMARK    4  A    between atoms: C_4  and  C_5
REMARK    5  A    between atoms: C_5  and  N_6
REMARK    6  A    between atoms: C_10  and  O_11
REMARK    7  A    between atoms: O_11  and  C_12
REMARK    8  A    between atoms: C_12  and  C_13
REMARK    9  A    between atoms: N_15  and  C_16
REMARK                            x       y       z     vdW  Elec       q    Type
REMARK                         _______ _______ _______ _____ _____    ______ ____
ROOT
ATOM      1  N   UNL     1       4.601   5.055  16.770  0.00  0.00    +0.000 N 
ATOM      2  C   UNL     1       4.547   6.432  16.862  0.00  0.00    +0.000 A 
ATOM      3  C   UNL     1       3.781   7.063  17.756  0.00  0.00    +0.000 A 
ATOM      4  C   UNL     1       2.968   6.292  18.697  0.00  0.00    +0.000 A 
ATOM      5  C   UNL     1       2.168   6.913  19.671  0.00  0.00    +0.000 A 
ATOM      6  C   UNL     1       1.454   6.131  20.590  0.00  0.00    +0.000 A 
ATOM      7  C   UNL     1       1.491   4.737  20.509  0.00  0.00    +0.000 A 
ATOM      8  C   UNL     1       2.248   4.117  19.521  0.00  0.00    +0.000 A 
ATOM      9  C   UNL     1       2.991   4.891  18.621  0.00  0.00    +0.000 A 
ATOM     10  C   UNL     1       3.820   4.222  17.581  0.00  0.00    +0.000 A 
ATOM     11  O   UNL     1       3.770   2.998  17.474  0.00  0.00    +0.000 OA
ENDROOT
BRANCH   1  12
ATOM     12  C   UNL     1       5.497   4.437  15.782  0.00  0.00    +0.000 C 
BRANCH  12  13
ATOM     13  C   UNL     1       6.848   5.149  15.634  0.00  0.00    +0.000 C 
BRANCH  13  14
ATOM     14  O   UNL     1       7.845   4.507  16.430  0.00  0.00    +0.000 OA
BRANCH  14  16
ATOM     15  C   UNL     1       7.759   6.125  18.182  0.00  0.00    +0.000 C 
ATOM     16  C   UNL     1       7.591   4.663  17.823  0.00  0.00    +0.000 C 
ENDBRANCH  14  16
ENDBRANCH  13  14
ENDBRANCH  12  13
ENDBRANCH   1  12
BRANCH   5  17
ATOM     17  O   UNL     1       2.166   8.288  19.692  0.00  0.00    +0.000 OA
BRANCH  17  18
ATOM     18  C   UNL     1       1.353   8.911  18.703  0.00  0.00    +0.000 C 
BRANCH  18  19
ATOM     19  C   UNL     1       0.379   9.906  19.327  0.00  0.00    +0.000 C 
ATOM     20  O   UNL     1      -0.691  10.143  18.762  0.00  0.00    +0.000 OA
ATOM     21  N   UNL     1       0.817  10.466  20.517  0.00  0.00    +0.000 N 
ATOM     22  H   UNL     1       1.787  10.281  20.751  0.00  0.00    +0.000 HD
BRANCH  21  23
ATOM     23  C   UNL     1       0.125  11.435  21.274  0.00  0.00    +0.000 A 
ATOM     24  C   UNL     1       0.458  12.792  21.255  0.00  0.00    +0.000 A 
ATOM     25  C   UNL     1      -0.180  13.704  22.101  0.00  0.00    +0.000 A 
ATOM     26  C   UNL     1      -1.177  13.263  22.965  0.00  0.00    +0.000 A 
ATOM     27  C   UNL     1      -1.551  11.925  22.939  0.00  0.00    +0.000 A 
ATOM     28  F   UNL     1      -2.517  11.501  23.766  0.00  0.00    +0.000 F 
ATOM     29  C   UNL     1      -0.927  11.011  22.092  0.00  0.00    +0.000 A 
ENDBRANCH  21  23
ENDBRANCH  18  19
ENDBRANCH  17  18
ENDBRANCH   5  17
TORSDOF 8
ENDMDL
MODEL 8
REMARK VINA RESULT:      -7.2      2.810      4.008
REMARK  Name = 
REMARK  9 active torsions:
REMARK  status: ('A' for Active; 'I' for Inactive)
REMARK    1  A    between atoms: C_1  and  C_2
REMARK    2  A    between atoms: C_2  and  O_3
REMARK    3  A    between atoms: O_3  and  C_4
REMARK    4  A    between atoms: C_4  and  C_5
REMARK    5  A    between atoms: C_5  and  N_6
REMARK    6  A    between atoms: C_10  and  O_11
REMARK    7  A    between atoms: O_11  and  C_12
REMARK    8  A    between atoms: C_12  and  C_13
REMARK    9  A    between atoms: N_15  and  C_16
REMARK                            x       y       z     vdW  Elec       q    Type
REMARK                         _______ _______ _______ _____ _____    ______ ____
ROOT
ATOM      1  N   UNL     1       4.652   5.427  16.542  0.00  0.00    +0.000 N 
ATOM      2  C   UNL     1       4.419   6.725  16.953  0.00  0.00    +0.000 A 
ATOM      3  C   UNL     1       3.647   7.018  18.002  0.00  0.00    +0.000 A 
ATOM      4  C   UNL     1       3.023   5.944  18.776  0.00  0.00    +0.000 A 
ATOM      5  C   UNL     1       2.225   6.205  19.902  0.00  0.00    +0.000 A 
ATOM      6  C   UNL     1       1.698   5.140  20.646  0.00  0.00    +0.000 A 
ATOM      7  C   UNL     1       1.918   3.821  20.243  0.00  0.00    +0.000 A 
ATOM      8  C   UNL     1       2.672   3.557  19.105  0.00  0.00    +0.000 A 
ATOM      9  C   UNL     1       3.230   4.616  18.376  0.00  0.00    +0.000 A 
ATOM     10  C   UNL     1       4.057   4.327  17.172  0.00  0.00    +0.000 A 
ATOM     11  O   UNL     1       4.167   3.165  16.788  0.00  0.00    +0.000 OA
ENDROOT
BRANCH   1  12
ATOM     12  C   UNL     1       5.543   5.187  15.398  0.00  0.00    +0.000 C 
BRANCH  12  13
ATOM     13  C   UNL     1       6.900   4.580  15.781  0.00  0.00    +0.000 C 
BRANCH  13  14
ATOM     14  O   UNL     1       7.567   5.404  16.739  0.00  0.00    +0.000 OA
BRANCH  14  16
ATOM     15  C   UNL     1       7.308   5.682  19.095  0.00  0.00    +0.000 C 
ATOM     16  C   UNL     1       7.729   4.738  17.987  0.00  0.00    +0.000 C 
ENDBRANCH  14  16
ENDBRANCH  13  14
ENDBRANCH  12  13
ENDBRANCH   1  12
BRANCH   5  17
ATOM     17  O   UNL     1       2.037   7.525  20.241  0.00  0.00    +0.000 OA
BRANCH  17  18
ATOM     18  C   UNL     1       1.063   7.761  21.253  0.00  0.00    +0.000 C 
BRANCH  18  19
ATOM     19  C   UNL     1       0.520   9.186  21.183  0.00  0.00    +0.000 C 
ATOM     20  O   UNL     1      -0.410   9.517  21.921  0.00  0.00    +0.000 OA
ATOM     21  N   UNL     1       1.158   9.996  20.256  0.00  0.00    +0.000 N 
ATOM     22  H   UNL     1       1.791   9.517  19.624  0.00  0.00    +0.000 HD
BRANCH  21  23
ATOM     23  C   UNL     1       0.827  11.338  19.972  0.00  0.00    +0.000 A 
ATOM     24  C   UNL     1       1.116  12.391  20.846  0.00  0.00    +0.000 A 
ATOM     25  C   UNL     1       0.676  13.691  20.579  0.00  0.00    +0.000 A 
ATOM     26  C   UNL     1      -0.045  13.951  19.419  0.00  0.00    +0.000 A 
ATOM     27  C   UNL     1      -0.278  12.917  18.520  0.00  0.00    +0.000 A 
ATOM     28  F   UNL     1      -0.966  13.169  17.398  0.00  0.00    +0.000 F 
ATOM     29  C   UNL     1       0.165  11.620  18.773  0.00  0.00    +0.000 A 
ENDBRANCH  21  23
ENDBRANCH  18  19
ENDBRANCH  17  18
ENDBRANCH   5  17
TORSDOF 8
ENDMDL
MODEL 9
REMARK VINA RESULT:      -7.2      3.278      4.527
REMARK  Name = 
REMARK  9 active torsions:
REMARK  status: ('A' for Active; 'I' for Inactive)
REMARK    1  A    between atoms: C_1  and  C_2
REMARK    2  A    between atoms: C_2  and  O_3
REMARK    3  A    between atoms: O_3  and  C_4
REMARK    4  A    between atoms: C_4  and  C_5
REMARK    5  A    between atoms: C_5  and  N_6
REMARK    6  A    between atoms: C_10  and  O_11
REMARK    7  A    between atoms: O_11  and  C_12
REMARK    8  A    between atoms: C_12  and  C_13
REMARK    9  A    between atoms: N_15  and  C_16
REMARK                            x       y       z     vdW  Elec       q    Type
REMARK                         _______ _______ _______ _____ _____    ______ ____
ROOT
ATOM      1  N   UNL     1       4.611   5.478  16.463  0.00  0.00    +0.000 N 
ATOM      2  C   UNL     1       4.425   6.800  16.814  0.00  0.00    +0.000 A 
ATOM      3  C   UNL     1       3.680   7.169  17.859  0.00  0.00    +0.000 A 
ATOM      4  C   UNL     1       3.036   6.154  18.693  0.00  0.00    +0.000 A 
ATOM      5  C   UNL     1       2.265   6.495  19.817  0.00  0.00    +0.000 A 
ATOM      6  C   UNL     1       1.717   5.484  20.620  0.00  0.00    +0.000 A 
ATOM      7  C   UNL     1       1.890   4.141  20.279  0.00  0.00    +0.000 A 
ATOM      8  C   UNL     1       2.616   3.798  19.144  0.00  0.00    +0.000 A 
ATOM      9  C   UNL     1       3.195   4.802  18.356  0.00  0.00    +0.000 A 
ATOM     10  C   UNL     1       3.993   4.429  17.156  0.00  0.00    +0.000 A 
ATOM     11  O   UNL     1       4.060   3.246  16.827  0.00  0.00    +0.000 OA
ENDROOT
BRANCH   1  12
ATOM     12  C   UNL     1       5.476   5.154  15.320  0.00  0.00    +0.000 C 
BRANCH  12  13
ATOM     13  C   UNL     1       6.742   4.373  15.697  0.00  0.00    +0.000 C 
BRANCH  13  14
ATOM     14  O   UNL     1       7.598   5.169  16.518  0.00  0.00    +0.000 OA
BRANCH  14  16
ATOM     15  C   UNL     1       7.419   5.696  18.839  0.00  0.00    +0.000 C 
ATOM     16  C   UNL     1       7.738   4.618  17.824  0.00  0.00    +0.000 C 
ENDBRANCH  14  16
ENDBRANCH  13  14
ENDBRANCH  12  13
ENDBRANCH   1  12
BRANCH   5  17
ATOM     17  O   UNL     1       2.123   7.835  20.093  0.00  0.00    +0.000 OA
BRANCH  17  18
ATOM     18  C   UNL     1       1.387   8.139  21.273  0.00  0.00    +0.000 C 
BRANCH  18  19
ATOM     19  C   UNL     1       0.520   9.380  21.086  0.00  0.00    +0.000 C 
ATOM     20  O   UNL     1       0.216   9.742  19.947  0.00  0.00    +0.000 OA
ATOM     21  N   UNL     1       0.145  10.000  22.268  0.00  0.00    +0.000 N 
ATOM     22  H   UNL     1       0.615   9.664  23.102  0.00  0.00    +0.000 HD
BRANCH  21  23
ATOM     23  C   UNL     1      -0.624  11.179  22.370  0.00  0.00    +0.000 A 
ATOM     24  C   UNL     1      -1.754  11.278  23.188  0.00  0.00    +0.000 A 
ATOM     25  C   UNL     1      -2.552  12.426  23.180  0.00  0.00    +0.000 A 
ATOM     26  C   UNL     1      -2.212  13.497  22.361  0.00  0.00    +0.000 A 
ATOM     27  C   UNL     1      -1.055  13.423  21.594  0.00  0.00    +0.000 A 
ATOM     28  F   UNL     1      -0.723  14.458  20.810  0.00  0.00    +0.000 F 
ATOM     29  C   UNL     1      -0.248  12.287  21.603  0.00  0.00    +0.000 A 
ENDBRANCH  21  23
ENDBRANCH  18  19
ENDBRANCH  17  18
ENDBRANCH   5  17
TORSDOF 8
ENDMDL
