MODEL 1
REMARK VINA RESULT:      -8.5      0.000      0.000
REMARK  Name = 
REMARK  4 active torsions:
REMARK  status: ('A' for Active; 'I' for Inactive)
REMARK    1  A    between atoms: C_1  and  C_2
REMARK    2  A    between atoms: C_3  and  C_4
REMARK    3  A    between atoms: C_7  and  C_8
REMARK    4  A    between atoms: N_21  and  C_22
REMARK                            x       y       z     vdW  Elec       q    Type
REMARK                         _______ _______ _______ _____ _____    ______ ____
ROOT
ATOM      1  C   UNL     1       4.411   7.468  17.732  0.00  0.00    +0.000 C 
ATOM      2  C   UNL     1       3.870   6.076  17.868  0.00  0.00    +0.000 A 
ATOM      3  C   UNL     1       4.206   5.011  17.037  0.00  0.00    +0.000 A 
ATOM      4  S   UNL     1       3.441   3.556  17.508  0.00  0.00    +0.000 S 
ATOM      5  C   UNL     1       2.625   4.312  18.780  0.00  0.00    +0.000 A 
ATOM      6  N   UNL     1       1.794   3.585  19.541  0.00  0.00    +0.000 NA
ATOM      7  C   UNL     1       1.216   4.306  20.494  0.00  0.00    +0.000 A 
ATOM      8  N   UNL     1       1.387   5.609  20.726  0.00  0.00    +0.000 NA
ATOM      9  C   UNL     1       2.240   6.330  19.953  0.00  0.00    +0.000 A 
ATOM     10  N   UNL     1       2.414   7.687  20.262  0.00  0.00    +0.000 N 
ATOM     11  C   UNL     1       2.919   5.662  18.903  0.00  0.00    +0.000 A 
ATOM     12  H   UNL     1       3.163   8.155  19.780  0.00  0.00    +0.000 HD
ENDROOT
BRANCH  10  13
ATOM     13  C   UNL     1       1.442   8.579  20.753  0.00  0.00    +0.000 A 
ATOM     14  C   UNL     1       0.701   9.352  19.850  0.00  0.00    +0.000 A 
ATOM     15  C   UNL     1      -0.264  10.255  20.309  0.00  0.00    +0.000 A 
ATOM     16  C   UNL     1      -0.500  10.380  21.676  0.00  0.00    +0.000 A 
ATOM     17 CL   UNL     1      -1.696  11.479  22.244  0.00  0.00    +0.000 Cl
ATOM     18  C   UNL     1       0.227   9.621  22.587  0.00  0.00    +0.000 A 
ATOM     19  C   UNL     1       1.201   8.733  22.124  0.00  0.00    +0.000 A 
ENDBRANCH  10  13
BRANCH   3  20
ATOM     20  C   UNL     1       5.086   4.977  15.903  0.00  0.00    +0.000 A 
ATOM     21  N   UNL     1       6.101   5.796  15.690  0.00  0.00    +0.000 NA
ATOM     22  N   UNL     1       6.696   5.405  14.504  0.00  0.00    +0.000 NA
ATOM     23  C   UNL     1       6.005   4.371  14.069  0.00  0.00    +0.000 A 
ATOM     24  O   UNL     1       4.965   4.055  14.893  0.00  0.00    +0.000 OA
BRANCH  23  25
ATOM     25  C   UNL     1       6.191   3.516  12.905  0.00  0.00    +0.000 A 
ATOM     26  C   UNL     1       7.464   3.356  12.341  0.00  0.00    +0.000 A 
ATOM     27  C   UNL     1       7.654   2.511  11.244  0.00  0.00    +0.000 A 
ATOM     28  C   UNL     1       6.574   1.817  10.700  0.00  0.00    +0.000 A 
ATOM     29  C   UNL     1       5.300   1.972  11.242  0.00  0.00    +0.000 A 
ATOM     30  C   UNL     1       5.112   2.818  12.337  0.00  0.00    +0.000 A 
ENDBRANCH  23  25
ENDBRANCH   3  20
TORSDOF 3
ENDMDL
MODEL 2
REMARK VINA RESULT:      -8.4      5.777     11.694
REMARK  Name = 
REMARK  4 active torsions:
REMARK  status: ('A' for Active; 'I' for Inactive)
REMARK    1  A    between atoms: C_1  and  C_2
REMARK    2  A    between atoms: C_3  and  C_4
REMARK    3  A    between atoms: C_7  and  C_8
REMARK    4  A    between atoms: N_21  and  C_22
REMARK                            x       y       z     vdW  Elec       q    Type
REMARK                         _______ _______ _______ _____ _____    ______ ____
ROOT
ATOM      1  C   UNL     1       0.178   9.015  22.589  0.00  0.00    +0.000 C 
ATOM      2  C   UNL     1       0.279   9.826  21.333  0.00  0.00    +0.000 A 
ATOM      3  C   UNL     1      -0.321  11.068  21.142  0.00  0.00    +0.000 A 
ATOM      4  S   UNL     1       0.040  11.733  19.609  0.00  0.00    +0.000 S 
ATOM      5  C   UNL     1       0.953  10.384  19.158  0.00  0.00    +0.000 A 
ATOM      6  N   UNL     1       1.507  10.354  17.937  0.00  0.00    +0.000 NA
ATOM      7  C   UNL     1       2.186   9.234  17.715  0.00  0.00    +0.000 A 
ATOM      8  N   UNL     1       2.339   8.211  18.558  0.00  0.00    +0.000 NA
ATOM      9  C   UNL     1       1.779   8.261  19.795  0.00  0.00    +0.000 A 
ATOM     10  N   UNL     1       2.001   7.177  20.657  0.00  0.00    +0.000 N 
ATOM     11  C   UNL     1       1.032   9.414  20.146  0.00  0.00    +0.000 A 
ATOM     12  H   UNL     1       1.713   7.308  21.612  0.00  0.00    +0.000 HD
ENDROOT
BRANCH  10  13
ATOM     13  C   UNL     1       2.112   5.819  20.304  0.00  0.00    +0.000 A 
ATOM     14  C   UNL     1       3.321   5.342  19.784  0.00  0.00    +0.000 A 
ATOM     15  C   UNL     1       3.459   3.999  19.415  0.00  0.00    +0.000 A 
ATOM     16  C   UNL     1       2.386   3.124  19.575  0.00  0.00    +0.000 A 
ATOM     17 CL   UNL     1       2.556   1.469  19.135  0.00  0.00    +0.000 Cl
ATOM     18  C   UNL     1       1.178   3.581  20.088  0.00  0.00    +0.000 A 
ATOM     19  C   UNL     1       1.041   4.926  20.440  0.00  0.00    +0.000 A 
ENDBRANCH  10  13
BRANCH   3  20
ATOM     20  C   UNL     1      -1.150  11.832  22.033  0.00  0.00    +0.000 A 
ATOM     21  N   UNL     1      -0.722  12.555  23.052  0.00  0.00    +0.000 NA
ATOM     22  N   UNL     1      -1.834  13.143  23.628  0.00  0.00    +0.000 NA
ATOM     23  C   UNL     1      -2.870  12.740  22.921  0.00  0.00    +0.000 A 
ATOM     24  O   UNL     1      -2.515  11.897  21.908  0.00  0.00    +0.000 OA
BRANCH  23  25
ATOM     25  C   UNL     1      -4.285  13.069  23.022  0.00  0.00    +0.000 A 
ATOM     26  C   UNL     1      -4.922  13.776  21.993  0.00  0.00    +0.000 A 
ATOM     27  C   UNL     1      -6.287  14.066  22.069  0.00  0.00    +0.000 A 
ATOM     28  C   UNL     1      -7.030  13.652  23.174  0.00  0.00    +0.000 A 
ATOM     29  C   UNL     1      -6.411  12.957  24.210  0.00  0.00    +0.000 A 
ATOM     30  C   UNL     1      -5.046  12.670  24.133  0.00  0.00    +0.000 A 
ENDBRANCH  23  25
ENDBRANCH   3  20
TORSDOF 3
ENDMDL
MODEL 3
REMARK VINA RESULT:      -8.3      5.746     11.692
REMARK  Name = 
REMARK  4 active torsions:
REMARK  status: ('A' for Active; 'I' for Inactive)
REMARK    1  A    between atoms: C_1  and  C_2
REMARK    2  A    between atoms: C_3  and  C_4
REMARK    3  A    between atoms: C_7  and  C_8
REMARK    4  A    between atoms: N_21  and  C_22
REMARK                            x       y       z     vdW  Elec       q    Type
REMARK                         _______ _______ _______ _____ _____    ______ ____
ROOT
ATOM      1  C   UNL     1       0.173   8.935  22.559  0.00  0.00    +0.000 C 
ATOM      2  C   UNL     1       0.278   9.762  21.313  0.00  0.00    +0.000 A 
ATOM      3  C   UNL     1      -0.328  11.003  21.132  0.00  0.00    +0.000 A 
ATOM      4  S   UNL     1       0.040  11.687  19.609  0.00  0.00    +0.000 S 
ATOM      5  C   UNL     1       0.962  10.348  19.149  0.00  0.00    +0.000 A 
ATOM      6  N   UNL     1       1.525  10.335  17.932  0.00  0.00    +0.000 NA
ATOM      7  C   UNL     1       2.211   9.221  17.702  0.00  0.00    +0.000 A 
ATOM      8  N   UNL     1       2.364   8.189  18.534  0.00  0.00    +0.000 NA
ATOM      9  C   UNL     1       1.796   8.223  19.768  0.00  0.00    +0.000 A 
ATOM     10  N   UNL     1       2.019   7.130  20.618  0.00  0.00    +0.000 N 
ATOM     11  C   UNL     1       1.040   9.367  20.127  0.00  0.00    +0.000 A 
ATOM     12  H   UNL     1       1.724   7.249  21.573  0.00  0.00    +0.000 HD
ENDROOT
BRANCH  10  13
ATOM     13  C   UNL     1       2.139   5.777  20.251  0.00  0.00    +0.000 A 
ATOM     14  C   UNL     1       1.055   4.913  20.450  0.00  0.00    +0.000 A 
ATOM     15  C   UNL     1       1.148   3.560  20.105  0.00  0.00    +0.000 A 
ATOM     16  C   UNL     1       2.326   3.067  19.548  0.00  0.00    +0.000 A 
ATOM     17 CL   UNL     1       2.440   1.407  19.109  0.00  0.00    +0.000 Cl
ATOM     18  C   UNL     1       3.413   3.910  19.345  0.00  0.00    +0.000 A 
ATOM     19  C   UNL     1       3.320   5.256  19.707  0.00  0.00    +0.000 A 
ENDBRANCH  10  13
BRANCH   3  20
ATOM     20  C   UNL     1      -1.166  11.752  22.027  0.00  0.00    +0.000 A 
ATOM     21  N   UNL     1      -0.752  12.440  23.075  0.00  0.00    +0.000 NA
ATOM     22  N   UNL     1      -1.870  13.026  23.643  0.00  0.00    +0.000 NA
ATOM     23  C   UNL     1      -2.895  12.657  22.902  0.00  0.00    +0.000 A 
ATOM     24  O   UNL     1      -2.527  11.839  21.874  0.00  0.00    +0.000 OA
BRANCH  23  25
ATOM     25  C   UNL     1      -4.307  13.001  22.982  0.00  0.00    +0.000 A 
ATOM     26  C   UNL     1      -5.063  12.630  24.102  0.00  0.00    +0.000 A 
ATOM     27  C   UNL     1      -6.411  12.986  24.200  0.00  0.00    +0.000 A 
ATOM     28  C   UNL     1      -7.018  13.716  23.178  0.00  0.00    +0.000 A 
ATOM     29  C   UNL     1      -6.284  14.084  22.053  0.00  0.00    +0.000 A 
ATOM     30  C   UNL     1      -4.937  13.726  21.956  0.00  0.00    +0.000 A 
ENDBRANCH  23  25
ENDBRANCH   3  20
TORSDOF 3
ENDMDL
MODEL 4
REMARK VINA RESULT:      -8.2      4.438      6.658
REMARK  Name = 
REMARK  4 active torsions:
REMARK  status: ('A' for Active; 'I' for Inactive)
REMARK    1  A    between atoms: C_1  and  C_2
REMARK    2  A    between atoms: C_3  and  C_4
REMARK    3  A    between atoms: C_7  and  C_8
REMARK    4  A    between atoms: N_21  and  C_22
REMARK                            x       y       z     vdW  Elec       q    Type
REMARK                         _______ _______ _______ _____ _____    ______ ____
ROOT
ATOM      1  C   UNL     1      -0.230  10.033  18.126  0.00  0.00    +0.000 C 
ATOM      2  C   UNL     1       0.158   9.813  19.558  0.00  0.00    +0.000 A 
ATOM      3  C   UNL     1       1.133   8.915  19.985  0.00  0.00    +0.000 A 
ATOM      4  S   UNL     1       1.351   8.954  21.680  0.00  0.00    +0.000 S 
ATOM      5  C   UNL     1       0.141  10.116  21.882  0.00  0.00    +0.000 A 
ATOM      6  N   UNL     1      -0.152  10.540  23.120  0.00  0.00    +0.000 NA
ATOM      7  C   UNL     1      -1.125  11.444  23.131  0.00  0.00    +0.000 A 
ATOM      8  N   UNL     1      -1.786  11.920  22.073  0.00  0.00    +0.000 NA
ATOM      9  C   UNL     1      -1.470  11.488  20.825  0.00  0.00    +0.000 A 
ATOM     10  N   UNL     1      -2.168  12.048  19.744  0.00  0.00    +0.000 N 
ATOM     11  C   UNL     1      -0.441  10.523  20.690  0.00  0.00    +0.000 A 
ATOM     12  H   UNL     1      -1.809  11.832  18.829  0.00  0.00    +0.000 HD
ENDROOT
BRANCH  10  13
ATOM     13  C   UNL     1      -3.517  12.448  19.718  0.00  0.00    +0.000 A 
ATOM     14  C   UNL     1      -4.412  11.789  18.866  0.00  0.00    +0.000 A 
ATOM     15  C   UNL     1      -5.757  12.171  18.810  0.00  0.00    +0.000 A 
ATOM     16  C   UNL     1      -6.215  13.209  19.617  0.00  0.00    +0.000 A 
ATOM     17 CL   UNL     1      -7.872  13.672  19.562  0.00  0.00    +0.000 Cl
ATOM     18  C   UNL     1      -5.341  13.875  20.469  0.00  0.00    +0.000 A 
ATOM     19  C   UNL     1      -3.996  13.501  20.508  0.00  0.00    +0.000 A 
ENDBRANCH  10  13
BRANCH   3  20
ATOM     20  C   UNL     1       1.951   8.018  19.217  0.00  0.00    +0.000 A 
ATOM     21  N   UNL     1       2.819   8.374  18.286  0.00  0.00    +0.000 NA
ATOM     22  N   UNL     1       3.408   7.212  17.816  0.00  0.00    +0.000 NA
ATOM     23  C   UNL     1       2.861   6.223  18.493  0.00  0.00    +0.000 A 
ATOM     24  O   UNL     1       1.921   6.656  19.383  0.00  0.00    +0.000 OA
BRANCH  23  25
ATOM     25  C   UNL     1       3.117   4.790  18.469  0.00  0.00    +0.000 A 
ATOM     26  C   UNL     1       4.026   4.219  19.370  0.00  0.00    +0.000 A 
ATOM     27  C   UNL     1       4.251   2.840  19.374  0.00  0.00    +0.000 A 
ATOM     28  C   UNL     1       3.570   2.016  18.478  0.00  0.00    +0.000 A 
ATOM     29  C   UNL     1       2.671   2.569  17.569  0.00  0.00    +0.000 A 
ATOM     30  C   UNL     1       2.448   3.948  17.565  0.00  0.00    +0.000 A 
ENDBRANCH  23  25
ENDBRANCH   3  20
TORSDOF 3
ENDMDL
MODEL 5
REMARK VINA RESULT:      -8.1      4.164      6.711
REMARK  Name = 
REMARK  4 active torsions:
REMARK  status: ('A' for Active; 'I' for Inactive)
REMARK    1  A    between atoms: C_1  and  C_2
REMARK    2  A    between atoms: C_3  and  C_4
REMARK    3  A    between atoms: C_7  and  C_8
REMARK    4  A    between atoms: N_21  and  C_22
REMARK                            x       y       z     vdW  Elec       q    Type
REMARK                         _______ _______ _______ _____ _____    ______ ____
ROOT
ATOM      1  C   UNL     1      -0.365  10.452  18.153  0.00  0.00    +0.000 C 
ATOM      2  C   UNL     1       0.014  10.096  19.560  0.00  0.00    +0.000 A 
ATOM      3  C   UNL     1       0.973   9.149  19.906  0.00  0.00    +0.000 A 
ATOM      4  S   UNL     1       1.185   9.031  21.598  0.00  0.00    +0.000 S 
ATOM      5  C   UNL     1      -0.007  10.189  21.902  0.00  0.00    +0.000 A 
ATOM      6  N   UNL     1      -0.299  10.503  23.172  0.00  0.00    +0.000 NA
ATOM      7  C   UNL     1      -1.258  11.417  23.263  0.00  0.00    +0.000 A 
ATOM      8  N   UNL     1      -1.907  11.998  22.251  0.00  0.00    +0.000 NA
ATOM      9  C   UNL     1      -1.593  11.676  20.969  0.00  0.00    +0.000 A 
ATOM     10  N   UNL     1      -2.278  12.342  19.943  0.00  0.00    +0.000 N 
ATOM     11  C   UNL     1      -0.578  10.711  20.750  0.00  0.00    +0.000 A 
ATOM     12  H   UNL     1      -1.919  12.204  19.012  0.00  0.00    +0.000 HD
ENDROOT
BRANCH  10  13
ATOM     13  C   UNL     1      -3.621  12.763  19.950  0.00  0.00    +0.000 A 
ATOM     14  C   UNL     1      -3.981  13.893  20.695  0.00  0.00    +0.000 A 
ATOM     15  C   UNL     1      -5.310  14.331  20.730  0.00  0.00    +0.000 A 
ATOM     16  C   UNL     1      -6.284  13.643  20.009  0.00  0.00    +0.000 A 
ATOM     17 CL   UNL     1      -7.917  14.186  20.038  0.00  0.00    +0.000 Cl
ATOM     18  C   UNL     1      -5.945  12.519  19.265  0.00  0.00    +0.000 A 
ATOM     19  C   UNL     1      -4.620  12.077  19.247  0.00  0.00    +0.000 A 
ENDBRANCH  10  13
BRANCH   3  20
ATOM     20  C   UNL     1       1.781   8.312  19.062  0.00  0.00    +0.000 A 
ATOM     21  N   UNL     1       2.688   8.735  18.200  0.00  0.00    +0.000 NA
ATOM     22  N   UNL     1       3.247   7.612  17.616  0.00  0.00    +0.000 NA
ATOM     23  C   UNL     1       2.645   6.575  18.162  0.00  0.00    +0.000 A 
ATOM     24  O   UNL     1       1.696   6.942  19.072  0.00  0.00    +0.000 OA
BRANCH  23  25
ATOM     25  C   UNL     1       2.849   5.145  17.982  0.00  0.00    +0.000 A 
ATOM     26  C   UNL     1       4.109   4.651  17.622  0.00  0.00    +0.000 A 
ATOM     27  C   UNL     1       4.320   3.276  17.479  0.00  0.00    +0.000 A 
ATOM     28  C   UNL     1       3.272   2.382  17.695  0.00  0.00    +0.000 A 
ATOM     29  C   UNL     1       2.009   2.857  18.043  0.00  0.00    +0.000 A 
ATOM     30  C   UNL     1       1.801   4.231  18.183  0.00  0.00    +0.000 A 
ENDBRANCH  23  25
ENDBRANCH   3  20
TORSDOF 3
ENDMDL
MODEL 6
REMARK VINA RESULT:      -7.9      5.864     11.912
REMARK  Name = 
REMARK  4 active torsions:
REMARK  status: ('A' for Active; 'I' for Inactive)
REMARK    1  A    between atoms: C_1  and  C_2
REMARK    2  A    between atoms: C_3  and  C_4
REMARK    3  A    between atoms: C_7  and  C_8
REMARK    4  A    between atoms: N_21  and  C_22
REMARK                            x       y       z     vdW  Elec       q    Type
REMARK                         _______ _______ _______ _____ _____    ______ ____
ROOT
ATOM      1  C   UNL     1       0.386   9.197  22.712  0.00  0.00    +0.000 C 
ATOM      2  C   UNL     1       0.412   9.978  21.433  0.00  0.00    +0.000 A 
ATOM      3  C   UNL     1      -0.168  11.232  21.258  0.00  0.00    +0.000 A 
ATOM      4  S   UNL     1       0.094  11.852  19.686  0.00  0.00    +0.000 S 
ATOM      5  C   UNL     1       0.934  10.468  19.201  0.00  0.00    +0.000 A 
ATOM      6  N   UNL     1       1.393  10.396  17.943  0.00  0.00    +0.000 NA
ATOM      7  C   UNL     1       2.023   9.253  17.697  0.00  0.00    +0.000 A 
ATOM      8  N   UNL     1       2.213   8.244  18.551  0.00  0.00    +0.000 NA
ATOM      9  C   UNL     1       1.750   8.337  19.825  0.00  0.00    +0.000 A 
ATOM     10  N   UNL     1       2.008   7.267  20.693  0.00  0.00    +0.000 N 
ATOM     11  C   UNL     1       1.062   9.518  20.203  0.00  0.00    +0.000 A 
ATOM     12  H   UNL     1       1.797   7.427  21.664  0.00  0.00    +0.000 HD
ENDROOT
BRANCH  10  13
ATOM     13  C   UNL     1       2.056   5.899  20.366  0.00  0.00    +0.000 A 
ATOM     14  C   UNL     1       3.245   5.354  19.866  0.00  0.00    +0.000 A 
ATOM     15  C   UNL     1       3.321   4.000  19.522  0.00  0.00    +0.000 A 
ATOM     16  C   UNL     1       2.206   3.181  19.688  0.00  0.00    +0.000 A 
ATOM     17 CL   UNL     1       2.299   1.512  19.279  0.00  0.00    +0.000 Cl
ATOM     18  C   UNL     1       1.016   3.705  20.181  0.00  0.00    +0.000 A 
ATOM     19  C   UNL     1       0.942   5.061  20.507  0.00  0.00    +0.000 A 
ENDBRANCH  10  13
BRANCH   3  20
ATOM     20  C   UNL     1      -0.905  12.037  22.190  0.00  0.00    +0.000 A 
ATOM     21  N   UNL     1      -2.043  11.698  22.769  0.00  0.00    +0.000 NA
ATOM     22  N   UNL     1      -2.398  12.741  23.607  0.00  0.00    +0.000 NA
ATOM     23  C   UNL     1      -1.452  13.649  23.485  0.00  0.00    +0.000 A 
ATOM     24  O   UNL     1      -0.485  13.280  22.595  0.00  0.00    +0.000 OA
BRANCH  23  25
ATOM     25  C   UNL     1      -1.260  14.928  24.154  0.00  0.00    +0.000 A 
ATOM     26  C   UNL     1      -1.826  15.158  25.415  0.00  0.00    +0.000 A 
ATOM     27  C   UNL     1      -1.618  16.371  26.077  0.00  0.00    +0.000 A 
ATOM     28  C   UNL     1      -0.842  17.368  25.486  0.00  0.00    +0.000 A 
ATOM     29  C   UNL     1      -0.280  17.159  24.228  0.00  0.00    +0.000 A 
ATOM     30  C   UNL     1      -0.490  15.946  23.567  0.00  0.00    +0.000 A 
ENDBRANCH  23  25
ENDBRANCH   3  20
TORSDOF 3
ENDMDL
MODEL 7
REMARK VINA RESULT:      -7.9      5.890     11.896
REMARK  Name = 
REMARK  4 active torsions:
REMARK  status: ('A' for Active; 'I' for Inactive)
REMARK    1  A    between atoms: C_1  and  C_2
REMARK    2  A    between atoms: C_3  and  C_4
REMARK    3  A    between atoms: C_7  and  C_8
REMARK    4  A    between atoms: N_21  and  C_22
REMARK                            x       y       z     vdW  Elec       q    Type
REMARK                         _______ _______ _______ _____ _____    ______ ____
ROOT
ATOM      1  C   UNL     1       0.398   9.194  22.716  0.00  0.00    +0.000 C 
ATOM      2  C   UNL     1       0.418   9.977  21.437  0.00  0.00    +0.000 A 
ATOM      3  C   UNL     1      -0.169  11.228  21.265  0.00  0.00    +0.000 A 
ATOM      4  S   UNL     1       0.086  11.852  19.694  0.00  0.00    +0.000 S 
ATOM      5  C   UNL     1       0.932  10.473  19.204  0.00  0.00    +0.000 A 
ATOM      6  N   UNL     1       1.389  10.404  17.946  0.00  0.00    +0.000 NA
ATOM      7  C   UNL     1       2.025   9.265  17.697  0.00  0.00    +0.000 A 
ATOM      8  N   UNL     1       2.221   8.257  18.549  0.00  0.00    +0.000 NA
ATOM      9  C   UNL     1       1.761   8.346  19.825  0.00  0.00    +0.000 A 
ATOM     10  N   UNL     1       2.026   7.275  20.691  0.00  0.00    +0.000 N 
ATOM     11  C   UNL     1       1.067   9.522  20.206  0.00  0.00    +0.000 A 
ATOM     12  H   UNL     1       1.816   7.433  21.662  0.00  0.00    +0.000 HD
ENDROOT
BRANCH  10  13
ATOM     13  C   UNL     1       2.080   5.908  20.362  0.00  0.00    +0.000 A 
ATOM     14  C   UNL     1       0.927   5.124  20.496  0.00  0.00    +0.000 A 
ATOM     15  C   UNL     1       0.952   3.760  20.187  0.00  0.00    +0.000 A 
ATOM     16  C   UNL     1       2.132   3.175  19.731  0.00  0.00    +0.000 A 
ATOM     17 CL   UNL     1       2.164   1.501  19.337  0.00  0.00    +0.000 Cl
ATOM     18  C   UNL     1       3.287   3.938  19.594  0.00  0.00    +0.000 A 
ATOM     19  C   UNL     1       3.260   5.296  19.920  0.00  0.00    +0.000 A 
ENDBRANCH  10  13
BRANCH   3  20
ATOM     20  C   UNL     1      -0.909  12.029  22.200  0.00  0.00    +0.000 A 
ATOM     21  N   UNL     1      -2.039  11.680  22.787  0.00  0.00    +0.000 NA
ATOM     22  N   UNL     1      -2.399  12.721  23.624  0.00  0.00    +0.000 NA
ATOM     23  C   UNL     1      -1.464  13.640  23.493  0.00  0.00    +0.000 A 
ATOM     24  O   UNL     1      -0.499  13.277  22.598  0.00  0.00    +0.000 OA
BRANCH  23  25
ATOM     25  C   UNL     1      -1.281  14.923  24.157  0.00  0.00    +0.000 A 
ATOM     26  C   UNL     1      -0.456  15.901  23.587  0.00  0.00    +0.000 A 
ATOM     27  C   UNL     1      -0.302  17.147  24.202  0.00  0.00    +0.000 A 
ATOM     28  C   UNL     1      -0.971  17.427  25.393  0.00  0.00    +0.000 A 
ATOM     29  C   UNL     1      -1.787  16.462  25.978  0.00  0.00    +0.000 A 
ATOM     30  C   UNL     1      -1.938  15.217  25.363  0.00  0.00    +0.000 A 
ENDBRANCH  23  25
ENDBRANCH   3  20
TORSDOF 3
ENDMDL
MODEL 8
REMARK VINA RESULT:      -7.8      5.106      8.109
REMARK  Name = 
REMARK  4 active torsions:
REMARK  status: ('A' for Active; 'I' for Inactive)
REMARK    1  A    between atoms: C_1  and  C_2
REMARK    2  A    between atoms: C_3  and  C_4
REMARK    3  A    between atoms: C_7  and  C_8
REMARK    4  A    between atoms: N_21  and  C_22
REMARK                            x       y       z     vdW  Elec       q    Type
REMARK                         _______ _______ _______ _____ _____    ______ ____
ROOT
ATOM      1  C   UNL     1      -1.610  10.140  19.182  0.00  0.00    +0.000 C 
ATOM      2  C   UNL     1      -0.563  11.202  19.340  0.00  0.00    +0.000 A 
ATOM      3  C   UNL     1       0.790  11.028  19.062  0.00  0.00    +0.000 A 
ATOM      4  S   UNL     1       1.691  12.460  19.308  0.00  0.00    +0.000 S 
ATOM      5  C   UNL     1       0.328  13.316  19.823  0.00  0.00    +0.000 A 
ATOM      6  N   UNL     1       0.468  14.597  20.194  0.00  0.00    +0.000 NA
ATOM      7  C   UNL     1      -0.680  15.141  20.583  0.00  0.00    +0.000 A 
ATOM      8  N   UNL     1      -1.873  14.544  20.631  0.00  0.00    +0.000 NA
ATOM      9  C   UNL     1      -1.999  13.249  20.242  0.00  0.00    +0.000 A 
ATOM     10  N   UNL     1      -3.281  12.680  20.275  0.00  0.00    +0.000 N 
ATOM     11  C   UNL     1      -0.838  12.565  19.802  0.00  0.00    +0.000 A 
ATOM     12  H   UNL     1      -3.374  11.779  19.836  0.00  0.00    +0.000 HD
ENDROOT
BRANCH  10  13
ATOM     13  C   UNL     1      -4.301  12.936  21.210  0.00  0.00    +0.000 A 
ATOM     14  C   UNL     1      -4.052  12.728  22.572  0.00  0.00    +0.000 A 
ATOM     15  C   UNL     1      -5.051  12.964  23.524  0.00  0.00    +0.000 A 
ATOM     16  C   UNL     1      -6.302  13.420  23.116  0.00  0.00    +0.000 A 
ATOM     17 CL   UNL     1      -7.528  13.725  24.284  0.00  0.00    +0.000 Cl
ATOM     18  C   UNL     1      -6.567  13.631  21.767  0.00  0.00    +0.000 A 
ATOM     19  C   UNL     1      -5.572  13.378  20.820  0.00  0.00    +0.000 A 
ENDBRANCH  10  13
BRANCH   3  20
ATOM     20  C   UNL     1       1.487   9.860  18.600  0.00  0.00    +0.000 A 
ATOM     21  N   UNL     1       2.166   9.766  17.471  0.00  0.00    +0.000 NA
ATOM     22  N   UNL     1       2.698   8.489  17.423  0.00  0.00    +0.000 NA
ATOM     23  C   UNL     1       2.308   7.887  18.529  0.00  0.00    +0.000 A 
ATOM     24  O   UNL     1       1.527   8.687  19.311  0.00  0.00    +0.000 OA
BRANCH  23  25
ATOM     25  C   UNL     1       2.598   6.558  19.050  0.00  0.00    +0.000 A 
ATOM     26  C   UNL     1       2.007   6.123  20.243  0.00  0.00    +0.000 A 
ATOM     27  C   UNL     1       2.256   4.837  20.731  0.00  0.00    +0.000 A 
ATOM     28  C   UNL     1       3.097   3.973  20.032  0.00  0.00    +0.000 A 
ATOM     29  C   UNL     1       3.701   4.394  18.849  0.00  0.00    +0.000 A 
ATOM     30  C   UNL     1       3.453   5.680  18.363  0.00  0.00    +0.000 A 
ENDBRANCH  23  25
ENDBRANCH   3  20
TORSDOF 3
ENDMDL
MODEL 9
REMARK VINA RESULT:      -7.8      1.103      1.294
REMARK  Name = 
REMARK  4 active torsions:
REMARK  status: ('A' for Active; 'I' for Inactive)
REMARK    1  A    between atoms: C_1  and  C_2
REMARK    2  A    between atoms: C_3  and  C_4
REMARK    3  A    between atoms: C_7  and  C_8
REMARK    4  A    between atoms: N_21  and  C_22
REMARK                            x       y       z     vdW  Elec       q    Type
REMARK                         _______ _______ _______ _____ _____    ______ ____
ROOT
ATOM      1  C   UNL     1       4.267   7.825  16.810  0.00  0.00    +0.000 C 
ATOM      2  C   UNL     1       4.009   6.523  17.509  0.00  0.00    +0.000 A 
ATOM      3  C   UNL     1       4.575   5.304  17.145  0.00  0.00    +0.000 A 
ATOM      4  S   UNL     1       4.100   4.034  18.187  0.00  0.00    +0.000 S 
ATOM      5  C   UNL     1       3.114   5.056  19.103  0.00  0.00    +0.000 A 
ATOM      6  N   UNL     1       2.423   4.542  20.130  0.00  0.00    +0.000 NA
ATOM      7  C   UNL     1       1.686   5.454  20.754  0.00  0.00    +0.000 A 
ATOM      8  N   UNL     1       1.588   6.749  20.448  0.00  0.00    +0.000 NA
ATOM      9  C   UNL     1       2.303   7.257  19.410  0.00  0.00    +0.000 A 
ATOM     10  N   UNL     1       2.194   8.632  19.153  0.00  0.00    +0.000 N 
ATOM     11  C   UNL     1       3.131   6.374  18.671  0.00  0.00    +0.000 A 
ATOM     12  H   UNL     1       2.849   9.008  18.488  0.00  0.00    +0.000 HD
ENDROOT
BRANCH  10  13
ATOM     13  C   UNL     1       1.051   9.438  19.306  0.00  0.00    +0.000 A 
ATOM     14  C   UNL     1       0.280   9.755  18.181  0.00  0.00    +0.000 A 
ATOM     15  C   UNL     1      -0.856  10.564  18.300  0.00  0.00    +0.000 A 
ATOM     16  C   UNL     1      -1.231  11.050  19.550  0.00  0.00    +0.000 A 
ATOM     17 CL   UNL     1      -2.635  12.033  19.703  0.00  0.00    +0.000 Cl
ATOM     18  C   UNL     1      -0.477  10.747  20.678  0.00  0.00    +0.000 A 
ATOM     19  C   UNL     1       0.666   9.953  20.551  0.00  0.00    +0.000 A 
ENDBRANCH  10  13
BRANCH   3  20
ATOM     20  C   UNL     1       5.476   4.997  16.070  0.00  0.00    +0.000 A 
ATOM     21  N   UNL     1       6.756   5.320  16.022  0.00  0.00    +0.000 NA
ATOM     22  N   UNL     1       7.257   4.817  14.834  0.00  0.00    +0.000 NA
ATOM     23  C   UNL     1       6.249   4.218  14.234  0.00  0.00    +0.000 A 
ATOM     24  O   UNL     1       5.090   4.305  14.949  0.00  0.00    +0.000 OA
BRANCH  23  25
ATOM     25  C   UNL     1       6.184   3.469  12.987  0.00  0.00    +0.000 A 
ATOM     26  C   UNL     1       7.361   3.050  12.352  0.00  0.00    +0.000 A 
ATOM     27  C   UNL     1       7.305   2.303  11.172  0.00  0.00    +0.000 A 
ATOM     28  C   UNL     1       6.072   1.968  10.614  0.00  0.00    +0.000 A 
ATOM     29  C   UNL     1       4.892   2.386  11.226  0.00  0.00    +0.000 A 
ATOM     30  C   UNL     1       4.950   3.134  12.405  0.00  0.00    +0.000 A 
ENDBRANCH  23  25
ENDBRANCH   3  20
TORSDOF 3
ENDMDL
