MODEL 1
REMARK VINA RESULT:      -9.1      0.000      0.000
REMARK  Name = 
REMARK  5 active torsions:
REMARK  status: ('A' for Active; 'I' for Inactive)
REMARK    1  A    between atoms: C_1  and  N_2
REMARK    2  A    between atoms: N_10  and  C_11
REMARK    3  A    between atoms: C_11  and  C_12
REMARK    4  A    between atoms: N_16  and  C_17
REMARK    5  A    between atoms: C_17  and  C_18
REMARK                            x       y       z     vdW  Elec       q    Type
REMARK                         _______ _______ _______ _____ _____    ______ ____
ROOT
ATOM      1  C   UNL     1       5.561   5.635  17.551  0.00  0.00    +0.000 A 
ATOM      2  C   UNL     1       5.648   6.860  16.937  0.00  0.00    +0.000 A 
ATOM      3  N   UNL     1       6.645   7.733  17.151  0.00  0.00    +0.000 NA
ATOM      4  C   UNL     1       7.588   7.386  18.038  0.00  0.00    +0.000 A 
ATOM      5  N   UNL     1       8.638   8.253  18.299  0.00  0.00    +0.000 N 
ATOM      6  N   UNL     1       7.576   6.238  18.727  0.00  0.00    +0.000 NA
ATOM      7  C   UNL     1       6.565   5.385  18.465  0.00  0.00    +0.000 A 
ATOM      8  H   UNL     1       9.001   8.026  19.218  0.00  0.00    +0.000 HD
ENDROOT
BRANCH   1   9
ATOM      9  C   UNL     1       4.428   4.680  17.339  0.00  0.00    +0.000 C 
BRANCH   9  19
ATOM     10  C   UNL     1       3.614   1.299  18.162  0.00  0.00    +0.000 C 
ATOM     11  N   UNL     1       3.172   1.928  19.399  0.00  0.00    +0.000 NA
ATOM     12  C   UNL     1       4.028   3.010  19.891  0.00  0.00    +0.000 C 
ATOM     13  C   UNL     1       3.628   4.499  19.641  0.00  0.00    +0.000 C 
ATOM     14  C   UNL     1       2.490   4.960  20.576  0.00  0.00    +0.000 C 
ATOM     15  C   UNL     1       1.106   4.548  20.086  0.00  0.00    +0.000 C 
ATOM     16  C   UNL     1       1.207   3.549  18.934  0.00  0.00    +0.000 C 
ATOM     17  C   UNL     1       1.738   2.188  19.436  0.00  0.00    +0.000 C 
ATOM     18  C   UNL     1       2.029   4.197  17.800  0.00  0.00    +0.000 C 
ATOM     19  N   UNL     1       3.281   4.838  18.246  0.00  0.00    +0.000 NA
ENDBRANCH   9  19
ENDBRANCH   1   9
BRANCH   5  20
ATOM     20  C   UNL     1       8.282   9.642  18.091  0.00  0.00    +0.000 C 
BRANCH  20  21
ATOM     21  C   UNL     1       9.330  10.541  18.697  0.00  0.00    +0.000 A 
ATOM     22  C   UNL     1      10.236  11.226  17.871  0.00  0.00    +0.000 A 
ATOM     23  C   UNL     1      11.178  12.093  18.421  0.00  0.00    +0.000 A 
ATOM     24  C   UNL     1      11.221  12.288  19.800  0.00  0.00    +0.000 A 
ATOM     25  C   UNL     1      10.322  11.618  20.630  0.00  0.00    +0.000 A 
ATOM     26  C   UNL     1       9.380  10.749  20.081  0.00  0.00    +0.000 A 
ENDBRANCH  20  21
ENDBRANCH   5  20
TORSDOF 4
ENDMDL
MODEL 2
REMARK VINA RESULT:      -8.7      1.120      1.339
REMARK  Name = 
REMARK  5 active torsions:
REMARK  status: ('A' for Active; 'I' for Inactive)
REMARK    1  A    between atoms: C_1  and  N_2
REMARK    2  A    between atoms: N_10  and  C_11
REMARK    3  A    between atoms: C_11  and  C_12
REMARK    4  A    between atoms: N_16  and  C_17
REMARK    5  A    between atoms: C_17  and  C_18
REMARK                            x       y       z     vdW  Elec       q    Type
REMARK                         _______ _______ _______ _____ _____    ______ ____
ROOT
ATOM      1  C   UNL     1       6.558   5.414  17.689  0.00  0.00    +0.000 A 
ATOM      2  C   UNL     1       6.591   6.557  16.929  0.00  0.00    +0.000 A 
ATOM      3  N   UNL     1       7.352   7.624  17.218  0.00  0.00    +0.000 NA
ATOM      4  C   UNL     1       8.097   7.566  18.331  0.00  0.00    +0.000 A 
ATOM      5  N   UNL     1       8.898   8.643  18.678  0.00  0.00    +0.000 N 
ATOM      6  N   UNL     1       8.105   6.521  19.168  0.00  0.00    +0.000 NA
ATOM      7  C   UNL     1       7.338   5.466  18.826  0.00  0.00    +0.000 A 
ATOM      8  H   UNL     1       9.061   8.594  19.677  0.00  0.00    +0.000 HD
ENDROOT
BRANCH   1   9
ATOM      9  C   UNL     1       5.679   4.242  17.384  0.00  0.00    +0.000 C 
BRANCH   9  19
ATOM     10  C   UNL     1       4.357   2.177  19.985  0.00  0.00    +0.000 C 
ATOM     11  N   UNL     1       3.364   3.242  20.038  0.00  0.00    +0.000 NA
ATOM     12  C   UNL     1       3.891   4.597  19.862  0.00  0.00    +0.000 C 
ATOM     13  C   UNL     1       3.773   5.310  18.477  0.00  0.00    +0.000 C 
ATOM     14  C   UNL     1       2.340   5.820  18.208  0.00  0.00    +0.000 C 
ATOM     15  C   UNL     1       1.406   4.736  17.685  0.00  0.00    +0.000 C 
ATOM     16  C   UNL     1       2.043   3.353  17.814  0.00  0.00    +0.000 C 
ATOM     17  C   UNL     1       2.147   2.935  19.298  0.00  0.00    +0.000 C 
ATOM     18  C   UNL     1       3.377   3.359  17.038  0.00  0.00    +0.000 C 
ATOM     19  N   UNL     1       4.237   4.524  17.317  0.00  0.00    +0.000 NA
ENDBRANCH   9  19
ENDBRANCH   1   9
BRANCH   5  20
ATOM     20  C   UNL     1       8.383   9.905  18.188  0.00  0.00    +0.000 C 
BRANCH  20  21
ATOM     21  C   UNL     1       9.284  11.035  18.621  0.00  0.00    +0.000 A 
ATOM     22  C   UNL     1       9.303  12.239  17.899  0.00  0.00    +0.000 A 
ATOM     23  C   UNL     1      10.099  13.302  18.320  0.00  0.00    +0.000 A 
ATOM     24  C   UNL     1      10.880  13.175  19.467  0.00  0.00    +0.000 A 
ATOM     25  C   UNL     1      10.864  11.987  20.196  0.00  0.00    +0.000 A 
ATOM     26  C   UNL     1      10.069  10.921  19.776  0.00  0.00    +0.000 A 
ENDBRANCH  20  21
ENDBRANCH   5  20
TORSDOF 4
ENDMDL
MODEL 3
REMARK VINA RESULT:      -8.5      0.955      1.597
REMARK  Name = 
REMARK  5 active torsions:
REMARK  status: ('A' for Active; 'I' for Inactive)
REMARK    1  A    between atoms: C_1  and  N_2
REMARK    2  A    between atoms: N_10  and  C_11
REMARK    3  A    between atoms: C_11  and  C_12
REMARK    4  A    between atoms: N_16  and  C_17
REMARK    5  A    between atoms: C_17  and  C_18
REMARK                            x       y       z     vdW  Elec       q    Type
REMARK                         _______ _______ _______ _____ _____    ______ ____
ROOT
ATOM      1  C   UNL     1       5.792   5.493  18.050  0.00  0.00    +0.000 A 
ATOM      2  C   UNL     1       5.842   6.651  17.313  0.00  0.00    +0.000 A 
ATOM      3  N   UNL     1       6.823   7.561  17.419  0.00  0.00    +0.000 NA
ATOM      4  C   UNL     1       7.789   7.324  18.318  0.00  0.00    +0.000 A 
ATOM      5  N   UNL     1       8.824   8.233  18.469  0.00  0.00    +0.000 N 
ATOM      6  N   UNL     1       7.813   6.252  19.120  0.00  0.00    +0.000 NA
ATOM      7  C   UNL     1       6.816   5.357  18.965  0.00  0.00    +0.000 A 
ATOM      8  H   UNL     1       9.208   8.108  19.399  0.00  0.00    +0.000 HD
ENDROOT
BRANCH   1   9
ATOM      9  C   UNL     1       4.675   4.500  17.957  0.00  0.00    +0.000 C 
BRANCH   9  19
ATOM     10  C   UNL     1       1.170   4.245  17.305  0.00  0.00    +0.000 C 
ATOM     11  N   UNL     1       1.277   3.181  18.294  0.00  0.00    +0.000 NA
ATOM     12  C   UNL     1       2.483   2.355  18.196  0.00  0.00    +0.000 C 
ATOM     13  C   UNL     1       3.688   2.612  19.155  0.00  0.00    +0.000 C 
ATOM     14  C   UNL     1       3.423   2.075  20.578  0.00  0.00    +0.000 C 
ATOM     15  C   UNL     1       2.592   3.024  21.433  0.00  0.00    +0.000 C 
ATOM     16  C   UNL     1       1.998   4.149  20.585  0.00  0.00    +0.000 C 
ATOM     17  C   UNL     1       0.905   3.601  19.639  0.00  0.00    +0.000 C 
ATOM     18  C   UNL     1       3.155   4.895  19.890  0.00  0.00    +0.000 C 
ATOM     19  N   UNL     1       4.145   4.014  19.240  0.00  0.00    +0.000 NA
ENDBRANCH   9  19
ENDBRANCH   1   9
BRANCH   5  20
ATOM     20  C   UNL     1       8.435   9.586  18.128  0.00  0.00    +0.000 C 
BRANCH  20  21
ATOM     21  C   UNL     1       9.401  10.572  18.737  0.00  0.00    +0.000 A 
ATOM     22  C   UNL     1      10.272  11.306  17.917  0.00  0.00    +0.000 A 
ATOM     23  C   UNL     1      11.135  12.251  18.469  0.00  0.00    +0.000 A 
ATOM     24  C   UNL     1      11.134  12.473  19.844  0.00  0.00    +0.000 A 
ATOM     25  C   UNL     1      10.269  11.755  20.669  0.00  0.00    +0.000 A 
ATOM     26  C   UNL     1       9.405  10.808  20.118  0.00  0.00    +0.000 A 
ENDBRANCH  20  21
ENDBRANCH   5  20
TORSDOF 4
ENDMDL
MODEL 4
REMARK VINA RESULT:      -8.4      5.127      7.728
REMARK  Name = 
REMARK  5 active torsions:
REMARK  status: ('A' for Active; 'I' for Inactive)
REMARK    1  A    between atoms: C_1  and  N_2
REMARK    2  A    between atoms: N_10  and  C_11
REMARK    3  A    between atoms: C_11  and  C_12
REMARK    4  A    between atoms: N_16  and  C_17
REMARK    5  A    between atoms: C_17  and  C_18
REMARK                            x       y       z     vdW  Elec       q    Type
REMARK                         _______ _______ _______ _____ _____    ______ ____
ROOT
ATOM      1  C   UNL     1       2.312   7.691  18.879  0.00  0.00    +0.000 A 
ATOM      2  C   UNL     1       2.197   8.690  17.944  0.00  0.00    +0.000 A 
ATOM      3  N   UNL     1       1.575   9.857  18.171  0.00  0.00    +0.000 NA
ATOM      4  C   UNL     1       1.015  10.032  19.377  0.00  0.00    +0.000 A 
ATOM      5  N   UNL     1       0.357  11.218  19.662  0.00  0.00    +0.000 N 
ATOM      6  N   UNL     1       1.027   9.107  20.345  0.00  0.00    +0.000 NA
ATOM      7  C   UNL     1       1.680   7.958  20.076  0.00  0.00    +0.000 A 
ATOM      8  H   UNL     1      -0.302  11.031  20.409  0.00  0.00    +0.000 HD
ENDROOT
BRANCH   1   9
ATOM      9  C   UNL     1       2.973   6.375  18.609  0.00  0.00    +0.000 C 
BRANCH   9  19
ATOM     10  C   UNL     1       4.639   3.722  16.887  0.00  0.00    +0.000 C 
ATOM     11  N   UNL     1       4.226   2.978  18.069  0.00  0.00    +0.000 NA
ATOM     12  C   UNL     1       4.325   3.708  19.335  0.00  0.00    +0.000 C 
ATOM     13  C   UNL     1       3.050   4.348  19.972  0.00  0.00    +0.000 C 
ATOM     14  C   UNL     1       2.143   3.292  20.639  0.00  0.00    +0.000 C 
ATOM     15  C   UNL     1       1.236   2.568  19.651  0.00  0.00    +0.000 C 
ATOM     16  C   UNL     1       1.642   2.873  18.209  0.00  0.00    +0.000 C 
ATOM     17  C   UNL     1       2.999   2.215  17.873  0.00  0.00    +0.000 C 
ATOM     18  C   UNL     1       1.583   4.401  18.002  0.00  0.00    +0.000 C 
ATOM     19  N   UNL     1       2.239   5.186  19.065  0.00  0.00    +0.000 NA
ENDBRANCH   9  19
ENDBRANCH   1   9
BRANCH   5  20
ATOM     20  C   UNL     1      -0.196  11.850  18.482  0.00  0.00    +0.000 C 
BRANCH  20  21
ATOM     21  C   UNL     1      -1.615  11.386  18.263  0.00  0.00    +0.000 A 
ATOM     22  C   UNL     1      -2.678  12.042  18.904  0.00  0.00    +0.000 A 
ATOM     23  C   UNL     1      -3.995  11.647  18.672  0.00  0.00    +0.000 A 
ATOM     24  C   UNL     1      -4.262  10.598  17.795  0.00  0.00    +0.000 A 
ATOM     25  C   UNL     1      -3.214   9.943  17.148  0.00  0.00    +0.000 A 
ATOM     26  C   UNL     1      -1.896  10.336  17.380  0.00  0.00    +0.000 A 
ENDBRANCH  20  21
ENDBRANCH   5  20
TORSDOF 4
ENDMDL
MODEL 5
REMARK VINA RESULT:      -8.4      0.919      2.268
REMARK  Name = 
REMARK  5 active torsions:
REMARK  status: ('A' for Active; 'I' for Inactive)
REMARK    1  A    between atoms: C_1  and  N_2
REMARK    2  A    between atoms: N_10  and  C_11
REMARK    3  A    between atoms: C_11  and  C_12
REMARK    4  A    between atoms: N_16  and  C_17
REMARK    5  A    between atoms: C_17  and  C_18
REMARK                            x       y       z     vdW  Elec       q    Type
REMARK                         _______ _______ _______ _____ _____    ______ ____
ROOT
ATOM      1  C   UNL     1       6.032   5.247  17.377  0.00  0.00    +0.000 A 
ATOM      2  C   UNL     1       6.123   6.465  16.747  0.00  0.00    +0.000 A 
ATOM      3  N   UNL     1       6.990   7.426  17.102  0.00  0.00    +0.000 NA
ATOM      4  C   UNL     1       7.789   7.178  18.151  0.00  0.00    +0.000 A 
ATOM      5  N   UNL     1       8.700   8.139  18.561  0.00  0.00    +0.000 N 
ATOM      6  N   UNL     1       7.751   6.046  18.864  0.00  0.00    +0.000 NA
ATOM      7  C   UNL     1       6.877   5.103  18.458  0.00  0.00    +0.000 A 
ATOM      8  H   UNL     1       8.914   7.961  19.536  0.00  0.00    +0.000 HD
ENDROOT
BRANCH   1   9
ATOM      9  C   UNL     1       5.037   4.193  17.002  0.00  0.00    +0.000 C 
BRANCH   9  19
ATOM     10  C   UNL     1       2.532   6.522  18.039  0.00  0.00    +0.000 C 
ATOM     11  N   UNL     1       1.848   5.295  18.422  0.00  0.00    +0.000 NA
ATOM     12  C   UNL     1       1.999   4.177  17.488  0.00  0.00    +0.000 C 
ATOM     13  C   UNL     1       3.030   3.041  17.786  0.00  0.00    +0.000 C 
ATOM     14  C   UNL     1       2.528   2.074  18.880  0.00  0.00    +0.000 C 
ATOM     15  C   UNL     1       2.755   2.596  20.293  0.00  0.00    +0.000 C 
ATOM     16  C   UNL     1       3.176   4.065  20.275  0.00  0.00    +0.000 C 
ATOM     17  C   UNL     1       1.999   4.965  19.834  0.00  0.00    +0.000 C 
ATOM     18  C   UNL     1       4.456   4.192  19.423  0.00  0.00    +0.000 C 
ATOM     19  N   UNL     1       4.394   3.494  18.124  0.00  0.00    +0.000 NA
ENDBRANCH   9  19
ENDBRANCH   1   9
BRANCH   5  20
ATOM     20  C   UNL     1       8.271   9.487  18.249  0.00  0.00    +0.000 C 
BRANCH  20  21
ATOM     21  C   UNL     1       9.276  10.484  18.771  0.00  0.00    +0.000 A 
ATOM     22  C   UNL     1       9.351  10.756  20.146  0.00  0.00    +0.000 A 
ATOM     23  C   UNL     1      10.307  11.643  20.639  0.00  0.00    +0.000 A 
ATOM     24  C   UNL     1      11.199  12.261  19.766  0.00  0.00    +0.000 A 
ATOM     25  C   UNL     1      11.138  11.993  18.399  0.00  0.00    +0.000 A 
ATOM     26  C   UNL     1      10.181  11.107  17.902  0.00  0.00    +0.000 A 
ENDBRANCH  20  21
ENDBRANCH   5  20
TORSDOF 4
ENDMDL
MODEL 6
REMARK VINA RESULT:      -8.3      5.151      7.780
REMARK  Name = 
REMARK  5 active torsions:
REMARK  status: ('A' for Active; 'I' for Inactive)
REMARK    1  A    between atoms: C_1  and  N_2
REMARK    2  A    between atoms: N_10  and  C_11
REMARK    3  A    between atoms: C_11  and  C_12
REMARK    4  A    between atoms: N_16  and  C_17
REMARK    5  A    between atoms: C_17  and  C_18
REMARK                            x       y       z     vdW  Elec       q    Type
REMARK                         _______ _______ _______ _____ _____    ______ ____
ROOT
ATOM      1  C   UNL     1       2.178   7.497  19.695  0.00  0.00    +0.000 A 
ATOM      2  C   UNL     1       2.198   8.384  18.646  0.00  0.00    +0.000 A 
ATOM      3  N   UNL     1       1.575   9.572  18.661  0.00  0.00    +0.000 NA
ATOM      4  C   UNL     1       0.874   9.886  19.761  0.00  0.00    +0.000 A 
ATOM      5  N   UNL     1       0.208  11.100  19.827  0.00  0.00    +0.000 N 
ATOM      6  N   UNL     1       0.749   9.077  20.820  0.00  0.00    +0.000 NA
ATOM      7  C   UNL     1       1.409   7.902  20.766  0.00  0.00    +0.000 A 
ATOM      8  H   UNL     1      -0.541  11.002  20.502  0.00  0.00    +0.000 HD
ENDROOT
BRANCH   1   9
ATOM      9  C   UNL     1       2.843   6.157  19.658  0.00  0.00    +0.000 C 
BRANCH   9  19
ATOM     10  C   UNL     1       5.100   3.717  18.341  0.00  0.00    +0.000 C 
ATOM     11  N   UNL     1       4.140   2.807  18.951  0.00  0.00    +0.000 NA
ATOM     12  C   UNL     1       3.608   3.235  20.246  0.00  0.00    +0.000 C 
ATOM     13  C   UNL     1       2.196   3.899  20.333  0.00  0.00    +0.000 C 
ATOM     14  C   UNL     1       1.059   2.864  20.195  0.00  0.00    +0.000 C 
ATOM     15  C   UNL     1       0.753   2.497  18.748  0.00  0.00    +0.000 C 
ATOM     16  C   UNL     1       1.828   3.037  17.806  0.00  0.00    +0.000 C 
ATOM     17  C   UNL     1       3.161   2.281  18.007  0.00  0.00    +0.000 C 
ATOM     18  C   UNL     1       1.907   4.567  17.986  0.00  0.00    +0.000 C 
ATOM     19  N   UNL     1       1.959   5.013  19.392  0.00  0.00    +0.000 NA
ENDBRANCH   9  19
ENDBRANCH   1   9
BRANCH   5  20
ATOM     20  C   UNL     1      -0.184  11.595  18.523  0.00  0.00    +0.000 C 
BRANCH  20  21
ATOM     21  C   UNL     1      -1.625  11.243  18.247  0.00  0.00    +0.000 A 
ATOM     22  C   UNL     1      -1.939  10.121  17.464  0.00  0.00    +0.000 A 
ATOM     23  C   UNL     1      -3.268   9.764  17.242  0.00  0.00    +0.000 A 
ATOM     24  C   UNL     1      -4.294  10.521  17.803  0.00  0.00    +0.000 A 
ATOM     25  C   UNL     1      -3.994  11.634  18.588  0.00  0.00    +0.000 A 
ATOM     26  C   UNL     1      -2.665  11.994  18.810  0.00  0.00    +0.000 A 
ENDBRANCH  20  21
ENDBRANCH   5  20
TORSDOF 4
ENDMDL
MODEL 7
REMARK VINA RESULT:      -8.3      1.030      1.442
REMARK  Name = 
REMARK  5 active torsions:
REMARK  status: ('A' for Active; 'I' for Inactive)
REMARK    1  A    between atoms: C_1  and  N_2
REMARK    2  A    between atoms: N_10  and  C_11
REMARK    3  A    between atoms: C_11  and  C_12
REMARK    4  A    between atoms: N_16  and  C_17
REMARK    5  A    between atoms: C_17  and  C_18
REMARK                            x       y       z     vdW  Elec       q    Type
REMARK                         _______ _______ _______ _____ _____    ______ ____
ROOT
ATOM      1  C   UNL     1       6.579   5.401  17.820  0.00  0.00    +0.000 A 
ATOM      2  C   UNL     1       6.611   6.528  17.035  0.00  0.00    +0.000 A 
ATOM      3  N   UNL     1       7.386   7.593  17.290  0.00  0.00    +0.000 NA
ATOM      4  C   UNL     1       8.149   7.550  18.392  0.00  0.00    +0.000 A 
ATOM      5  N   UNL     1       8.966   8.626  18.703  0.00  0.00    +0.000 N 
ATOM      6  N   UNL     1       8.160   6.523  19.250  0.00  0.00    +0.000 NA
ATOM      7  C   UNL     1       7.378   5.468  18.943  0.00  0.00    +0.000 A 
ATOM      8  H   UNL     1       9.145   8.597  19.700  0.00  0.00    +0.000 HD
ENDROOT
BRANCH   1   9
ATOM      9  C   UNL     1       5.683   4.231  17.554  0.00  0.00    +0.000 C 
BRANCH   9  19
ATOM     10  C   UNL     1       4.253   1.275  18.966  0.00  0.00    +0.000 C 
ATOM     11  N   UNL     1       3.237   2.226  19.397  0.00  0.00    +0.000 NA
ATOM     12  C   UNL     1       3.744   3.527  19.837  0.00  0.00    +0.000 C 
ATOM     13  C   UNL     1       3.693   4.755  18.872  0.00  0.00    +0.000 C 
ATOM     14  C   UNL     1       2.269   5.338  18.750  0.00  0.00    +0.000 C 
ATOM     15  C   UNL     1       1.390   4.578  17.765  0.00  0.00    +0.000 C 
ATOM     16  C   UNL     1       2.048   3.264  17.344  0.00  0.00    +0.000 C 
ATOM     17  C   UNL     1       2.072   2.263  18.521  0.00  0.00    +0.000 C 
ATOM     18  C   UNL     1       3.425   3.587  16.727  0.00  0.00    +0.000 C 
ATOM     19  N   UNL     1       4.243   4.524  17.521  0.00  0.00    +0.000 NA
ENDBRANCH   9  19
ENDBRANCH   1   9
BRANCH   5  20
ATOM     20  C   UNL     1       8.455   9.883  18.194  0.00  0.00    +0.000 C 
BRANCH  20  21
ATOM     21  C   UNL     1       9.291  11.028  18.709  0.00  0.00    +0.000 A 
ATOM     22  C   UNL     1       9.875  10.958  19.984  0.00  0.00    +0.000 A 
ATOM     23  C   UNL     1      10.685  11.993  20.448  0.00  0.00    +0.000 A 
ATOM     24  C   UNL     1      10.921  13.105  19.643  0.00  0.00    +0.000 A 
ATOM     25  C   UNL     1      10.352  13.183  18.372  0.00  0.00    +0.000 A 
ATOM     26  C   UNL     1       9.540  12.148  17.906  0.00  0.00    +0.000 A 
ENDBRANCH  20  21
ENDBRANCH   5  20
TORSDOF 4
ENDMDL
MODEL 8
REMARK VINA RESULT:      -8.2      5.008      5.840
REMARK  Name = 
REMARK  5 active torsions:
REMARK  status: ('A' for Active; 'I' for Inactive)
REMARK    1  A    between atoms: C_1  and  N_2
REMARK    2  A    between atoms: N_10  and  C_11
REMARK    3  A    between atoms: C_11  and  C_12
REMARK    4  A    between atoms: N_16  and  C_17
REMARK    5  A    between atoms: C_17  and  C_18
REMARK                            x       y       z     vdW  Elec       q    Type
REMARK                         _______ _______ _______ _____ _____    ______ ____
ROOT
ATOM      1  C   UNL     1       2.461   7.418  19.034  0.00  0.00    +0.000 A 
ATOM      2  C   UNL     1       1.697   8.147  19.913  0.00  0.00    +0.000 A 
ATOM      3  N   UNL     1       1.138   9.329  19.614  0.00  0.00    +0.000 NA
ATOM      4  C   UNL     1       1.369   9.828  18.390  0.00  0.00    +0.000 A 
ATOM      5  N   UNL     1       0.817  11.047  18.031  0.00  0.00    +0.000 N 
ATOM      6  N   UNL     1       2.135   9.224  17.473  0.00  0.00    +0.000 NA
ATOM      7  C   UNL     1       2.660   8.030  17.814  0.00  0.00    +0.000 A 
ATOM      8  H   UNL     1       1.384  11.431  17.283  0.00  0.00    +0.000 HD
ENDROOT
BRANCH   1   9
ATOM      9  C   UNL     1       3.114   6.118  19.386  0.00  0.00    +0.000 C 
BRANCH   9  19
ATOM     10  C   UNL     1       4.538   3.646  17.232  0.00  0.00    +0.000 C 
ATOM     11  N   UNL     1       3.958   2.750  18.223  0.00  0.00    +0.000 NA
ATOM     12  C   UNL     1       4.066   3.201  19.613  0.00  0.00    +0.000 C 
ATOM     13  C   UNL     1       2.844   3.874  20.316  0.00  0.00    +0.000 C 
ATOM     14  C   UNL     1       1.769   2.844  20.722  0.00  0.00    +0.000 C 
ATOM     15  C   UNL     1       0.844   2.457  19.574  0.00  0.00    +0.000 C 
ATOM     16  C   UNL     1       1.378   2.977  18.240  0.00  0.00    +0.000 C 
ATOM     17  C   UNL     1       2.660   2.217  17.830  0.00  0.00    +0.000 C 
ATOM     18  C   UNL     1       1.527   4.509  18.341  0.00  0.00    +0.000 C 
ATOM     19  N   UNL     1       2.207   4.975  19.565  0.00  0.00    +0.000 NA
ENDBRANCH   9  19
ENDBRANCH   1   9
BRANCH   5  20
ATOM     20  C   UNL     1       0.603  11.921  19.166  0.00  0.00    +0.000 C 
BRANCH  20  21
ATOM     21  C   UNL     1       1.257  13.258  18.921  0.00  0.00    +0.000 A 
ATOM     22  C   UNL     1       2.551  13.323  18.380  0.00  0.00    +0.000 A 
ATOM     23  C   UNL     1       3.143  14.555  18.110  0.00  0.00    +0.000 A 
ATOM     24  C   UNL     1       2.448  15.733  18.374  0.00  0.00    +0.000 A 
ATOM     25  C   UNL     1       1.160  15.682  18.905  0.00  0.00    +0.000 A 
ATOM     26  C   UNL     1       0.565  14.449  19.178  0.00  0.00    +0.000 A 
ENDBRANCH  20  21
ENDBRANCH   5  20
TORSDOF 4
ENDMDL
MODEL 9
REMARK VINA RESULT:      -8.2      4.596      5.487
REMARK  Name = 
REMARK  5 active torsions:
REMARK  status: ('A' for Active; 'I' for Inactive)
REMARK    1  A    between atoms: C_1  and  N_2
REMARK    2  A    between atoms: N_10  and  C_11
REMARK    3  A    between atoms: C_11  and  C_12
REMARK    4  A    between atoms: N_16  and  C_17
REMARK    5  A    between atoms: C_17  and  C_18
REMARK                            x       y       z     vdW  Elec       q    Type
REMARK                         _______ _______ _______ _____ _____    ______ ____
ROOT
ATOM      1  C   UNL     1       2.450   7.443  18.982  0.00  0.00    +0.000 A 
ATOM      2  C   UNL     1       1.737   8.152  19.917  0.00  0.00    +0.000 A 
ATOM      3  N   UNL     1       1.163   9.341  19.675  0.00  0.00    +0.000 NA
ATOM      4  C   UNL     1       1.327   9.866  18.452  0.00  0.00    +0.000 A 
ATOM      5  N   UNL     1       0.758  11.093  18.151  0.00  0.00    +0.000 N 
ATOM      6  N   UNL     1       2.040   9.283  17.481  0.00  0.00    +0.000 NA
ATOM      7  C   UNL     1       2.582   8.081  17.765  0.00  0.00    +0.000 A 
ATOM      8  H   UNL     1       1.282  11.493  17.381  0.00  0.00    +0.000 HD
ENDROOT
BRANCH   1   9
ATOM      9  C   UNL     1       3.121   6.136  19.268  0.00  0.00    +0.000 C 
BRANCH   9  19
ATOM     10  C   UNL     1       4.534   3.613  17.166  0.00  0.00    +0.000 C 
ATOM     11  N   UNL     1       3.971   2.742  18.190  0.00  0.00    +0.000 NA
ATOM     12  C   UNL     1       4.094   3.232  19.564  0.00  0.00    +0.000 C 
ATOM     13  C   UNL     1       2.877   3.917  20.263  0.00  0.00    +0.000 C 
ATOM     14  C   UNL     1       1.813   2.893  20.712  0.00  0.00    +0.000 C 
ATOM     15  C   UNL     1       0.877   2.467  19.588  0.00  0.00    +0.000 C 
ATOM     16  C   UNL     1       1.390   2.953  18.233  0.00  0.00    +0.000 C 
ATOM     17  C   UNL     1       2.672   2.189  17.829  0.00  0.00    +0.000 C 
ATOM     18  C   UNL     1       1.531   4.488  18.289  0.00  0.00    +0.000 C 
ATOM     19  N   UNL     1       2.223   4.993  19.490  0.00  0.00    +0.000 NA
ENDBRANCH   9  19
ENDBRANCH   1   9
BRANCH   5  20
ATOM     20  C   UNL     1       0.607  11.942  19.315  0.00  0.00    +0.000 C 
BRANCH  20  21
ATOM     21  C   UNL     1       1.744  12.931  19.386  0.00  0.00    +0.000 A 
ATOM     22  C   UNL     1       2.244  13.343  20.631  0.00  0.00    +0.000 A 
ATOM     23  C   UNL     1       3.324  14.222  20.702  0.00  0.00    +0.000 A 
ATOM     24  C   UNL     1       3.915  14.694  19.532  0.00  0.00    +0.000 A 
ATOM     25  C   UNL     1       3.430  14.286  18.290  0.00  0.00    +0.000 A 
ATOM     26  C   UNL     1       2.349  13.408  18.216  0.00  0.00    +0.000 A 
ENDBRANCH  20  21
ENDBRANCH   5  20
TORSDOF 4
ENDMDL
