MODEL 1
REMARK VINA RESULT:      -7.2      0.000      0.000
REMARK  Name = 
REMARK  9 active torsions:
REMARK  status: ('A' for Active; 'I' for Inactive)
REMARK    1  A    between atoms: C_1  and  C_2
REMARK    2  A    between atoms: C_4  and  C_5
REMARK    3  A    between atoms: C_7  and  S_8
REMARK    4  A    between atoms: S_8  and  C_9
REMARK    5  A    between atoms: C_9  and  C_10
REMARK    6  A    between atoms: C_13  and  S_14
REMARK    7  A    between atoms: S_14  and  C_15
REMARK    8  A    between atoms: C_15  and  C_16
REMARK    9  A    between atoms: N_24  and  C_25
REMARK                            x       y       z     vdW  Elec       q    Type
REMARK                         _______ _______ _______ _____ _____    ______ ____
ROOT
ATOM      1  C   UNL     1       2.092   6.148  19.176  0.00  0.00    +0.000 A 
ATOM      2  N   UNL     1       2.110   6.008  17.866  0.00  0.00    +0.000 NA
ATOM      3  N   UNL     1       2.024   4.670  17.572  0.00  0.00    +0.000 NA
ATOM      4  C   UNL     1       2.000   4.005  18.688  0.00  0.00    +0.000 A 
ATOM      5  N   UNL     1       2.053   4.890  19.756  0.00  0.00    +0.000 N 
ATOM      6  C   UNL     1       2.141   4.680  21.173  0.00  0.00    +0.000 C 
ENDROOT
BRANCH   1   7
ATOM      7  C   UNL     1       2.134   7.458  19.925  0.00  0.00    +0.000 C 
BRANCH   7   8
ATOM      8  S   UNL     1       1.787   8.830  18.776  0.00  0.00    +0.000 S 
BRANCH   8  15
ATOM      9  C   UNL     1      -0.663  10.057  23.126  0.00  0.00    +0.000 C 
ATOM     10  C   UNL     1      -0.334  10.398  21.701  0.00  0.00    +0.000 A 
ATOM     11  C   UNL     1      -0.863  11.541  21.129  0.00  0.00    +0.000 A 
ATOM     12  C   UNL     1      -0.513  11.791  19.818  0.00  0.00    +0.000 A 
ATOM     13  C   UNL     1      -1.027  12.996  19.091  0.00  0.00    +0.000 C 
ATOM     14  N   UNL     1       0.302  10.973  19.130  0.00  0.00    +0.000 NA
ATOM     15  C   UNL     1       0.778   9.888  19.763  0.00  0.00    +0.000 A 
ATOM     16  N   UNL     1       0.491   9.556  21.035  0.00  0.00    +0.000 NA
ENDBRANCH   8  15
ENDBRANCH   7   8
ENDBRANCH   1   7
BRANCH   4  17
ATOM     17  S   UNL     1       1.811   2.278  18.772  0.00  0.00    +0.000 S 
BRANCH  17  18
ATOM     18  C   UNL     1       3.493   1.550  18.596  0.00  0.00    +0.000 C 
BRANCH  18  19
ATOM     19  C   UNL     1       4.563   2.582  18.874  0.00  0.00    +0.000 C 
ATOM     20  O   UNL     1       5.038   2.702  20.018  0.00  0.00    +0.000 OA
ATOM     21  N   UNL     1       4.887   3.354  17.784  0.00  0.00    +0.000 N 
ATOM     22  C   UNL     1       5.812   4.345  17.928  0.00  0.00    +0.000 A 
ATOM     23  N   UNL     1       6.698   4.475  18.882  0.00  0.00    +0.000 NA
ATOM     24  C   UNL     1       7.328   5.690  18.763  0.00  0.00    +0.000 A 
ATOM     25  C   UNL     1       6.915   6.462  17.699  0.00  0.00    +0.000 A 
ATOM     26  S   UNL     1       5.765   5.585  16.765  0.00  0.00    +0.000 S 
ATOM     27  H   UNL     1       4.264   3.397  16.981  0.00  0.00    +0.000 HD
ENDBRANCH  18  19
ENDBRANCH  17  18
ENDBRANCH   4  17
TORSDOF 6
ENDMDL
MODEL 2
REMARK VINA RESULT:      -7.0      0.937      1.106
REMARK  Name = 
REMARK  9 active torsions:
REMARK  status: ('A' for Active; 'I' for Inactive)
REMARK    1  A    between atoms: C_1  and  C_2
REMARK    2  A    between atoms: C_4  and  C_5
REMARK    3  A    between atoms: C_7  and  S_8
REMARK    4  A    between atoms: S_8  and  C_9
REMARK    5  A    between atoms: C_9  and  C_10
REMARK    6  A    between atoms: C_13  and  S_14
REMARK    7  A    between atoms: S_14  and  C_15
REMARK    8  A    between atoms: C_15  and  C_16
REMARK    9  A    between atoms: N_24  and  C_25
REMARK                            x       y       z     vdW  Elec       q    Type
REMARK                         _______ _______ _______ _____ _____    ______ ____
ROOT
ATOM      1  C   UNL     1       2.064   6.259  19.076  0.00  0.00    +0.000 A 
ATOM      2  N   UNL     1       2.089   6.025  17.779  0.00  0.00    +0.000 NA
ATOM      3  N   UNL     1       2.020   4.668  17.583  0.00  0.00    +0.000 NA
ATOM      4  C   UNL     1       1.998   4.086  18.744  0.00  0.00    +0.000 A 
ATOM      5  N   UNL     1       2.037   5.046  19.746  0.00  0.00    +0.000 N 
ATOM      6  C   UNL     1       2.122   4.941  21.174  0.00  0.00    +0.000 C 
ENDROOT
BRANCH   1   7
ATOM      7  C   UNL     1       2.088   7.621  19.728  0.00  0.00    +0.000 C 
BRANCH   7   8
ATOM      8  S   UNL     1       2.092   8.914  18.443  0.00  0.00    +0.000 S 
BRANCH   8  15
ATOM      9  C   UNL     1      -0.384  12.002  21.724  0.00  0.00    +0.000 C 
ATOM     10  C   UNL     1      -0.378  11.261  20.418  0.00  0.00    +0.000 A 
ATOM     11  C   UNL     1      -1.484  11.324  19.588  0.00  0.00    +0.000 A 
ATOM     12  C   UNL     1      -1.404  10.622  18.402  0.00  0.00    +0.000 A 
ATOM     13  C   UNL     1      -2.540  10.612  17.426  0.00  0.00    +0.000 C 
ATOM     14  N   UNL     1      -0.311   9.916  18.065  0.00  0.00    +0.000 NA
ATOM     15  C   UNL     1       0.721   9.914  18.925  0.00  0.00    +0.000 A 
ATOM     16  N   UNL     1       0.737  10.561  20.104  0.00  0.00    +0.000 NA
ENDBRANCH   8  15
ENDBRANCH   7   8
ENDBRANCH   1   7
BRANCH   4  17
ATOM     17  S   UNL     1       1.830   2.367  18.953  0.00  0.00    +0.000 S 
BRANCH  17  18
ATOM     18  C   UNL     1       3.479   1.625  18.608  0.00  0.00    +0.000 C 
BRANCH  18  19
ATOM     19  C   UNL     1       4.586   2.627  18.850  0.00  0.00    +0.000 C 
ATOM     20  O   UNL     1       5.081   2.753  19.985  0.00  0.00    +0.000 OA
ATOM     21  N   UNL     1       4.918   3.366  17.741  0.00  0.00    +0.000 N 
ATOM     22  C   UNL     1       5.877   4.328  17.851  0.00  0.00    +0.000 A 
ATOM     23  N   UNL     1       6.782   4.447  18.790  0.00  0.00    +0.000 NA
ATOM     24  C   UNL     1       7.450   5.638  18.638  0.00  0.00    +0.000 A 
ATOM     25  C   UNL     1       7.046   6.403  17.565  0.00  0.00    +0.000 A 
ATOM     26  S   UNL     1       5.854   5.546  16.664  0.00  0.00    +0.000 S 
ATOM     27  H   UNL     1       4.286   3.413  16.945  0.00  0.00    +0.000 HD
ENDBRANCH  18  19
ENDBRANCH  17  18
ENDBRANCH   4  17
TORSDOF 6
ENDMDL
MODEL 3
REMARK VINA RESULT:      -6.8      2.944      8.485
REMARK  Name = 
REMARK  9 active torsions:
REMARK  status: ('A' for Active; 'I' for Inactive)
REMARK    1  A    between atoms: C_1  and  C_2
REMARK    2  A    between atoms: C_4  and  C_5
REMARK    3  A    between atoms: C_7  and  S_8
REMARK    4  A    between atoms: S_8  and  C_9
REMARK    5  A    between atoms: C_9  and  C_10
REMARK    6  A    between atoms: C_13  and  S_14
REMARK    7  A    between atoms: S_14  and  C_15
REMARK    8  A    between atoms: C_15  and  C_16
REMARK    9  A    between atoms: N_24  and  C_25
REMARK                            x       y       z     vdW  Elec       q    Type
REMARK                         _______ _______ _______ _____ _____    ______ ____
ROOT
ATOM      1  C   UNL     1       2.598   5.557  18.742  0.00  0.00    +0.000 A 
ATOM      2  N   UNL     1       2.835   6.620  18.001  0.00  0.00    +0.000 NA
ATOM      3  N   UNL     1       2.388   7.728  18.679  0.00  0.00    +0.000 NA
ATOM      4  C   UNL     1       1.849   7.336  19.795  0.00  0.00    +0.000 A 
ATOM      5  N   UNL     1       1.938   5.955  19.894  0.00  0.00    +0.000 N 
ATOM      6  C   UNL     1       1.430   5.027  20.863  0.00  0.00    +0.000 C 
ENDROOT
BRANCH   1   7
ATOM      7  C   UNL     1       2.962   4.135  18.387  0.00  0.00    +0.000 C 
BRANCH   7   8
ATOM      8  S   UNL     1       4.623   3.749  19.031  0.00  0.00    +0.000 S 
BRANCH   8  15
ATOM      9  C   UNL     1       7.810   7.566  17.723  0.00  0.00    +0.000 C 
ATOM     10  C   UNL     1       7.057   6.330  17.321  0.00  0.00    +0.000 A 
ATOM     11  C   UNL     1       7.142   5.868  16.019  0.00  0.00    +0.000 A 
ATOM     12  C   UNL     1       6.427   4.725  15.724  0.00  0.00    +0.000 A 
ATOM     13  C   UNL     1       6.439   4.133  14.349  0.00  0.00    +0.000 C 
ATOM     14  N   UNL     1       5.688   4.089  16.649  0.00  0.00    +0.000 NA
ATOM     15  C   UNL     1       5.665   4.601  17.891  0.00  0.00    +0.000 A 
ATOM     16  N   UNL     1       6.323   5.711  18.274  0.00  0.00    +0.000 NA
ENDBRANCH   8  15
ENDBRANCH   7   8
ENDBRANCH   1   7
BRANCH   4  17
ATOM     17  S   UNL     1       1.229   8.431  20.996  0.00  0.00    +0.000 S 
BRANCH  17  18
ATOM     18  C   UNL     1       1.231  10.109  20.239  0.00  0.00    +0.000 C 
BRANCH  18  19
ATOM     19  C   UNL     1      -0.176  10.563  19.922  0.00  0.00    +0.000 C 
ATOM     20  O   UNL     1      -0.923  10.974  20.829  0.00  0.00    +0.000 OA
ATOM     21  N   UNL     1      -0.519  10.427  18.598  0.00  0.00    +0.000 N 
ATOM     22  C   UNL     1      -1.779  10.768  18.205  0.00  0.00    +0.000 A 
ATOM     23  N   UNL     1      -2.635  11.526  18.841  0.00  0.00    +0.000 NA
ATOM     24  C   UNL     1      -3.849  11.489  18.200  0.00  0.00    +0.000 A 
ATOM     25  C   UNL     1      -3.889  10.708  17.065  0.00  0.00    +0.000 A 
ATOM     26  S   UNL     1      -2.318  10.079  16.746  0.00  0.00    +0.000 S 
ATOM     27  H   UNL     1       0.025   9.825  17.985  0.00  0.00    +0.000 HD
ENDBRANCH  18  19
ENDBRANCH  17  18
ENDBRANCH   4  17
TORSDOF 6
ENDMDL
MODEL 4
REMARK VINA RESULT:      -6.8      2.910      8.801
REMARK  Name = 
REMARK  9 active torsions:
REMARK  status: ('A' for Active; 'I' for Inactive)
REMARK    1  A    between atoms: C_1  and  C_2
REMARK    2  A    between atoms: C_4  and  C_5
REMARK    3  A    between atoms: C_7  and  S_8
REMARK    4  A    between atoms: S_8  and  C_9
REMARK    5  A    between atoms: C_9  and  C_10
REMARK    6  A    between atoms: C_13  and  S_14
REMARK    7  A    between atoms: S_14  and  C_15
REMARK    8  A    between atoms: C_15  and  C_16
REMARK    9  A    between atoms: N_24  and  C_25
REMARK                            x       y       z     vdW  Elec       q    Type
REMARK                         _______ _______ _______ _____ _____    ______ ____
ROOT
ATOM      1  C   UNL     1       2.106   4.833  19.275  0.00  0.00    +0.000 A 
ATOM      2  N   UNL     1       1.509   4.540  20.413  0.00  0.00    +0.000 NA
ATOM      3  N   UNL     1       1.259   5.711  21.085  0.00  0.00    +0.000 NA
ATOM      4  C   UNL     1       1.738   6.696  20.385  0.00  0.00    +0.000 A 
ATOM      5  N   UNL     1       2.306   6.204  19.219  0.00  0.00    +0.000 N 
ATOM      6  C   UNL     1       3.037   6.843  18.163  0.00  0.00    +0.000 C 
ENDROOT
BRANCH   1   7
ATOM      7  C   UNL     1       2.527   3.841  18.218  0.00  0.00    +0.000 C 
BRANCH   7   8
ATOM      8  S   UNL     1       4.043   2.982  18.755  0.00  0.00    +0.000 S 
BRANCH   8  15
ATOM      9  C   UNL     1       8.007   6.253  18.886  0.00  0.00    +0.000 C 
ATOM     10  C   UNL     1       7.047   5.435  18.071  0.00  0.00    +0.000 A 
ATOM     11  C   UNL     1       7.117   5.469  16.689  0.00  0.00    +0.000 A 
ATOM     12  C   UNL     1       6.206   4.689  16.008  0.00  0.00    +0.000 A 
ATOM     13  C   UNL     1       6.183   4.647  14.511  0.00  0.00    +0.000 C 
ATOM     14  N   UNL     1       5.299   3.931  16.647  0.00  0.00    +0.000 NA
ATOM     15  C   UNL     1       5.303   3.950  17.990  0.00  0.00    +0.000 A 
ATOM     16  N   UNL     1       6.146   4.681  18.743  0.00  0.00    +0.000 NA
ENDBRANCH   8  15
ENDBRANCH   7   8
ENDBRANCH   1   7
BRANCH   4  17
ATOM     17  S   UNL     1       1.562   8.367  20.836  0.00  0.00    +0.000 S 
BRANCH  17  18
ATOM     18  C   UNL     1      -0.114   8.545  21.576  0.00  0.00    +0.000 C 
BRANCH  18  19
ATOM     19  C   UNL     1      -0.266   9.886  22.258  0.00  0.00    +0.000 C 
ATOM     20  O   UNL     1       0.259  10.089  23.368  0.00  0.00    +0.000 OA
ATOM     21  N   UNL     1      -1.048  10.777  21.563  0.00  0.00    +0.000 N 
ATOM     22  C   UNL     1      -1.287  12.006  22.103  0.00  0.00    +0.000 A 
ATOM     23  N   UNL     1      -0.612  12.605  23.051  0.00  0.00    +0.000 NA
ATOM     24  C   UNL     1      -1.267  13.751  23.430  0.00  0.00    +0.000 A 
ATOM     25  C   UNL     1      -2.434  14.013  22.744  0.00  0.00    +0.000 A 
ATOM     26  S   UNL     1      -2.656  12.826  21.516  0.00  0.00    +0.000 S 
ATOM     27  H   UNL     1      -1.670  10.451  20.827  0.00  0.00    +0.000 HD
ENDBRANCH  18  19
ENDBRANCH  17  18
ENDBRANCH   4  17
TORSDOF 6
ENDMDL
MODEL 5
REMARK VINA RESULT:      -6.7      2.965      8.871
REMARK  Name = 
REMARK  9 active torsions:
REMARK  status: ('A' for Active; 'I' for Inactive)
REMARK    1  A    between atoms: C_1  and  C_2
REMARK    2  A    between atoms: C_4  and  C_5
REMARK    3  A    between atoms: C_7  and  S_8
REMARK    4  A    between atoms: S_8  and  C_9
REMARK    5  A    between atoms: C_9  and  C_10
REMARK    6  A    between atoms: C_13  and  S_14
REMARK    7  A    between atoms: S_14  and  C_15
REMARK    8  A    between atoms: C_15  and  C_16
REMARK    9  A    between atoms: N_24  and  C_25
REMARK                            x       y       z     vdW  Elec       q    Type
REMARK                         _______ _______ _______ _____ _____    ______ ____
ROOT
ATOM      1  C   UNL     1       2.264   5.004  19.293  0.00  0.00    +0.000 A 
ATOM      2  N   UNL     1       1.709   4.731  20.457  0.00  0.00    +0.000 NA
ATOM      3  N   UNL     1       1.348   5.914  21.053  0.00  0.00    +0.000 NA
ATOM      4  C   UNL     1       1.718   6.892  20.281  0.00  0.00    +0.000 A 
ATOM      5  N   UNL     1       2.323   6.381  19.141  0.00  0.00    +0.000 N 
ATOM      6  C   UNL     1       2.975   7.017  18.034  0.00  0.00    +0.000 C 
ENDROOT
BRANCH   1   7
ATOM      7  C   UNL     1       2.774   3.990  18.298  0.00  0.00    +0.000 C 
BRANCH   7   8
ATOM      8  S   UNL     1       4.431   3.419  18.803  0.00  0.00    +0.000 S 
BRANCH   8  15
ATOM      9  C   UNL     1       6.524   4.323  14.195  0.00  0.00    +0.000 C 
ATOM     10  C   UNL     1       6.424   4.682  15.649  0.00  0.00    +0.000 A 
ATOM     11  C   UNL     1       7.197   5.712  16.157  0.00  0.00    +0.000 A 
ATOM     12  C   UNL     1       7.048   5.988  17.501  0.00  0.00    +0.000 A 
ATOM     13  C   UNL     1       7.834   7.077  18.163  0.00  0.00    +0.000 C 
ATOM     14  N   UNL     1       6.195   5.299  18.279  0.00  0.00    +0.000 NA
ATOM     15  C   UNL     1       5.477   4.319  17.705  0.00  0.00    +0.000 A 
ATOM     16  N   UNL     1       5.556   3.972  16.407  0.00  0.00    +0.000 NA
ENDBRANCH   8  15
ENDBRANCH   7   8
ENDBRANCH   1   7
BRANCH   4  17
ATOM     17  S   UNL     1       1.377   8.563  20.621  0.00  0.00    +0.000 S 
BRANCH  17  18
ATOM     18  C   UNL     1      -0.109   8.593  21.708  0.00  0.00    +0.000 C 
BRANCH  18  19
ATOM     19  C   UNL     1      -0.292   9.955  22.339  0.00  0.00    +0.000 C 
ATOM     20  O   UNL     1      -0.034  10.128  23.544  0.00  0.00    +0.000 OA
ATOM     21  N   UNL     1      -0.794  10.903  21.480  0.00  0.00    +0.000 N 
ATOM     22  C   UNL     1      -1.037  12.158  21.951  0.00  0.00    +0.000 A 
ATOM     23  N   UNL     1      -0.557  12.709  23.037  0.00  0.00    +0.000 NA
ATOM     24  C   UNL     1      -1.172  13.919  23.251  0.00  0.00    +0.000 A 
ATOM     25  C   UNL     1      -2.107  14.276  22.304  0.00  0.00    +0.000 A 
ATOM     26  S   UNL     1      -2.139  13.093  21.053  0.00  0.00    +0.000 S 
ATOM     27  H   UNL     1      -1.247  10.623  20.613  0.00  0.00    +0.000 HD
ENDBRANCH  18  19
ENDBRANCH  17  18
ENDBRANCH   4  17
TORSDOF 6
ENDMDL
MODEL 6
REMARK VINA RESULT:      -6.7      5.624      8.425
REMARK  Name = 
REMARK  9 active torsions:
REMARK  status: ('A' for Active; 'I' for Inactive)
REMARK    1  A    between atoms: C_1  and  C_2
REMARK    2  A    between atoms: C_4  and  C_5
REMARK    3  A    between atoms: C_7  and  S_8
REMARK    4  A    between atoms: S_8  and  C_9
REMARK    5  A    between atoms: C_9  and  C_10
REMARK    6  A    between atoms: C_13  and  S_14
REMARK    7  A    between atoms: S_14  and  C_15
REMARK    8  A    between atoms: C_15  and  C_16
REMARK    9  A    between atoms: N_24  and  C_25
REMARK                            x       y       z     vdW  Elec       q    Type
REMARK                         _______ _______ _______ _____ _____    ______ ____
ROOT
ATOM      1  C   UNL     1       7.038   5.944  17.358  0.00  0.00    +0.000 A 
ATOM      2  N   UNL     1       6.788   6.896  16.483  0.00  0.00    +0.000 NA
ATOM      3  N   UNL     1       7.365   8.059  16.930  0.00  0.00    +0.000 NA
ATOM      4  C   UNL     1       7.919   7.824  18.083  0.00  0.00    +0.000 A 
ATOM      5  N   UNL     1       7.736   6.491  18.423  0.00  0.00    +0.000 N 
ATOM      6  C   UNL     1       8.064   5.749  19.606  0.00  0.00    +0.000 C 
ENDROOT
BRANCH   1   7
ATOM      7  C   UNL     1       6.613   4.500  17.238  0.00  0.00    +0.000 C 
BRANCH   7   8
ATOM      8  S   UNL     1       5.149   4.382  16.158  0.00  0.00    +0.000 S 
BRANCH   8  15
ATOM      9  C   UNL     1       2.373   7.062  19.556  0.00  0.00    +0.000 C 
ATOM     10  C   UNL     1       2.625   5.761  18.848  0.00  0.00    +0.000 A 
ATOM     11  C   UNL     1       1.835   4.661  19.132  0.00  0.00    +0.000 A 
ATOM     12  C   UNL     1       2.122   3.502  18.440  0.00  0.00    +0.000 A 
ATOM     13  C   UNL     1       1.338   2.246  18.665  0.00  0.00    +0.000 C 
ATOM     14  N   UNL     1       3.113   3.442  17.533  0.00  0.00    +0.000 NA
ATOM     15  C   UNL     1       3.827   4.558  17.312  0.00  0.00    +0.000 A 
ATOM     16  N   UNL     1       3.628   5.732  17.939  0.00  0.00    +0.000 NA
ENDBRANCH   8  15
ENDBRANCH   7   8
ENDBRANCH   1   7
BRANCH   4  17
ATOM     17  S   UNL     1       8.836   9.010  18.965  0.00  0.00    +0.000 S 
BRANCH  17  18
ATOM     18  C   UNL     1       8.841  10.544  17.947  0.00  0.00    +0.000 C 
BRANCH  18  19
ATOM     19  C   UNL     1       9.578  11.660  18.651  0.00  0.00    +0.000 C 
ATOM     20  O   UNL     1       9.527  11.763  19.891  0.00  0.00    +0.000 OA
ATOM     21  N   UNL     1      10.231  12.519  17.800  0.00  0.00    +0.000 N 
ATOM     22  C   UNL     1      10.897  13.587  18.323  0.00  0.00    +0.000 A 
ATOM     23  N   UNL     1      11.295  13.751  19.559  0.00  0.00    +0.000 NA
ATOM     24  C   UNL     1      11.777  15.027  19.723  0.00  0.00    +0.000 A 
ATOM     25  C   UNL     1      11.750  15.813  18.591  0.00  0.00    +0.000 A 
ATOM     26  S   UNL     1      11.191  14.880  17.257  0.00  0.00    +0.000 S 
ATOM     27  H   UNL     1       9.991  12.545  16.812  0.00  0.00    +0.000 HD
ENDBRANCH  18  19
ENDBRANCH  17  18
ENDBRANCH   4  17
TORSDOF 6
ENDMDL
MODEL 7
REMARK VINA RESULT:      -6.7      2.768      8.810
REMARK  Name = 
REMARK  9 active torsions:
REMARK  status: ('A' for Active; 'I' for Inactive)
REMARK    1  A    between atoms: C_1  and  C_2
REMARK    2  A    between atoms: C_4  and  C_5
REMARK    3  A    between atoms: C_7  and  S_8
REMARK    4  A    between atoms: S_8  and  C_9
REMARK    5  A    between atoms: C_9  and  C_10
REMARK    6  A    between atoms: C_13  and  S_14
REMARK    7  A    between atoms: S_14  and  C_15
REMARK    8  A    between atoms: C_15  and  C_16
REMARK    9  A    between atoms: N_24  and  C_25
REMARK                            x       y       z     vdW  Elec       q    Type
REMARK                         _______ _______ _______ _____ _____    ______ ____
ROOT
ATOM      1  C   UNL     1       2.394   4.975  18.518  0.00  0.00    +0.000 A 
ATOM      2  N   UNL     1       2.781   6.028  17.826  0.00  0.00    +0.000 NA
ATOM      3  N   UNL     1       2.549   7.151  18.581  0.00  0.00    +0.000 NA
ATOM      4  C   UNL     1       1.989   6.787  19.696  0.00  0.00    +0.000 A 
ATOM      5  N   UNL     1       1.848   5.407  19.716  0.00  0.00    +0.000 N 
ATOM      6  C   UNL     1       1.224   4.519  20.654  0.00  0.00    +0.000 C 
ENDROOT
BRANCH   1   7
ATOM      7  C   UNL     1       2.502   3.537  18.070  0.00  0.00    +0.000 C 
BRANCH   7   8
ATOM      8  S   UNL     1       4.029   2.801  18.742  0.00  0.00    +0.000 S 
BRANCH   8  15
ATOM      9  C   UNL     1       6.570   4.537  14.624  0.00  0.00    +0.000 C 
ATOM     10  C   UNL     1       6.417   4.509  16.117  0.00  0.00    +0.000 A 
ATOM     11  C   UNL     1       7.296   5.226  16.911  0.00  0.00    +0.000 A 
ATOM     12  C   UNL     1       7.091   5.156  18.274  0.00  0.00    +0.000 A 
ATOM     13  C   UNL     1       7.981   5.885  19.233  0.00  0.00    +0.000 C 
ATOM     14  N   UNL     1       6.090   4.435  18.807  0.00  0.00    +0.000 NA
ATOM     15  C   UNL     1       5.277   3.775  17.965  0.00  0.00    +0.000 A 
ATOM     16  N   UNL     1       5.399   3.777  16.625  0.00  0.00    +0.000 NA
ENDBRANCH   8  15
ENDBRANCH   7   8
ENDBRANCH   1   7
BRANCH   4  17
ATOM     17  S   UNL     1       1.601   7.895  20.980  0.00  0.00    +0.000 S 
BRANCH  17  18
ATOM     18  C   UNL     1       0.856   9.383  20.192  0.00  0.00    +0.000 C 
BRANCH  18  19
ATOM     19  C   UNL     1       0.410  10.382  21.236  0.00  0.00    +0.000 C 
ATOM     20  O   UNL     1       0.868  10.331  22.391  0.00  0.00    +0.000 OA
ATOM     21  N   UNL     1      -0.541  11.267  20.787  0.00  0.00    +0.000 N 
ATOM     22  C   UNL     1      -1.046  12.190  21.654  0.00  0.00    +0.000 A 
ATOM     23  N   UNL     1      -0.526  12.586  22.788  0.00  0.00    +0.000 NA
ATOM     24  C   UNL     1      -1.419  13.397  23.445  0.00  0.00    +0.000 A 
ATOM     25  C   UNL     1      -2.608  13.617  22.784  0.00  0.00    +0.000 A 
ATOM     26  S   UNL     1      -2.556  12.855  21.241  0.00  0.00    +0.000 S 
ATOM     27  H   UNL     1      -1.070  11.068  19.941  0.00  0.00    +0.000 HD
ENDBRANCH  18  19
ENDBRANCH  17  18
ENDBRANCH   4  17
TORSDOF 6
ENDMDL
MODEL 8
REMARK VINA RESULT:      -6.7      1.244      2.010
REMARK  Name = 
REMARK  9 active torsions:
REMARK  status: ('A' for Active; 'I' for Inactive)
REMARK    1  A    between atoms: C_1  and  C_2
REMARK    2  A    between atoms: C_4  and  C_5
REMARK    3  A    between atoms: C_7  and  S_8
REMARK    4  A    between atoms: S_8  and  C_9
REMARK    5  A    between atoms: C_9  and  C_10
REMARK    6  A    between atoms: C_13  and  S_14
REMARK    7  A    between atoms: S_14  and  C_15
REMARK    8  A    between atoms: C_15  and  C_16
REMARK    9  A    between atoms: N_24  and  C_25
REMARK                            x       y       z     vdW  Elec       q    Type
REMARK                         _______ _______ _______ _____ _____    ______ ____
ROOT
ATOM      1  C   UNL     1       1.883   6.297  20.003  0.00  0.00    +0.000 A 
ATOM      2  N   UNL     1       1.299   5.475  20.852  0.00  0.00    +0.000 NA
ATOM      3  N   UNL     1       1.278   4.220  20.295  0.00  0.00    +0.000 NA
ATOM      4  C   UNL     1       1.802   4.289  19.108  0.00  0.00    +0.000 A 
ATOM      5  N   UNL     1       2.199   5.594  18.851  0.00  0.00    +0.000 N 
ATOM      6  C   UNL     1       2.742   6.219  17.679  0.00  0.00    +0.000 C 
ENDROOT
BRANCH   1   7
ATOM      7  C   UNL     1       2.142   7.766  20.233  0.00  0.00    +0.000 C 
BRANCH   7   8
ATOM      8  S   UNL     1       1.067   8.374  21.574  0.00  0.00    +0.000 S 
BRANCH   8  15
ATOM      9  C   UNL     1      -1.644  10.732  17.896  0.00  0.00    +0.000 C 
ATOM     10  C   UNL     1      -0.852  10.832  19.168  0.00  0.00    +0.000 A 
ATOM     11  C   UNL     1      -0.655  12.068  19.758  0.00  0.00    +0.000 A 
ATOM     12  C   UNL     1       0.079  12.082  20.927  0.00  0.00    +0.000 A 
ATOM     13  C   UNL     1       0.361  13.360  21.654  0.00  0.00    +0.000 C 
ATOM     14  N   UNL     1       0.574  10.956  21.470  0.00  0.00    +0.000 NA
ATOM     15  C   UNL     1       0.331   9.797  20.836  0.00  0.00    +0.000 A 
ATOM     16  N   UNL     1      -0.368   9.682  19.692  0.00  0.00    +0.000 NA
ENDBRANCH   8  15
ENDBRANCH   7   8
ENDBRANCH   1   7
BRANCH   4  17
ATOM     17  S   UNL     1       2.048   2.903  18.086  0.00  0.00    +0.000 S 
BRANCH  17  18
ATOM     18  C   UNL     1       3.572   2.063  18.686  0.00  0.00    +0.000 C 
BRANCH  18  19
ATOM     19  C   UNL     1       4.666   3.066  18.975  0.00  0.00    +0.000 C 
ATOM     20  O   UNL     1       4.985   3.327  20.149  0.00  0.00    +0.000 OA
ATOM     21  N   UNL     1       5.195   3.651  17.849  0.00  0.00    +0.000 N 
ATOM     22  C   UNL     1       6.162   4.601  17.991  0.00  0.00    +0.000 A 
ATOM     23  N   UNL     1       6.915   4.822  19.039  0.00  0.00    +0.000 NA
ATOM     24  C   UNL     1       7.643   5.971  18.848  0.00  0.00    +0.000 A 
ATOM     25  C   UNL     1       7.440   6.600  17.639  0.00  0.00    +0.000 A 
ATOM     26  S   UNL     1       6.370   5.658  16.674  0.00  0.00    +0.000 S 
ATOM     27  H   UNL     1       4.695   3.608  16.964  0.00  0.00    +0.000 HD
ENDBRANCH  18  19
ENDBRANCH  17  18
ENDBRANCH   4  17
TORSDOF 6
ENDMDL
MODEL 9
REMARK VINA RESULT:      -6.7      4.636      7.307
REMARK  Name = 
REMARK  9 active torsions:
REMARK  status: ('A' for Active; 'I' for Inactive)
REMARK    1  A    between atoms: C_1  and  C_2
REMARK    2  A    between atoms: C_4  and  C_5
REMARK    3  A    between atoms: C_7  and  S_8
REMARK    4  A    between atoms: S_8  and  C_9
REMARK    5  A    between atoms: C_9  and  C_10
REMARK    6  A    between atoms: C_13  and  S_14
REMARK    7  A    between atoms: S_14  and  C_15
REMARK    8  A    between atoms: C_15  and  C_16
REMARK    9  A    between atoms: N_24  and  C_25
REMARK                            x       y       z     vdW  Elec       q    Type
REMARK                         _______ _______ _______ _____ _____    ______ ____
ROOT
ATOM      1  C   UNL     1       5.961   4.707  17.028  0.00  0.00    +0.000 A 
ATOM      2  N   UNL     1       6.414   5.295  15.939  0.00  0.00    +0.000 NA
ATOM      3  N   UNL     1       7.246   6.321  16.315  0.00  0.00    +0.000 NA
ATOM      4  C   UNL     1       7.262   6.381  17.613  0.00  0.00    +0.000 A 
ATOM      5  N   UNL     1       6.449   5.384  18.134  0.00  0.00    +0.000 N 
ATOM      6  C   UNL     1       6.054   5.072  19.478  0.00  0.00    +0.000 C 
ENDROOT
BRANCH   1   7
ATOM      7  C   UNL     1       5.041   3.510  17.067  0.00  0.00    +0.000 C 
BRANCH   7   8
ATOM      8  S   UNL     1       3.331   4.043  16.725  0.00  0.00    +0.000 S 
BRANCH   8  15
ATOM      9  C   UNL     1       1.963   7.655  20.118  0.00  0.00    +0.000 C 
ATOM     10  C   UNL     1       2.214   6.204  19.822  0.00  0.00    +0.000 A 
ATOM     11  C   UNL     1       2.060   5.263  20.824  0.00  0.00    +0.000 A 
ATOM     12  C   UNL     1       2.304   3.949  20.477  0.00  0.00    +0.000 A 
ATOM     13  C   UNL     1       2.173   2.843  21.478  0.00  0.00    +0.000 C 
ATOM     14  N   UNL     1       2.667   3.598  19.232  0.00  0.00    +0.000 NA
ATOM     15  C   UNL     1       2.788   4.574  18.317  0.00  0.00    +0.000 A 
ATOM     16  N   UNL     1       2.577   5.881  18.559  0.00  0.00    +0.000 NA
ENDBRANCH   8  15
ENDBRANCH   7   8
ENDBRANCH   1   7
BRANCH   4  17
ATOM     17  S   UNL     1       8.258   7.490  18.510  0.00  0.00    +0.000 S 
BRANCH  17  18
ATOM     18  C   UNL     1       7.977   9.160  17.787  0.00  0.00    +0.000 C 
BRANCH  18  19
ATOM     19  C   UNL     1       8.807  10.205  18.499  0.00  0.00    +0.000 C 
ATOM     20  O   UNL     1       9.397   9.924  19.558  0.00  0.00    +0.000 OA
ATOM     21  N   UNL     1       8.787  11.438  17.892  0.00  0.00    +0.000 N 
ATOM     22  C   UNL     1       9.469  12.468  18.468  0.00  0.00    +0.000 A 
ATOM     23  N   UNL     1      10.426  12.392  19.358  0.00  0.00    +0.000 NA
ATOM     24  C   UNL     1      10.735  13.651  19.812  0.00  0.00    +0.000 A 
ATOM     25  C   UNL     1      10.009  14.674  19.240  0.00  0.00    +0.000 A 
ATOM     26  S   UNL     1       8.974  14.033  18.022  0.00  0.00    +0.000 S 
ATOM     27  H   UNL     1       8.066  11.665  17.212  0.00  0.00    +0.000 HD
ENDBRANCH  18  19
ENDBRANCH  17  18
ENDBRANCH   4  17
TORSDOF 6
ENDMDL
