MODEL 1
REMARK VINA RESULT:      -8.2      0.000      0.000
REMARK  Name = 
REMARK  8 active torsions:
REMARK  status: ('A' for Active; 'I' for Inactive)
REMARK    1  A    between atoms: C_1  and  O_2
REMARK    2  A    between atoms: O_2  and  C_3
REMARK    3  A    between atoms: C_7  and  C_8
REMARK    4  A    between atoms: C_10  and  N_11
REMARK    5  A    between atoms: N_11  and  C_12
REMARK    6  A    between atoms: C_13  and  C_15
REMARK    7  A    between atoms: C_18  and  C_19
REMARK    8  A    between atoms: C_19  and  O_21
REMARK                            x       y       z     vdW  Elec       q    Type
REMARK                         _______ _______ _______ _____ _____    ______ ____
ROOT
ATOM      1  N   UNL     1       3.131   3.880  20.077  0.00  0.00    +0.000 N 
ATOM      2  C   UNL     1       2.502   3.254  21.237  0.00  0.00    +0.000 C 
ATOM      3  C   UNL     1       4.265   3.222  19.556  0.00  0.00    +0.000 C 
ATOM      4  O   UNL     1       4.762   2.223  20.078  0.00  0.00    +0.000 OA
ENDROOT
BRANCH   3   5
ATOM      5  C   UNL     1       4.920   3.710  18.312  0.00  0.00    +0.000 A 
ATOM      6  C   UNL     1       6.174   4.336  18.399  0.00  0.00    +0.000 A 
ATOM      7  C   UNL     1       6.859   4.725  17.239  0.00  0.00    +0.000 A 
ATOM      8  C   UNL     1       6.278   4.516  15.981  0.00  0.00    +0.000 A 
ATOM      9  C   UNL     1       5.044   3.862  15.894  0.00  0.00    +0.000 A 
ATOM     10  C   UNL     1       4.396   3.427  17.051  0.00  0.00    +0.000 A 
BRANCH   8  11
ATOM     11  C   UNL     1       6.957   4.865  14.709  0.00  0.00    +0.000 C 
ATOM     12  O   UNL     1       7.885   5.659  14.653  0.00  0.00    +0.000 OA
BRANCH  11  13
ATOM     13  O   UNL     1       6.497   4.198  13.630  0.00  0.00    +0.000 OA
ATOM     14  H   UNL     1       7.158   3.665  13.155  0.00  0.00    +0.000 HD
ENDBRANCH  11  13
ENDBRANCH   8  11
ENDBRANCH   3   5
BRANCH   1  17
ATOM     15  C   UNL     1       2.872   6.928  18.338  0.00  0.00    +0.000 C 
ATOM     16  C   UNL     1       3.849   6.277  19.362  0.00  0.00    +0.000 C 
ATOM     17  C   UNL     1       2.715   5.275  19.713  0.00  0.00    +0.000 C 
ATOM     18  C   UNL     1       2.223   5.515  18.253  0.00  0.00    +0.000 C 
BRANCH  15  23
ATOM     19  C   UNL     1       0.690   9.393  20.508  0.00  0.00    +0.000 A 
ATOM     20  C   UNL     1       0.214  10.269  19.535  0.00  0.00    +0.000 A 
ATOM     21  C   UNL     1       0.588  10.109  18.205  0.00  0.00    +0.000 A 
ATOM     22  C   UNL     1       1.434   9.060  17.846  0.00  0.00    +0.000 A 
ATOM     23  C   UNL     1       1.926   8.136  18.790  0.00  0.00    +0.000 A 
ATOM     24  C   UNL     1       1.543   8.350  20.132  0.00  0.00    +0.000 A 
BRANCH  19  26
ATOM     25  C   UNL     1      -0.271  10.950  22.026  0.00  0.00    +0.000 C 
ATOM     26  O   UNL     1       0.251   9.652  21.777  0.00  0.00    +0.000 OA
ENDBRANCH  19  26
ENDBRANCH  15  23
ENDBRANCH   1  17
TORSDOF 6
ENDMDL
MODEL 2
REMARK VINA RESULT:      -8.1      1.203      1.462
REMARK  Name = 
REMARK  8 active torsions:
REMARK  status: ('A' for Active; 'I' for Inactive)
REMARK    1  A    between atoms: C_1  and  O_2
REMARK    2  A    between atoms: O_2  and  C_3
REMARK    3  A    between atoms: C_7  and  C_8
REMARK    4  A    between atoms: C_10  and  N_11
REMARK    5  A    between atoms: N_11  and  C_12
REMARK    6  A    between atoms: C_13  and  C_15
REMARK    7  A    between atoms: C_18  and  C_19
REMARK    8  A    between atoms: C_19  and  O_21
REMARK                            x       y       z     vdW  Elec       q    Type
REMARK                         _______ _______ _______ _____ _____    ______ ____
ROOT
ATOM      1  N   UNL     1       1.912   3.446  19.233  0.00  0.00    +0.000 N 
ATOM      2  C   UNL     1       0.899   2.565  19.809  0.00  0.00    +0.000 C 
ATOM      3  C   UNL     1       3.070   2.814  18.731  0.00  0.00    +0.000 C 
ATOM      4  O   UNL     1       3.274   1.604  18.833  0.00  0.00    +0.000 OA
ENDROOT
BRANCH   3   5
ATOM      5  C   UNL     1       4.118   3.601  18.026  0.00  0.00    +0.000 A 
ATOM      6  C   UNL     1       5.260   4.008  18.733  0.00  0.00    +0.000 A 
ATOM      7  C   UNL     1       6.307   4.671  18.078  0.00  0.00    +0.000 A 
ATOM      8  C   UNL     1       6.204   4.958  16.710  0.00  0.00    +0.000 A 
ATOM      9  C   UNL     1       5.080   4.523  15.999  0.00  0.00    +0.000 A 
ATOM     10  C   UNL     1       4.070   3.813  16.649  0.00  0.00    +0.000 A 
BRANCH   8  11
ATOM     11  C   UNL     1       7.285   5.621  15.939  0.00  0.00    +0.000 C 
ATOM     12  O   UNL     1       7.676   5.203  14.858  0.00  0.00    +0.000 OA
BRANCH  11  13
ATOM     13  O   UNL     1       7.767   6.745  16.507  0.00  0.00    +0.000 OA
ATOM     14  H   UNL     1       7.596   6.837  17.461  0.00  0.00    +0.000 HD
ENDBRANCH  11  13
ENDBRANCH   8  11
ENDBRANCH   3   5
BRANCH   1  17
ATOM     15  C   UNL     1       2.709   6.869  19.418  0.00  0.00    +0.000 C 
ATOM     16  C   UNL     1       2.899   5.602  20.306  0.00  0.00    +0.000 C 
ATOM     17  C   UNL     1       1.782   4.922  19.466  0.00  0.00    +0.000 C 
ATOM     18  C   UNL     1       2.244   5.870  18.317  0.00  0.00    +0.000 C 
BRANCH  15  23
ATOM     19  C   UNL     1       0.095   8.994  21.464  0.00  0.00    +0.000 A 
ATOM     20  C   UNL     1      -0.193  10.018  20.564  0.00  0.00    +0.000 A 
ATOM     21  C   UNL     1       0.443  10.063  19.328  0.00  0.00    +0.000 A 
ATOM     22  C   UNL     1       1.362   9.071  18.987  0.00  0.00    +0.000 A 
ATOM     23  C   UNL     1       1.671   8.004  19.854  0.00  0.00    +0.000 A 
ATOM     24  C   UNL     1       1.023   8.011  21.109  0.00  0.00    +0.000 A 
BRANCH  19  26
ATOM     25  C   UNL     1      -0.886  10.354  23.151  0.00  0.00    +0.000 C 
ATOM     26  O   UNL     1      -0.594   9.058  22.644  0.00  0.00    +0.000 OA
ENDBRANCH  19  26
ENDBRANCH  15  23
ENDBRANCH   1  17
TORSDOF 6
ENDMDL
MODEL 3
REMARK VINA RESULT:      -8.1      1.197      1.619
REMARK  Name = 
REMARK  8 active torsions:
REMARK  status: ('A' for Active; 'I' for Inactive)
REMARK    1  A    between atoms: C_1  and  O_2
REMARK    2  A    between atoms: O_2  and  C_3
REMARK    3  A    between atoms: C_7  and  C_8
REMARK    4  A    between atoms: C_10  and  N_11
REMARK    5  A    between atoms: N_11  and  C_12
REMARK    6  A    between atoms: C_13  and  C_15
REMARK    7  A    between atoms: C_18  and  C_19
REMARK    8  A    between atoms: C_19  and  O_21
REMARK                            x       y       z     vdW  Elec       q    Type
REMARK                         _______ _______ _______ _____ _____    ______ ____
ROOT
ATOM      1  N   UNL     1       1.912   3.395  19.117  0.00  0.00    +0.000 N 
ATOM      2  C   UNL     1       0.834   2.572  19.659  0.00  0.00    +0.000 C 
ATOM      3  C   UNL     1       3.055   2.702  18.667  0.00  0.00    +0.000 C 
ATOM      4  O   UNL     1       3.195   1.484  18.786  0.00  0.00    +0.000 OA
ENDROOT
BRANCH   3   5
ATOM      5  C   UNL     1       4.168   3.429  17.998  0.00  0.00    +0.000 A 
ATOM      6  C   UNL     1       4.058   3.746  16.635  0.00  0.00    +0.000 A 
ATOM      7  C   UNL     1       5.046   4.509  15.997  0.00  0.00    +0.000 A 
ATOM      8  C   UNL     1       6.170   4.938  16.716  0.00  0.00    +0.000 A 
ATOM      9  C   UNL     1       6.263   4.650  18.082  0.00  0.00    +0.000 A 
ATOM     10  C   UNL     1       5.246   3.939  18.721  0.00  0.00    +0.000 A 
BRANCH   8  11
ATOM     11  C   UNL     1       7.237   5.781  16.122  0.00  0.00    +0.000 C 
ATOM     12  O   UNL     1       7.683   6.772  16.681  0.00  0.00    +0.000 OA
BRANCH  11  13
ATOM     13  O   UNL     1       7.704   5.337  14.937  0.00  0.00    +0.000 OA
ATOM     14  H   UNL     1       8.215   4.509  14.972  0.00  0.00    +0.000 HD
ENDBRANCH  11  13
ENDBRANCH   8  11
ENDBRANCH   3   5
BRANCH   1  17
ATOM     15  C   UNL     1       2.795   6.802  19.106  0.00  0.00    +0.000 C 
ATOM     16  C   UNL     1       3.088   5.549  19.985  0.00  0.00    +0.000 C 
ATOM     17  C   UNL     1       1.847   4.878  19.334  0.00  0.00    +0.000 C 
ATOM     18  C   UNL     1       2.153   5.793  18.108  0.00  0.00    +0.000 C 
BRANCH  15  23
ATOM     19  C   UNL     1       0.570   9.037  21.471  0.00  0.00    +0.000 A 
ATOM     20  C   UNL     1       0.155  10.037  20.595  0.00  0.00    +0.000 A 
ATOM     21  C   UNL     1       0.585  10.032  19.272  0.00  0.00    +0.000 A 
ATOM     22  C   UNL     1       1.424   9.013  18.822  0.00  0.00    +0.000 A 
ATOM     23  C   UNL     1       1.855   7.969  19.664  0.00  0.00    +0.000 A 
ATOM     24  C   UNL     1       1.417   8.027  21.005  0.00  0.00    +0.000 A 
BRANCH  19  26
ATOM     25  C   UNL     1      -0.774  10.255  23.009  0.00  0.00    +0.000 C 
ATOM     26  O   UNL     1       0.081   9.150  22.744  0.00  0.00    +0.000 OA
ENDBRANCH  19  26
ENDBRANCH  15  23
ENDBRANCH   1  17
TORSDOF 6
ENDMDL
MODEL 4
REMARK VINA RESULT:      -8.1      1.273      1.894
REMARK  Name = 
REMARK  8 active torsions:
REMARK  status: ('A' for Active; 'I' for Inactive)
REMARK    1  A    between atoms: C_1  and  O_2
REMARK    2  A    between atoms: O_2  and  C_3
REMARK    3  A    between atoms: C_7  and  C_8
REMARK    4  A    between atoms: C_10  and  N_11
REMARK    5  A    between atoms: N_11  and  C_12
REMARK    6  A    between atoms: C_13  and  C_15
REMARK    7  A    between atoms: C_18  and  C_19
REMARK    8  A    between atoms: C_19  and  O_21
REMARK                            x       y       z     vdW  Elec       q    Type
REMARK                         _______ _______ _______ _____ _____    ______ ____
ROOT
ATOM      1  N   UNL     1       2.096   3.218  19.051  0.00  0.00    +0.000 N 
ATOM      2  C   UNL     1       1.067   2.344  19.610  0.00  0.00    +0.000 C 
ATOM      3  C   UNL     1       3.266   2.581  18.588  0.00  0.00    +0.000 C 
ATOM      4  O   UNL     1       3.467   1.372  18.709  0.00  0.00    +0.000 OA
ENDROOT
BRANCH   3   5
ATOM      5  C   UNL     1       4.333   3.360  17.902  0.00  0.00    +0.000 A 
ATOM      6  C   UNL     1       4.156   3.729  16.560  0.00  0.00    +0.000 A 
ATOM      7  C   UNL     1       5.099   4.540  15.912  0.00  0.00    +0.000 A 
ATOM      8  C   UNL     1       6.244   4.965  16.600  0.00  0.00    +0.000 A 
ATOM      9  C   UNL     1       6.403   4.625  17.947  0.00  0.00    +0.000 A 
ATOM     10  C   UNL     1       5.430   3.865  18.599  0.00  0.00    +0.000 A 
BRANCH   8  11
ATOM     11  C   UNL     1       7.266   5.856  15.995  0.00  0.00    +0.000 C 
ATOM     12  O   UNL     1       7.690   6.852  16.562  0.00  0.00    +0.000 OA
BRANCH  11  13
ATOM     13  O   UNL     1       7.718   5.449  14.791  0.00  0.00    +0.000 OA
ATOM     14  H   UNL     1       8.301   6.077  14.329  0.00  0.00    +0.000 HD
ENDBRANCH  11  13
ENDBRANCH   8  11
ENDBRANCH   3   5
BRANCH   1  17
ATOM     15  C   UNL     1       1.955   6.351  20.649  0.00  0.00    +0.000 C 
ATOM     16  C   UNL     1       0.986   5.159  20.384  0.00  0.00    +0.000 C 
ATOM     17  C   UNL     1       1.960   4.697  19.264  0.00  0.00    +0.000 C 
ATOM     18  C   UNL     1       3.065   5.401  20.110  0.00  0.00    +0.000 C 
BRANCH  15  23
ATOM     19  C   UNL     1       0.853  10.025  19.741  0.00  0.00    +0.000 A 
ATOM     20  C   UNL     1       1.371  10.159  18.455  0.00  0.00    +0.000 A 
ATOM     21  C   UNL     1       2.085   9.115  17.876  0.00  0.00    +0.000 A 
ATOM     22  C   UNL     1       2.269   7.927  18.583  0.00  0.00    +0.000 A 
ATOM     23  C   UNL     1       1.747   7.737  19.878  0.00  0.00    +0.000 A 
ATOM     24  C   UNL     1       1.052   8.831  20.439  0.00  0.00    +0.000 A 
BRANCH  19  26
ATOM     25  C   UNL     1      -0.133  11.152  21.589  0.00  0.00    +0.000 C 
ATOM     26  O   UNL     1       0.171  11.118  20.200  0.00  0.00    +0.000 OA
ENDBRANCH  19  26
ENDBRANCH  15  23
ENDBRANCH   1  17
TORSDOF 6
ENDMDL
MODEL 5
REMARK VINA RESULT:      -7.9      1.914      2.566
REMARK  Name = 
REMARK  8 active torsions:
REMARK  status: ('A' for Active; 'I' for Inactive)
REMARK    1  A    between atoms: C_1  and  O_2
REMARK    2  A    between atoms: O_2  and  C_3
REMARK    3  A    between atoms: C_7  and  C_8
REMARK    4  A    between atoms: C_10  and  N_11
REMARK    5  A    between atoms: N_11  and  C_12
REMARK    6  A    between atoms: C_13  and  C_15
REMARK    7  A    between atoms: C_18  and  C_19
REMARK    8  A    between atoms: C_19  and  O_21
REMARK                            x       y       z     vdW  Elec       q    Type
REMARK                         _______ _______ _______ _____ _____    ______ ____
ROOT
ATOM      1  N   UNL     1       2.289   3.616  18.463  0.00  0.00    +0.000 N 
ATOM      2  C   UNL     1       1.262   2.577  18.449  0.00  0.00    +0.000 C 
ATOM      3  C   UNL     1       3.595   3.202  18.128  0.00  0.00    +0.000 C 
ATOM      4  O   UNL     1       3.894   2.026  17.912  0.00  0.00    +0.000 OA
ENDROOT
BRANCH   3   5
ATOM      5  C   UNL     1       4.697   4.194  18.006  0.00  0.00    +0.000 A 
ATOM      6  C   UNL     1       4.676   5.114  16.946  0.00  0.00    +0.000 A 
ATOM      7  C   UNL     1       5.649   6.119  16.853  0.00  0.00    +0.000 A 
ATOM      8  C   UNL     1       6.670   6.193  17.810  0.00  0.00    +0.000 A 
ATOM      9  C   UNL     1       6.671   5.298  18.885  0.00  0.00    +0.000 A 
ATOM     10  C   UNL     1       5.665   4.337  18.999  0.00  0.00    +0.000 A 
BRANCH   8  11
ATOM     11  C   UNL     1       7.711   7.251  17.802  0.00  0.00    +0.000 C 
ATOM     12  O   UNL     1       7.817   8.065  16.895  0.00  0.00    +0.000 OA
BRANCH  11  13
ATOM     13  O   UNL     1       8.498   7.268  18.897  0.00  0.00    +0.000 OA
ATOM     14  H   UNL     1       8.843   6.402  19.177  0.00  0.00    +0.000 HD
ENDBRANCH  11  13
ENDBRANCH   8  11
ENDBRANCH   3   5
BRANCH   1  17
ATOM     15  C   UNL     1       1.708   6.102  20.885  0.00  0.00    +0.000 C 
ATOM     16  C   UNL     1       0.915   4.923  20.246  0.00  0.00    +0.000 C 
ATOM     17  C   UNL     1       1.949   4.938  19.085  0.00  0.00    +0.000 C 
ATOM     18  C   UNL     1       2.942   5.504  20.146  0.00  0.00    +0.000 C 
BRANCH  15  23
ATOM     19  C   UNL     1       0.177   9.731  21.063  0.00  0.00    +0.000 A 
ATOM     20  C   UNL     1       0.611  10.272  19.854  0.00  0.00    +0.000 A 
ATOM     21  C   UNL     1       1.400   9.518  18.992  0.00  0.00    +0.000 A 
ATOM     22  C   UNL     1       1.746   8.212  19.336  0.00  0.00    +0.000 A 
ATOM     23  C   UNL     1       1.315   7.613  20.536  0.00  0.00    +0.000 A 
ATOM     24  C   UNL     1       0.538   8.422  21.395  0.00  0.00    +0.000 A 
BRANCH  19  26
ATOM     25  C   UNL     1      -0.818  10.187  23.174  0.00  0.00    +0.000 C 
ATOM     26  O   UNL     1      -0.592  10.568  21.823  0.00  0.00    +0.000 OA
ENDBRANCH  19  26
ENDBRANCH  15  23
ENDBRANCH   1  17
TORSDOF 6
ENDMDL
MODEL 6
REMARK VINA RESULT:      -7.9      1.460      2.171
REMARK  Name = 
REMARK  8 active torsions:
REMARK  status: ('A' for Active; 'I' for Inactive)
REMARK    1  A    between atoms: C_1  and  O_2
REMARK    2  A    between atoms: O_2  and  C_3
REMARK    3  A    between atoms: C_7  and  C_8
REMARK    4  A    between atoms: C_10  and  N_11
REMARK    5  A    between atoms: N_11  and  C_12
REMARK    6  A    between atoms: C_13  and  C_15
REMARK    7  A    between atoms: C_18  and  C_19
REMARK    8  A    between atoms: C_19  and  O_21
REMARK                            x       y       z     vdW  Elec       q    Type
REMARK                         _______ _______ _______ _____ _____    ______ ____
ROOT
ATOM      1  N   UNL     1       1.895   3.327  18.939  0.00  0.00    +0.000 N 
ATOM      2  C   UNL     1       0.807   2.479  19.418  0.00  0.00    +0.000 C 
ATOM      3  C   UNL     1       3.048   2.658  18.480  0.00  0.00    +0.000 C 
ATOM      4  O   UNL     1       3.187   1.435  18.545  0.00  0.00    +0.000 OA
ENDROOT
BRANCH   3   5
ATOM      5  C   UNL     1       4.174   3.417  17.871  0.00  0.00    +0.000 A 
ATOM      6  C   UNL     1       4.103   3.777  16.516  0.00  0.00    +0.000 A 
ATOM      7  C   UNL     1       5.103   4.570  15.935  0.00  0.00    +0.000 A 
ATOM      8  C   UNL     1       6.200   4.985  16.703  0.00  0.00    +0.000 A 
ATOM      9  C   UNL     1       6.253   4.654  18.060  0.00  0.00    +0.000 A 
ATOM     10  C   UNL     1       5.223   3.912  18.644  0.00  0.00    +0.000 A 
BRANCH   8  11
ATOM     11  C   UNL     1       7.276   5.857  16.170  0.00  0.00    +0.000 C 
ATOM     12  O   UNL     1       7.731   6.801  16.798  0.00  0.00    +0.000 OA
BRANCH  11  13
ATOM     13  O   UNL     1       7.739   5.492  14.957  0.00  0.00    +0.000 OA
ATOM     14  H   UNL     1       8.675   5.701  14.786  0.00  0.00    +0.000 HD
ENDBRANCH  11  13
ENDBRANCH   8  11
ENDBRANCH   3   5
BRANCH   1  17
ATOM     15  C   UNL     1       2.824   6.709  19.240  0.00  0.00    +0.000 C 
ATOM     16  C   UNL     1       2.967   5.405  20.083  0.00  0.00    +0.000 C 
ATOM     17  C   UNL     1       1.822   4.799  19.224  0.00  0.00    +0.000 C 
ATOM     18  C   UNL     1       2.316   5.768  18.107  0.00  0.00    +0.000 C 
BRANCH  15  23
ATOM     19  C   UNL     1       0.589   9.955  19.328  0.00  0.00    +0.000 A 
ATOM     20  C   UNL     1       0.102   9.920  20.633  0.00  0.00    +0.000 A 
ATOM     21  C   UNL     1       0.450   8.874  21.481  0.00  0.00    +0.000 A 
ATOM     22  C   UNL     1       1.298   7.866  21.025  0.00  0.00    +0.000 A 
ATOM     23  C   UNL     1       1.832   7.867  19.720  0.00  0.00    +0.000 A 
ATOM     24  C   UNL     1       1.433   8.933  18.883  0.00  0.00    +0.000 A 
BRANCH  19  26
ATOM     25  C   UNL     1      -1.218  11.151  18.346  0.00  0.00    +0.000 C 
ATOM     26  O   UNL     1       0.178  11.032  18.592  0.00  0.00    +0.000 OA
ENDBRANCH  19  26
ENDBRANCH  15  23
ENDBRANCH   1  17
TORSDOF 6
ENDMDL
MODEL 7
REMARK VINA RESULT:      -7.8      1.254      1.710
REMARK  Name = 
REMARK  8 active torsions:
REMARK  status: ('A' for Active; 'I' for Inactive)
REMARK    1  A    between atoms: C_1  and  O_2
REMARK    2  A    between atoms: O_2  and  C_3
REMARK    3  A    between atoms: C_7  and  C_8
REMARK    4  A    between atoms: C_10  and  N_11
REMARK    5  A    between atoms: N_11  and  C_12
REMARK    6  A    between atoms: C_13  and  C_15
REMARK    7  A    between atoms: C_18  and  C_19
REMARK    8  A    between atoms: C_19  and  O_21
REMARK                            x       y       z     vdW  Elec       q    Type
REMARK                         _______ _______ _______ _____ _____    ______ ____
ROOT
ATOM      1  N   UNL     1       1.991   3.292  18.943  0.00  0.00    +0.000 N 
ATOM      2  C   UNL     1       0.982   2.376  19.468  0.00  0.00    +0.000 C 
ATOM      3  C   UNL     1       3.152   2.696  18.409  0.00  0.00    +0.000 C 
ATOM      4  O   UNL     1       3.364   1.483  18.445  0.00  0.00    +0.000 OA
ENDROOT
BRANCH   3   5
ATOM      5  C   UNL     1       4.196   3.527  17.749  0.00  0.00    +0.000 A 
ATOM      6  C   UNL     1       5.368   3.843  18.456  0.00  0.00    +0.000 A 
ATOM      7  C   UNL     1       6.409   4.545  17.833  0.00  0.00    +0.000 A 
ATOM      8  C   UNL     1       6.272   4.964  16.503  0.00  0.00    +0.000 A 
ATOM      9  C   UNL     1       5.119   4.620  15.790  0.00  0.00    +0.000 A 
ATOM     10  C   UNL     1       4.112   3.871  16.401  0.00  0.00    +0.000 A 
BRANCH   8  11
ATOM     11  C   UNL     1       7.344   5.676  15.765  0.00  0.00    +0.000 C 
ATOM     12  O   UNL     1       7.757   5.302  14.677  0.00  0.00    +0.000 OA
BRANCH  11  13
ATOM     13  O   UNL     1       7.792   6.794  16.373  0.00  0.00    +0.000 OA
ATOM     14  H   UNL     1       8.672   6.723  16.783  0.00  0.00    +0.000 HD
ENDBRANCH  11  13
ENDBRANCH   8  11
ENDBRANCH   3   5
BRANCH   1  17
ATOM     15  C   UNL     1       2.021   6.333  20.715  0.00  0.00    +0.000 C 
ATOM     16  C   UNL     1       1.054   5.124  20.538  0.00  0.00    +0.000 C 
ATOM     17  C   UNL     1       1.851   4.753  19.257  0.00  0.00    +0.000 C 
ATOM     18  C   UNL     1       3.057   5.451  19.957  0.00  0.00    +0.000 C 
BRANCH  15  23
ATOM     19  C   UNL     1       0.548   9.944  20.135  0.00  0.00    +0.000 A 
ATOM     20  C   UNL     1       1.010  10.227  18.851  0.00  0.00    +0.000 A 
ATOM     21  C   UNL     1       1.800   9.306  18.173  0.00  0.00    +0.000 A 
ATOM     22  C   UNL     1       2.119   8.090  18.777  0.00  0.00    +0.000 A 
ATOM     23  C   UNL     1       1.659   7.749  20.064  0.00  0.00    +0.000 A 
ATOM     24  C   UNL     1       0.882   8.723  20.729  0.00  0.00    +0.000 A 
BRANCH  19  26
ATOM     25  C   UNL     1      -0.375  10.892  22.111  0.00  0.00    +0.000 C 
ATOM     26  O   UNL     1      -0.219  10.926  20.698  0.00  0.00    +0.000 OA
ENDBRANCH  19  26
ENDBRANCH  15  23
ENDBRANCH   1  17
TORSDOF 6
ENDMDL
MODEL 8
REMARK VINA RESULT:      -7.8      1.407      1.942
REMARK  Name = 
REMARK  8 active torsions:
REMARK  status: ('A' for Active; 'I' for Inactive)
REMARK    1  A    between atoms: C_1  and  O_2
REMARK    2  A    between atoms: O_2  and  C_3
REMARK    3  A    between atoms: C_7  and  C_8
REMARK    4  A    between atoms: C_10  and  N_11
REMARK    5  A    between atoms: N_11  and  C_12
REMARK    6  A    between atoms: C_13  and  C_15
REMARK    7  A    between atoms: C_18  and  C_19
REMARK    8  A    between atoms: C_19  and  O_21
REMARK                            x       y       z     vdW  Elec       q    Type
REMARK                         _______ _______ _______ _____ _____    ______ ____
ROOT
ATOM      1  N   UNL     1       1.903   3.433  19.131  0.00  0.00    +0.000 N 
ATOM      2  C   UNL     1       0.880   2.546  19.680  0.00  0.00    +0.000 C 
ATOM      3  C   UNL     1       3.056   2.805  18.614  0.00  0.00    +0.000 C 
ATOM      4  O   UNL     1       3.248   1.590  18.681  0.00  0.00    +0.000 OA
ENDROOT
BRANCH   3   5
ATOM      5  C   UNL     1       4.113   3.602  17.934  0.00  0.00    +0.000 A 
ATOM      6  C   UNL     1       5.246   3.998  18.661  0.00  0.00    +0.000 A 
ATOM      7  C   UNL     1       6.301   4.670  18.029  0.00  0.00    +0.000 A 
ATOM      8  C   UNL     1       6.215   4.978  16.664  0.00  0.00    +0.000 A 
ATOM      9  C   UNL     1       5.101   4.553  15.933  0.00  0.00    +0.000 A 
ATOM     10  C   UNL     1       4.082   3.834  16.560  0.00  0.00    +0.000 A 
BRANCH   8  11
ATOM     11  C   UNL     1       7.306   5.651  15.917  0.00  0.00    +0.000 C 
ATOM     12  O   UNL     1       7.709   5.251  14.834  0.00  0.00    +0.000 OA
BRANCH  11  13
ATOM     13  O   UNL     1       7.783   6.765  16.509  0.00  0.00    +0.000 OA
ATOM     14  H   UNL     1       7.119   7.316  16.960  0.00  0.00    +0.000 HD
ENDBRANCH  11  13
ENDBRANCH   8  11
ENDBRANCH   3   5
BRANCH   1  17
ATOM     15  C   UNL     1       2.725   6.845  19.395  0.00  0.00    +0.000 C 
ATOM     16  C   UNL     1       2.922   5.553  20.245  0.00  0.00    +0.000 C 
ATOM     17  C   UNL     1       1.786   4.903  19.407  0.00  0.00    +0.000 C 
ATOM     18  C   UNL     1       2.234   5.879  18.276  0.00  0.00    +0.000 C 
BRANCH  15  23
ATOM     19  C   UNL     1       0.454  10.065  19.521  0.00  0.00    +0.000 A 
ATOM     20  C   UNL     1      -0.084   9.973  20.803  0.00  0.00    +0.000 A 
ATOM     21  C   UNL     1       0.240   8.897  21.622  0.00  0.00    +0.000 A 
ATOM     22  C   UNL     1       1.117   7.915  21.161  0.00  0.00    +0.000 A 
ATOM     23  C   UNL     1       1.702   7.974  19.880  0.00  0.00    +0.000 A 
ATOM     24  C   UNL     1       1.326   9.069  19.071  0.00  0.00    +0.000 A 
BRANCH  19  26
ATOM     25  C   UNL     1      -0.732  12.126  19.499  0.00  0.00    +0.000 C 
ATOM     26  O   UNL     1       0.062  11.167  18.812  0.00  0.00    +0.000 OA
ENDBRANCH  19  26
ENDBRANCH  15  23
ENDBRANCH   1  17
TORSDOF 6
ENDMDL
MODEL 9
REMARK VINA RESULT:      -7.8      3.105      4.108
REMARK  Name = 
REMARK  8 active torsions:
REMARK  status: ('A' for Active; 'I' for Inactive)
REMARK    1  A    between atoms: C_1  and  O_2
REMARK    2  A    between atoms: O_2  and  C_3
REMARK    3  A    between atoms: C_7  and  C_8
REMARK    4  A    between atoms: C_10  and  N_11
REMARK    5  A    between atoms: N_11  and  C_12
REMARK    6  A    between atoms: C_13  and  C_15
REMARK    7  A    between atoms: C_18  and  C_19
REMARK    8  A    between atoms: C_19  and  O_21
REMARK                            x       y       z     vdW  Elec       q    Type
REMARK                         _______ _______ _______ _____ _____    ______ ____
ROOT
ATOM      1  N   UNL     1       5.507   4.889  16.983  0.00  0.00    +0.000 N 
ATOM      2  C   UNL     1       5.124   3.626  16.358  0.00  0.00    +0.000 C 
ATOM      3  C   UNL     1       6.892   5.122  17.116  0.00  0.00    +0.000 C 
ATOM      4  O   UNL     1       7.746   4.291  16.806  0.00  0.00    +0.000 OA
ENDROOT
BRANCH   3   5
ATOM      5  C   UNL     1       7.396   6.421  17.639  0.00  0.00    +0.000 A 
ATOM      6  C   UNL     1       8.103   6.443  18.852  0.00  0.00    +0.000 A 
ATOM      7  C   UNL     1       8.669   7.634  19.326  0.00  0.00    +0.000 A 
ATOM      8  C   UNL     1       8.506   8.822  18.601  0.00  0.00    +0.000 A 
ATOM      9  C   UNL     1       7.831   8.793  17.377  0.00  0.00    +0.000 A 
ATOM     10  C   UNL     1       7.320   7.591  16.885  0.00  0.00    +0.000 A 
BRANCH   8  11
ATOM     11  C   UNL     1       9.109  10.113  19.018  0.00  0.00    +0.000 C 
ATOM     12  O   UNL     1       9.284  10.411  20.191  0.00  0.00    +0.000 OA
BRANCH  11  13
ATOM     13  O   UNL     1       9.488  10.907  17.996  0.00  0.00    +0.000 OA
ATOM     14  H   UNL     1      10.435  11.131  17.970  0.00  0.00    +0.000 HD
ENDBRANCH  11  13
ENDBRANCH   8  11
ENDBRANCH   3   5
BRANCH   1  17
ATOM     15  C   UNL     1       2.846   5.743  19.124  0.00  0.00    +0.000 C 
ATOM     16  C   UNL     1       3.020   5.061  17.732  0.00  0.00    +0.000 C 
ATOM     17  C   UNL     1       4.440   5.690  17.671  0.00  0.00    +0.000 C 
ATOM     18  C   UNL     1       4.396   5.630  19.229  0.00  0.00    +0.000 C 
BRANCH  15  23
ATOM     19  C   UNL     1       1.087   9.000  20.478  0.00  0.00    +0.000 A 
ATOM     20  C   UNL     1       1.074   9.801  19.338  0.00  0.00    +0.000 A 
ATOM     21  C   UNL     1       1.634   9.339  18.151  0.00  0.00    +0.000 A 
ATOM     22  C   UNL     1       2.197   8.064  18.103  0.00  0.00    +0.000 A 
ATOM     23  C   UNL     1       2.216   7.209  19.223  0.00  0.00    +0.000 A 
ATOM     24  C   UNL     1       1.662   7.727  20.414  0.00  0.00    +0.000 A 
BRANCH  19  26
ATOM     25  C   UNL     1       0.005  10.887  21.440  0.00  0.00    +0.000 C 
ATOM     26  O   UNL     1       0.507   9.564  21.581  0.00  0.00    +0.000 OA
ENDBRANCH  19  26
ENDBRANCH  15  23
ENDBRANCH   1  17
TORSDOF 6
ENDMDL
