MODEL 1
REMARK VINA RESULT:      -7.7      0.000      0.000
REMARK  Name = 
REMARK  4 active torsions:
REMARK  status: ('A' for Active; 'I' for Inactive)
REMARK    1  A    between atoms: C_1  and  C_2
REMARK    2  A    between atoms: C_5  and  C_6
REMARK    3  A    between atoms: C_8  and  C_9
REMARK    4  A    between atoms: C_18  and  C_19
REMARK                            x       y       z     vdW  Elec       q    Type
REMARK                         _______ _______ _______ _____ _____    ______ ____
ROOT
ATOM      1  C   UNL     1       4.286   5.172  18.731  0.00  0.00    +0.000 A 
ATOM      2  C   UNL     1       3.677   6.429  18.668  0.00  0.00    +0.000 A 
ATOM      3  C   UNL     1       2.590   6.722  19.487  0.00  0.00    +0.000 A 
ATOM      4  N   UNL     1       2.126   5.827  20.394  0.00  0.00    +0.000 NA
ATOM      5  C   UNL     1       2.704   4.613  20.464  0.00  0.00    +0.000 A 
ATOM      6  N   UNL     1       2.086   3.718  21.337  0.00  0.00    +0.000 N 
ATOM      7  C   UNL     1       3.775   4.244  19.650  0.00  0.00    +0.000 A 
ATOM      8  H   UNL     1       1.379   4.217  21.871  0.00  0.00    +0.000 HD
ATOM      9  H   UNL     1       2.719   3.182  21.921  0.00  0.00    +0.000 HD
ENDROOT
BRANCH   1  14
ATOM     10  C   UNL     1       6.176   3.899  14.485  0.00  0.00    +0.000 C 
ATOM     11  C   UNL     1       6.268   4.280  15.907  0.00  0.00    +0.000 A 
ATOM     12  C   UNL     1       7.333   4.457  16.759  0.00  0.00    +0.000 A 
ATOM     13  C   UNL     1       6.786   4.850  18.001  0.00  0.00    +0.000 A 
ATOM     14  C   UNL     1       5.413   4.876  17.847  0.00  0.00    +0.000 A 
ATOM     15  O   UNL     1       5.097   4.534  16.559  0.00  0.00    +0.000 OA
ENDBRANCH   1  14
BRANCH   3  16
ATOM     16  C   UNL     1       1.841   7.991  19.387  0.00  0.00    +0.000 A 
ATOM     17  C   UNL     1       1.192   8.548  20.506  0.00  0.00    +0.000 A 
ATOM     18  C   UNL     1       0.509   9.763  20.422  0.00  0.00    +0.000 A 
ATOM     19  C   UNL     1       0.462  10.453  19.216  0.00  0.00    +0.000 A 
ATOM     20  C   UNL     1       1.095   9.925  18.093  0.00  0.00    +0.000 A 
ATOM     21  C   UNL     1       1.779   8.708  18.180  0.00  0.00    +0.000 A 
ENDBRANCH   3  16
BRANCH   7  22
ATOM     22  C   UNL     1       4.303   2.923  19.770  0.00  0.00    +0.000 C 
ATOM     23  N   UNL     1       4.724   1.849  19.921  0.00  0.00    +0.000 NA
ENDBRANCH   7  22
TORSDOF 3
ENDMDL
MODEL 2
REMARK VINA RESULT:      -7.7      0.056      1.051
REMARK  Name = 
REMARK  4 active torsions:
REMARK  status: ('A' for Active; 'I' for Inactive)
REMARK    1  A    between atoms: C_1  and  C_2
REMARK    2  A    between atoms: C_5  and  C_6
REMARK    3  A    between atoms: C_8  and  C_9
REMARK    4  A    between atoms: C_18  and  C_19
REMARK                            x       y       z     vdW  Elec       q    Type
REMARK                         _______ _______ _______ _____ _____    ______ ____
ROOT
ATOM      1  C   UNL     1       4.273   5.195  18.723  0.00  0.00    +0.000 A 
ATOM      2  C   UNL     1       3.671   6.456  18.651  0.00  0.00    +0.000 A 
ATOM      3  C   UNL     1       2.584   6.759  19.467  0.00  0.00    +0.000 A 
ATOM      4  N   UNL     1       2.113   5.871  20.378  0.00  0.00    +0.000 NA
ATOM      5  C   UNL     1       2.685   4.655  20.456  0.00  0.00    +0.000 A 
ATOM      6  N   UNL     1       2.060   3.767  21.332  0.00  0.00    +0.000 N 
ATOM      7  C   UNL     1       3.756   4.276  19.646  0.00  0.00    +0.000 A 
ATOM      8  H   UNL     1       1.354   4.273  21.861  0.00  0.00    +0.000 HD
ATOM      9  H   UNL     1       2.689   3.232  21.920  0.00  0.00    +0.000 HD
ENDROOT
BRANCH   1  14
ATOM     10  C   UNL     1       6.166   3.890  14.488  0.00  0.00    +0.000 C 
ATOM     11  C   UNL     1       6.257   4.278  15.909  0.00  0.00    +0.000 A 
ATOM     12  C   UNL     1       7.322   4.453  16.762  0.00  0.00    +0.000 A 
ATOM     13  C   UNL     1       6.773   4.856  18.001  0.00  0.00    +0.000 A 
ATOM     14  C   UNL     1       5.401   4.889  17.844  0.00  0.00    +0.000 A 
ATOM     15  O   UNL     1       5.086   4.541  16.557  0.00  0.00    +0.000 OA
ENDBRANCH   1  14
BRANCH   3  16
ATOM     16  C   UNL     1       1.842   8.031  19.358  0.00  0.00    +0.000 A 
ATOM     17  C   UNL     1       1.728   8.709  18.129  0.00  0.00    +0.000 A 
ATOM     18  C   UNL     1       1.002   9.897  18.017  0.00  0.00    +0.000 A 
ATOM     19  C   UNL     1       0.369  10.433  19.133  0.00  0.00    +0.000 A 
ATOM     20  C   UNL     1       0.466   9.784  20.361  0.00  0.00    +0.000 A 
ATOM     21  C   UNL     1       1.193   8.594  20.470  0.00  0.00    +0.000 A 
ENDBRANCH   3  16
BRANCH   7  22
ATOM     22  C   UNL     1       4.277   2.953  19.774  0.00  0.00    +0.000 C 
ATOM     23  N   UNL     1       4.746   1.895  19.901  0.00  0.00    +0.000 NA
ENDBRANCH   7  22
TORSDOF 3
ENDMDL
MODEL 3
REMARK VINA RESULT:      -7.5      1.004      1.022
REMARK  Name = 
REMARK  4 active torsions:
REMARK  status: ('A' for Active; 'I' for Inactive)
REMARK    1  A    between atoms: C_1  and  C_2
REMARK    2  A    between atoms: C_5  and  C_6
REMARK    3  A    between atoms: C_8  and  C_9
REMARK    4  A    between atoms: C_18  and  C_19
REMARK                            x       y       z     vdW  Elec       q    Type
REMARK                         _______ _______ _______ _____ _____    ______ ____
ROOT
ATOM      1  C   UNL     1       4.050   4.927  17.838  0.00  0.00    +0.000 A 
ATOM      2  C   UNL     1       3.646   6.250  18.042  0.00  0.00    +0.000 A 
ATOM      3  C   UNL     1       2.553   6.530  18.858  0.00  0.00    +0.000 A 
ATOM      4  N   UNL     1       1.886   5.545  19.510  0.00  0.00    +0.000 NA
ATOM      5  C   UNL     1       2.266   4.267  19.320  0.00  0.00    +0.000 A 
ATOM      6  N   UNL     1       1.451   3.315  19.932  0.00  0.00    +0.000 N 
ATOM      7  C   UNL     1       3.332   3.916  18.491  0.00  0.00    +0.000 A 
ATOM      8  H   UNL     1       0.786   3.793  20.535  0.00  0.00    +0.000 HD
ATOM      9  H   UNL     1       1.945   2.565  20.403  0.00  0.00    +0.000 HD
ENDROOT
BRANCH   1  14
ATOM     10  C   UNL     1       5.994   3.809  13.572  0.00  0.00    +0.000 C 
ATOM     11  C   UNL     1       6.067   4.127  15.011  0.00  0.00    +0.000 A 
ATOM     12  C   UNL     1       7.120   4.251  15.887  0.00  0.00    +0.000 A 
ATOM     13  C   UNL     1       6.557   4.599  17.136  0.00  0.00    +0.000 A 
ATOM     14  C   UNL     1       5.188   4.653  16.961  0.00  0.00    +0.000 A 
ATOM     15  O   UNL     1       4.889   4.371  15.654  0.00  0.00    +0.000 OA
ENDBRANCH   1  14
BRANCH   3  16
ATOM     16  C   UNL     1       2.016   7.895  19.023  0.00  0.00    +0.000 A 
ATOM     17  C   UNL     1       1.435   8.311  20.237  0.00  0.00    +0.000 A 
ATOM     18  C   UNL     1       0.953   9.611  20.407  0.00  0.00    +0.000 A 
ATOM     19  C   UNL     1       1.046  10.528  19.366  0.00  0.00    +0.000 A 
ATOM     20  C   UNL     1       1.616  10.145  18.155  0.00  0.00    +0.000 A 
ATOM     21  C   UNL     1       2.099   8.842  17.988  0.00  0.00    +0.000 A 
ENDBRANCH   3  16
BRANCH   7  22
ATOM     22  C   UNL     1       3.642   2.533  18.323  0.00  0.00    +0.000 C 
ATOM     23  N   UNL     1       3.849   1.400  18.157  0.00  0.00    +0.000 NA
ENDBRANCH   7  22
TORSDOF 3
ENDMDL
MODEL 4
REMARK VINA RESULT:      -7.3      3.784      5.864
REMARK  Name = 
REMARK  4 active torsions:
REMARK  status: ('A' for Active; 'I' for Inactive)
REMARK    1  A    between atoms: C_1  and  C_2
REMARK    2  A    between atoms: C_5  and  C_6
REMARK    3  A    between atoms: C_8  and  C_9
REMARK    4  A    between atoms: C_18  and  C_19
REMARK                            x       y       z     vdW  Elec       q    Type
REMARK                         _______ _______ _______ _____ _____    ______ ____
ROOT
ATOM      1  C   UNL     1       5.598   4.206  14.553  0.00  0.00    +0.000 A 
ATOM      2  C   UNL     1       4.639   3.897  15.524  0.00  0.00    +0.000 A 
ATOM      3  C   UNL     1       4.719   4.468  16.791  0.00  0.00    +0.000 A 
ATOM      4  N   UNL     1       5.685   5.367  17.103  0.00  0.00    +0.000 NA
ATOM      5  C   UNL     1       6.613   5.672  16.177  0.00  0.00    +0.000 A 
ATOM      6  N   UNL     1       7.636   6.509  16.623  0.00  0.00    +0.000 N 
ATOM      7  C   UNL     1       6.611   5.111  14.899  0.00  0.00    +0.000 A 
ATOM      8  H   UNL     1       7.399   6.848  17.552  0.00  0.00    +0.000 HD
ATOM      9  H   UNL     1       7.891   7.253  15.983  0.00  0.00    +0.000 HD
ENDROOT
BRANCH   1  14
ATOM     10  C   UNL     1       3.325   3.255  10.411  0.00  0.00    +0.000 C 
ATOM     11  C   UNL     1       4.457   3.138  11.350  0.00  0.00    +0.000 A 
ATOM     12  C   UNL     1       5.658   2.471  11.286  0.00  0.00    +0.000 A 
ATOM     13  C   UNL     1       6.338   2.763  12.490  0.00  0.00    +0.000 A 
ATOM     14  C   UNL     1       5.509   3.580  13.234  0.00  0.00    +0.000 A 
ATOM     15  O   UNL     1       4.358   3.815  12.530  0.00  0.00    +0.000 OA
ENDBRANCH   1  14
BRANCH   3  16
ATOM     16  C   UNL     1       3.801   4.097  17.887  0.00  0.00    +0.000 A 
ATOM     17  C   UNL     1       2.416   4.341  17.795  0.00  0.00    +0.000 A 
ATOM     18  C   UNL     1       1.541   3.964  18.817  0.00  0.00    +0.000 A 
ATOM     19  C   UNL     1       2.031   3.330  19.953  0.00  0.00    +0.000 A 
ATOM     20  C   UNL     1       3.395   3.077  20.070  0.00  0.00    +0.000 A 
ATOM     21  C   UNL     1       4.269   3.455  19.045  0.00  0.00    +0.000 A 
ENDBRANCH   3  16
BRANCH   7  22
ATOM     22  C   UNL     1       7.654   5.467  13.993  0.00  0.00    +0.000 C 
ATOM     23  N   UNL     1       8.494   5.810  13.264  0.00  0.00    +0.000 NA
ENDBRANCH   7  22
TORSDOF 3
ENDMDL
MODEL 5
REMARK VINA RESULT:      -7.3      3.735      5.837
REMARK  Name = 
REMARK  4 active torsions:
REMARK  status: ('A' for Active; 'I' for Inactive)
REMARK    1  A    between atoms: C_1  and  C_2
REMARK    2  A    between atoms: C_5  and  C_6
REMARK    3  A    between atoms: C_8  and  C_9
REMARK    4  A    between atoms: C_18  and  C_19
REMARK                            x       y       z     vdW  Elec       q    Type
REMARK                         _______ _______ _______ _____ _____    ______ ____
ROOT
ATOM      1  C   UNL     1       5.609   4.195  14.549  0.00  0.00    +0.000 A 
ATOM      2  C   UNL     1       4.658   3.879  15.525  0.00  0.00    +0.000 A 
ATOM      3  C   UNL     1       4.741   4.448  16.793  0.00  0.00    +0.000 A 
ATOM      4  N   UNL     1       5.705   5.351  17.101  0.00  0.00    +0.000 NA
ATOM      5  C   UNL     1       6.626   5.663  16.170  0.00  0.00    +0.000 A 
ATOM      6  N   UNL     1       7.646   6.505  16.612  0.00  0.00    +0.000 N 
ATOM      7  C   UNL     1       6.619   5.104  14.892  0.00  0.00    +0.000 A 
ATOM      8  H   UNL     1       7.413   6.840  17.543  0.00  0.00    +0.000 HD
ATOM      9  H   UNL     1       7.894   7.251  15.972  0.00  0.00    +0.000 HD
ENDROOT
BRANCH   1  14
ATOM     10  C   UNL     1       3.325   3.253  10.411  0.00  0.00    +0.000 C 
ATOM     11  C   UNL     1       4.459   3.133  11.347  0.00  0.00    +0.000 A 
ATOM     12  C   UNL     1       5.659   2.464  11.279  0.00  0.00    +0.000 A 
ATOM     13  C   UNL     1       6.342   2.754  12.482  0.00  0.00    +0.000 A 
ATOM     14  C   UNL     1       5.516   3.570  13.230  0.00  0.00    +0.000 A 
ATOM     15  O   UNL     1       4.364   3.808  12.528  0.00  0.00    +0.000 OA
ENDBRANCH   1  14
BRANCH   3  16
ATOM     16  C   UNL     1       3.831   4.070  17.892  0.00  0.00    +0.000 A 
ATOM     17  C   UNL     1       4.298   3.366  19.020  0.00  0.00    +0.000 A 
ATOM     18  C   UNL     1       3.445   3.033  20.075  0.00  0.00    +0.000 A 
ATOM     19  C   UNL     1       2.106   3.401  20.029  0.00  0.00    +0.000 A 
ATOM     20  C   UNL     1       1.617   4.098  18.927  0.00  0.00    +0.000 A 
ATOM     21  C   UNL     1       2.473   4.430  17.871  0.00  0.00    +0.000 A 
ENDBRANCH   3  16
BRANCH   7  22
ATOM     22  C   UNL     1       7.656   5.468  13.980  0.00  0.00    +0.000 C 
ATOM     23  N   UNL     1       8.500   5.814  13.258  0.00  0.00    +0.000 NA
ENDBRANCH   7  22
TORSDOF 3
ENDMDL
MODEL 6
REMARK VINA RESULT:      -7.1      1.197      1.937
REMARK  Name = 
REMARK  4 active torsions:
REMARK  status: ('A' for Active; 'I' for Inactive)
REMARK    1  A    between atoms: C_1  and  C_2
REMARK    2  A    between atoms: C_5  and  C_6
REMARK    3  A    between atoms: C_8  and  C_9
REMARK    4  A    between atoms: C_18  and  C_19
REMARK                            x       y       z     vdW  Elec       q    Type
REMARK                         _______ _______ _______ _____ _____    ______ ____
ROOT
ATOM      1  C   UNL     1       3.380   5.053  18.804  0.00  0.00    +0.000 A 
ATOM      2  C   UNL     1       3.040   6.367  19.142  0.00  0.00    +0.000 A 
ATOM      3  C   UNL     1       1.996   6.612  20.030  0.00  0.00    +0.000 A 
ATOM      4  N   UNL     1       1.319   5.599  20.624  0.00  0.00    +0.000 NA
ATOM      5  C   UNL     1       1.638   4.330  20.306  0.00  0.00    +0.000 A 
ATOM      6  N   UNL     1       0.812   3.358  20.870  0.00  0.00    +0.000 N 
ATOM      7  C   UNL     1       2.651   4.015  19.399  0.00  0.00    +0.000 A 
ATOM      8  H   UNL     1       0.194   3.804  21.543  0.00  0.00    +0.000 HD
ATOM      9  H   UNL     1       1.296   2.551  21.249  0.00  0.00    +0.000 HD
ENDROOT
BRANCH   1  14
ATOM     10  C   UNL     1       8.034   4.529  17.665  0.00  0.00    +0.000 C 
ATOM     11  C   UNL     1       6.596   4.593  17.339  0.00  0.00    +0.000 A 
ATOM     12  C   UNL     1       5.900   4.464  16.159  0.00  0.00    +0.000 A 
ATOM     13  C   UNL     1       4.533   4.597  16.490  0.00  0.00    +0.000 A 
ATOM     14  C   UNL     1       4.466   4.817  17.853  0.00  0.00    +0.000 A 
ATOM     15  O   UNL     1       5.733   4.806  18.373  0.00  0.00    +0.000 OA
ENDBRANCH   1  14
BRANCH   3  16
ATOM     16  C   UNL     1       1.524   7.977  20.339  0.00  0.00    +0.000 A 
ATOM     17  C   UNL     1       1.410   8.958  19.335  0.00  0.00    +0.000 A 
ATOM     18  C   UNL     1       0.935  10.240  19.620  0.00  0.00    +0.000 A 
ATOM     19  C   UNL     1       0.558  10.570  20.916  0.00  0.00    +0.000 A 
ATOM     20  C   UNL     1       0.659   9.620  21.929  0.00  0.00    +0.000 A 
ATOM     21  C   UNL     1       1.135   8.336  21.641  0.00  0.00    +0.000 A 
ENDBRANCH   3  16
BRANCH   7  22
ATOM     22  C   UNL     1       2.896   2.642  19.096  0.00  0.00    +0.000 C 
ATOM     23  N   UNL     1       3.108   1.537  18.798  0.00  0.00    +0.000 NA
ENDBRANCH   7  22
TORSDOF 3
ENDMDL
MODEL 7
REMARK VINA RESULT:      -7.1      1.255      1.718
REMARK  Name = 
REMARK  4 active torsions:
REMARK  status: ('A' for Active; 'I' for Inactive)
REMARK    1  A    between atoms: C_1  and  C_2
REMARK    2  A    between atoms: C_5  and  C_6
REMARK    3  A    between atoms: C_8  and  C_9
REMARK    4  A    between atoms: C_18  and  C_19
REMARK                            x       y       z     vdW  Elec       q    Type
REMARK                         _______ _______ _______ _____ _____    ______ ____
ROOT
ATOM      1  C   UNL     1       3.333   5.147  18.846  0.00  0.00    +0.000 A 
ATOM      2  C   UNL     1       2.982   6.446  19.228  0.00  0.00    +0.000 A 
ATOM      3  C   UNL     1       1.930   6.654  20.116  0.00  0.00    +0.000 A 
ATOM      4  N   UNL     1       1.255   5.616  20.669  0.00  0.00    +0.000 NA
ATOM      5  C   UNL     1       1.584   4.361  20.309  0.00  0.00    +0.000 A 
ATOM      6  N   UNL     1       0.760   3.365  20.832  0.00  0.00    +0.000 N 
ATOM      7  C   UNL     1       2.605   4.085  19.399  0.00  0.00    +0.000 A 
ATOM      8  H   UNL     1       0.134   3.783  21.515  0.00  0.00    +0.000 HD
ATOM      9  H   UNL     1       1.245   2.548  21.186  0.00  0.00    +0.000 HD
ENDROOT
BRANCH   1  14
ATOM     10  C   UNL     1       7.980   4.502  17.745  0.00  0.00    +0.000 C 
ATOM     11  C   UNL     1       6.556   4.671  17.401  0.00  0.00    +0.000 A 
ATOM     12  C   UNL     1       5.881   4.696  16.202  0.00  0.00    +0.000 A 
ATOM     13  C   UNL     1       4.515   4.864  16.520  0.00  0.00    +0.000 A 
ATOM     14  C   UNL     1       4.428   4.951  17.896  0.00  0.00    +0.000 A 
ATOM     15  O   UNL     1       5.680   4.824  18.436  0.00  0.00    +0.000 OA
ENDBRANCH   1  14
BRANCH   3  16
ATOM     16  C   UNL     1       1.446   8.004  20.470  0.00  0.00    +0.000 A 
ATOM     17  C   UNL     1       1.152   8.350  21.803  0.00  0.00    +0.000 A 
ATOM     18  C   UNL     1       0.723   9.634  22.145  0.00  0.00    +0.000 A 
ATOM     19  C   UNL     1       0.583  10.605  21.160  0.00  0.00    +0.000 A 
ATOM     20  C   UNL     1       0.867  10.291  19.834  0.00  0.00    +0.000 A 
ATOM     21  C   UNL     1       1.297   9.004  19.494  0.00  0.00    +0.000 A 
ENDBRANCH   3  16
BRANCH   7  22
ATOM     22  C   UNL     1       2.862   2.724  19.050  0.00  0.00    +0.000 C 
ATOM     23  N   UNL     1       3.018   1.609  18.758  0.00  0.00    +0.000 NA
ENDBRANCH   7  22
TORSDOF 3
ENDMDL
MODEL 8
REMARK VINA RESULT:      -7.0      3.732      5.841
REMARK  Name = 
REMARK  4 active torsions:
REMARK  status: ('A' for Active; 'I' for Inactive)
REMARK    1  A    between atoms: C_1  and  C_2
REMARK    2  A    between atoms: C_5  and  C_6
REMARK    3  A    between atoms: C_8  and  C_9
REMARK    4  A    between atoms: C_18  and  C_19
REMARK                            x       y       z     vdW  Elec       q    Type
REMARK                         _______ _______ _______ _____ _____    ______ ____
ROOT
ATOM      1  C   UNL     1       5.478   4.233  14.563  0.00  0.00    +0.000 A 
ATOM      2  C   UNL     1       4.545   3.931  15.560  0.00  0.00    +0.000 A 
ATOM      3  C   UNL     1       4.674   4.486  16.830  0.00  0.00    +0.000 A 
ATOM      4  N   UNL     1       5.666   5.364  17.122  0.00  0.00    +0.000 NA
ATOM      5  C   UNL     1       6.570   5.663  16.170  0.00  0.00    +0.000 A 
ATOM      6  N   UNL     1       7.621   6.476  16.592  0.00  0.00    +0.000 N 
ATOM      7  C   UNL     1       6.518   5.116  14.887  0.00  0.00    +0.000 A 
ATOM      8  H   UNL     1       7.420   6.809  17.532  0.00  0.00    +0.000 HD
ATOM      9  H   UNL     1       7.870   7.222  15.953  0.00  0.00    +0.000 HD
ENDROOT
BRANCH   1  14
ATOM     10  C   UNL     1       6.975   1.365  10.992  0.00  0.00    +0.000 C 
ATOM     11  C   UNL     1       6.036   2.321  11.608  0.00  0.00    +0.000 A 
ATOM     12  C   UNL     1       4.857   2.881  11.176  0.00  0.00    +0.000 A 
ATOM     13  C   UNL     1       4.402   3.708  12.228  0.00  0.00    +0.000 A 
ATOM     14  C   UNL     1       5.337   3.623  13.241  0.00  0.00    +0.000 A 
ATOM     15  O   UNL     1       6.335   2.765  12.862  0.00  0.00    +0.000 OA
ENDBRANCH   1  14
BRANCH   3  16
ATOM     16  C   UNL     1       3.783   4.120  17.950  0.00  0.00    +0.000 A 
ATOM     17  C   UNL     1       2.409   4.429  17.923  0.00  0.00    +0.000 A 
ATOM     18  C   UNL     1       1.559   4.058  18.967  0.00  0.00    +0.000 A 
ATOM     19  C   UNL     1       2.063   3.363  20.061  0.00  0.00    +0.000 A 
ATOM     20  C   UNL     1       3.417   3.044  20.113  0.00  0.00    +0.000 A 
ATOM     21  C   UNL     1       4.267   3.417  19.066  0.00  0.00    +0.000 A 
ENDBRANCH   3  16
BRANCH   7  22
ATOM     22  C   UNL     1       7.539   5.463  13.953  0.00  0.00    +0.000 C 
ATOM     23  N   UNL     1       8.409   5.742  13.231  0.00  0.00    +0.000 NA
ENDBRANCH   7  22
TORSDOF 3
ENDMDL
MODEL 9
REMARK VINA RESULT:      -7.0      3.692      5.801
REMARK  Name = 
REMARK  4 active torsions:
REMARK  status: ('A' for Active; 'I' for Inactive)
REMARK    1  A    between atoms: C_1  and  C_2
REMARK    2  A    between atoms: C_5  and  C_6
REMARK    3  A    between atoms: C_8  and  C_9
REMARK    4  A    between atoms: C_18  and  C_19
REMARK                            x       y       z     vdW  Elec       q    Type
REMARK                         _______ _______ _______ _____ _____    ______ ____
ROOT
ATOM      1  C   UNL     1       5.484   4.230  14.584  0.00  0.00    +0.000 A 
ATOM      2  C   UNL     1       4.553   3.916  15.580  0.00  0.00    +0.000 A 
ATOM      3  C   UNL     1       4.681   4.464  16.853  0.00  0.00    +0.000 A 
ATOM      4  N   UNL     1       5.669   5.345  17.149  0.00  0.00    +0.000 NA
ATOM      5  C   UNL     1       6.571   5.654  16.199  0.00  0.00    +0.000 A 
ATOM      6  N   UNL     1       7.618   6.470  16.625  0.00  0.00    +0.000 N 
ATOM      7  C   UNL     1       6.519   5.115  14.913  0.00  0.00    +0.000 A 
ATOM      8  H   UNL     1       7.417   6.795  17.567  0.00  0.00    +0.000 HD
ATOM      9  H   UNL     1       7.863   7.221  15.990  0.00  0.00    +0.000 HD
ENDROOT
BRANCH   1  14
ATOM     10  C   UNL     1       6.989   1.390  10.993  0.00  0.00    +0.000 C 
ATOM     11  C   UNL     1       6.047   2.339  11.616  0.00  0.00    +0.000 A 
ATOM     12  C   UNL     1       4.865   2.897  11.188  0.00  0.00    +0.000 A 
ATOM     13  C   UNL     1       4.408   3.716  12.246  0.00  0.00    +0.000 A 
ATOM     14  C   UNL     1       5.344   3.627  13.258  0.00  0.00    +0.000 A 
ATOM     15  O   UNL     1       6.346   2.776  12.873  0.00  0.00    +0.000 OA
ENDBRANCH   1  14
BRANCH   3  16
ATOM     16  C   UNL     1       3.793   4.086  17.972  0.00  0.00    +0.000 A 
ATOM     17  C   UNL     1       4.274   3.346  19.069  0.00  0.00    +0.000 A 
ATOM     18  C   UNL     1       3.444   3.012  20.142  0.00  0.00    +0.000 A 
ATOM     19  C   UNL     1       2.114   3.417  20.144  0.00  0.00    +0.000 A 
ATOM     20  C   UNL     1       1.612   4.150  19.072  0.00  0.00    +0.000 A 
ATOM     21  C   UNL     1       2.445   4.483  17.999  0.00  0.00    +0.000 A 
ENDBRANCH   3  16
BRANCH   7  22
ATOM     22  C   UNL     1       7.538   5.473  13.979  0.00  0.00    +0.000 C 
ATOM     23  N   UNL     1       8.399   5.724  13.237  0.00  0.00    +0.000 NA
ENDBRANCH   7  22
TORSDOF 3
ENDMDL
