MODEL 1
REMARK VINA RESULT:      -8.4      0.000      0.000
REMARK  Name = 
REMARK  7 active torsions:
REMARK  status: ('A' for Active; 'I' for Inactive)
REMARK    1  A    between atoms: C_2  and  C_3
REMARK    2  A    between atoms: C_7  and  C_8
REMARK    3  A    between atoms: C_16  and  C_17
REMARK    4  A    between atoms: C_17  and  N_18
REMARK    5  A    between atoms: N_18  and  C_19
REMARK    6  A    between atoms: C_19  and  C_20
REMARK    7  A    between atoms: C_24  and  N_25
REMARK                            x       y       z     vdW  Elec       q    Type
REMARK                         _______ _______ _______ _____ _____    ______ ____
ROOT
ATOM      1  O   UNL     1       2.226   8.570  17.105  0.00  0.00    +0.000 OA
ATOM      2  C   UNL     1       2.221   8.066  18.229  0.00  0.00    +0.000 C 
ATOM      3  N   UNL     1       1.681   8.712  19.350  0.00  0.00    +0.000 N 
ATOM      4  C   UNL     1       1.619   8.187  20.715  0.00  0.00    +0.000 C 
ATOM      5  C   UNL     1       0.211   8.212  21.272  0.00  0.00    +0.000 C 
ATOM      6  C   UNL     1      -0.406   9.604  21.186  0.00  0.00    +0.000 C 
ATOM      7  C   UNL     1      -0.314  10.118  19.739  0.00  0.00    +0.000 C 
ATOM      8  C   UNL     1       1.109  10.050  19.177  0.00  0.00    +0.000 C 
ENDROOT
BRANCH   2   9
ATOM      9  C   UNL     1       2.734   6.671  18.342  0.00  0.00    +0.000 A 
ATOM     10  C   UNL     1       3.899   6.336  17.643  0.00  0.00    +0.000 A 
ATOM     11  C   UNL     1       4.305   5.004  17.559  0.00  0.00    +0.000 A 
ATOM     12  C   UNL     1       3.520   3.999  18.127  0.00  0.00    +0.000 A 
ATOM     13  C   UNL     1       2.377   4.326  18.869  0.00  0.00    +0.000 A 
ATOM     14  C   UNL     1       2.055   5.680  19.055  0.00  0.00    +0.000 A 
BRANCH  13  15
ATOM     15  C   UNL     1       1.419   3.271  19.362  0.00  0.00    +0.000 C 
ATOM     16  F   UNL     1       0.612   3.684  20.375  0.00  0.00    +0.000 F 
ATOM     17  F   UNL     1       0.600   2.801  18.384  0.00  0.00    +0.000 F 
ATOM     18  F   UNL     1       2.085   2.178  19.840  0.00  0.00    +0.000 F 
ENDBRANCH  13  15
ENDBRANCH   2   9
BRANCH   6  19
ATOM     19  C   UNL     1       0.238  10.549  22.225  0.00  0.00    +0.000 C 
BRANCH  19  20
ATOM     20  N   UNL     1      -0.708  11.237  23.094  0.00  0.00    +0.000 NA
ATOM     21  H   UNL     1      -0.317  11.355  24.030  0.00  0.00    +0.000 HD
BRANCH  20  22
ATOM     22  C   UNL     1      -1.070  12.564  22.590  0.00  0.00    +0.000 C 
BRANCH  22  23
ATOM     23  C   UNL     1      -2.540  12.623  22.239  0.00  0.00    +0.000 A 
ATOM     24  C   UNL     1      -3.462  13.026  23.200  0.00  0.00    +0.000 A 
ATOM     25  C   UNL     1      -4.794  13.135  22.829  0.00  0.00    +0.000 A 
ATOM     26  C   UNL     1      -5.163  12.863  21.514  0.00  0.00    +0.000 A 
ATOM     27  C   UNL     1      -4.182  12.480  20.606  0.00  0.00    +0.000 A 
ATOM     28  N   UNL     1      -2.872  12.351  20.955  0.00  0.00    +0.000 NA
BRANCH  27  29
ATOM     29  N   UNL     1      -4.547  12.235  19.250  0.00  0.00    +0.000 N 
ATOM     30  C   UNL     1      -3.798  11.558  18.305  0.00  0.00    +0.000 A 
ATOM     31  C   UNL     1      -4.501  11.604  17.126  0.00  0.00    +0.000 A 
ATOM     32  C   UNL     1      -5.665  12.324  17.435  0.00  0.00    +0.000 A 
ATOM     33  N   UNL     1      -5.715  12.692  18.715  0.00  0.00    +0.000 NA
ENDBRANCH  27  29
ENDBRANCH  22  23
ENDBRANCH  20  22
ENDBRANCH  19  20
ENDBRANCH   6  19
TORSDOF 7
ENDMDL
MODEL 2
REMARK VINA RESULT:      -8.3      1.839      2.663
REMARK  Name = 
REMARK  7 active torsions:
REMARK  status: ('A' for Active; 'I' for Inactive)
REMARK    1  A    between atoms: C_2  and  C_3
REMARK    2  A    between atoms: C_7  and  C_8
REMARK    3  A    between atoms: C_16  and  C_17
REMARK    4  A    between atoms: C_17  and  N_18
REMARK    5  A    between atoms: N_18  and  C_19
REMARK    6  A    between atoms: C_19  and  C_20
REMARK    7  A    between atoms: C_24  and  N_25
REMARK                            x       y       z     vdW  Elec       q    Type
REMARK                         _______ _______ _______ _____ _____    ______ ____
ROOT
ATOM      1  O   UNL     1       2.197   8.776  17.063  0.00  0.00    +0.000 OA
ATOM      2  C   UNL     1       2.364   8.135  18.101  0.00  0.00    +0.000 C 
ATOM      3  N   UNL     1       1.851   8.546  19.340  0.00  0.00    +0.000 N 
ATOM      4  C   UNL     1       1.987   7.845  20.618  0.00  0.00    +0.000 C 
ATOM      5  C   UNL     1       0.646   7.598  21.278  0.00  0.00    +0.000 C 
ATOM      6  C   UNL     1      -0.152   8.887  21.436  0.00  0.00    +0.000 C 
ATOM      7  C   UNL     1      -0.265   9.593  20.074  0.00  0.00    +0.000 C 
ATOM      8  C   UNL     1       1.096   9.801  19.402  0.00  0.00    +0.000 C 
ENDROOT
BRANCH   2   9
ATOM      9  C   UNL     1       3.062   6.824  17.977  0.00  0.00    +0.000 A 
ATOM     10  C   UNL     1       4.316   6.799  17.358  0.00  0.00    +0.000 A 
ATOM     11  C   UNL     1       4.917   5.580  17.043  0.00  0.00    +0.000 A 
ATOM     12  C   UNL     1       4.242   4.384  17.298  0.00  0.00    +0.000 A 
ATOM     13  C   UNL     1       3.007   4.395  17.960  0.00  0.00    +0.000 A 
ATOM     14  C   UNL     1       2.478   5.623  18.388  0.00  0.00    +0.000 A 
BRANCH  13  15
ATOM     15  C   UNL     1       2.175   3.146  18.112  0.00  0.00    +0.000 C 
ATOM     16  F   UNL     1       2.458   2.425  19.229  0.00  0.00    +0.000 F 
ATOM     17  F   UNL     1       0.840   3.401  18.146  0.00  0.00    +0.000 F 
ATOM     18  F   UNL     1       2.360   2.293  17.061  0.00  0.00    +0.000 F 
ENDBRANCH  13  15
ENDBRANCH   2   9
BRANCH   6  19
ATOM     19  C   UNL     1       0.458   9.771  22.547  0.00  0.00    +0.000 C 
BRANCH  19  20
ATOM     20  N   UNL     1      -0.092  11.118  22.626  0.00  0.00    +0.000 NA
ATOM     21  H   UNL     1      -0.179  11.526  21.694  0.00  0.00    +0.000 HD
BRANCH  20  22
ATOM     22  C   UNL     1      -1.415  11.149  23.254  0.00  0.00    +0.000 C 
BRANCH  22  23
ATOM     23  C   UNL     1      -2.331  12.108  22.529  0.00  0.00    +0.000 A 
ATOM     24  C   UNL     1      -1.901  12.719  21.356  0.00  0.00    +0.000 A 
ATOM     25  C   UNL     1      -2.788  13.542  20.677  0.00  0.00    +0.000 A 
ATOM     26  C   UNL     1      -4.078  13.711  21.172  0.00  0.00    +0.000 A 
ATOM     27  C   UNL     1      -4.441  13.055  22.343  0.00  0.00    +0.000 A 
ATOM     28  N   UNL     1      -3.579  12.258  23.032  0.00  0.00    +0.000 NA
BRANCH  27  29
ATOM     29  N   UNL     1      -5.772  13.196  22.836  0.00  0.00    +0.000 N 
ATOM     30  C   UNL     1      -6.845  13.749  22.161  0.00  0.00    +0.000 A 
ATOM     31  C   UNL     1      -7.914  13.734  23.023  0.00  0.00    +0.000 A 
ATOM     32  C   UNL     1      -7.411  13.155  24.200  0.00  0.00    +0.000 A 
ATOM     33  N   UNL     1      -6.129  12.809  24.093  0.00  0.00    +0.000 NA
ENDBRANCH  27  29
ENDBRANCH  22  23
ENDBRANCH  20  22
ENDBRANCH  19  20
ENDBRANCH   6  19
TORSDOF 7
ENDMDL
MODEL 3
REMARK VINA RESULT:      -8.3      1.880      2.445
REMARK  Name = 
REMARK  7 active torsions:
REMARK  status: ('A' for Active; 'I' for Inactive)
REMARK    1  A    between atoms: C_2  and  C_3
REMARK    2  A    between atoms: C_7  and  C_8
REMARK    3  A    between atoms: C_16  and  C_17
REMARK    4  A    between atoms: C_17  and  N_18
REMARK    5  A    between atoms: N_18  and  C_19
REMARK    6  A    between atoms: C_19  and  C_20
REMARK    7  A    between atoms: C_24  and  N_25
REMARK                            x       y       z     vdW  Elec       q    Type
REMARK                         _______ _______ _______ _____ _____    ______ ____
ROOT
ATOM      1  O   UNL     1       2.437   8.407  17.152  0.00  0.00    +0.000 OA
ATOM      2  C   UNL     1       2.358   7.865  18.255  0.00  0.00    +0.000 C 
ATOM      3  N   UNL     1       1.808   8.502  19.377  0.00  0.00    +0.000 N 
ATOM      4  C   UNL     1       1.661   7.935  20.719  0.00  0.00    +0.000 C 
ATOM      5  C   UNL     1       0.234   8.023  21.221  0.00  0.00    +0.000 C 
ATOM      6  C   UNL     1      -0.299   9.449  21.162  0.00  0.00    +0.000 C 
ATOM      7  C   UNL     1      -0.119  10.008  19.740  0.00  0.00    +0.000 C 
ATOM      8  C   UNL     1       1.320   9.877  19.232  0.00  0.00    +0.000 C 
ENDROOT
BRANCH   2   9
ATOM      9  C   UNL     1       2.786   6.441  18.337  0.00  0.00    +0.000 A 
ATOM     10  C   UNL     1       3.896   6.039  17.586  0.00  0.00    +0.000 A 
ATOM     11  C   UNL     1       4.213   4.685  17.476  0.00  0.00    +0.000 A 
ATOM     12  C   UNL     1       3.392   3.726  18.072  0.00  0.00    +0.000 A 
ATOM     13  C   UNL     1       2.305   4.118  18.864  0.00  0.00    +0.000 A 
ATOM     14  C   UNL     1       2.078   5.487  19.073  0.00  0.00    +0.000 A 
BRANCH  13  15
ATOM     15  C   UNL     1       1.305   3.120  19.392  0.00  0.00    +0.000 C 
ATOM     16  F   UNL     1       1.866   2.038  19.993  0.00  0.00    +0.000 F 
ATOM     17  F   UNL     1       0.445   3.660  20.296  0.00  0.00    +0.000 F 
ATOM     18  F   UNL     1       0.520   2.623  18.390  0.00  0.00    +0.000 F 
ENDBRANCH  13  15
ENDBRANCH   2   9
BRANCH   6  19
ATOM     19  C   UNL     1       0.353  10.319  22.259  0.00  0.00    +0.000 C 
BRANCH  19  20
ATOM     20  N   UNL     1      -0.583  11.107  23.051  0.00  0.00    +0.000 NA
ATOM     21  H   UNL     1      -0.263  11.181  24.018  0.00  0.00    +0.000 HD
BRANCH  20  22
ATOM     22  C   UNL     1      -0.753  12.466  22.530  0.00  0.00    +0.000 C 
BRANCH  22  23
ATOM     23  C   UNL     1      -1.926  13.152  23.194  0.00  0.00    +0.000 A 
ATOM     24  C   UNL     1      -1.710  14.276  23.983  0.00  0.00    +0.000 A 
ATOM     25  C   UNL     1      -2.812  14.924  24.522  0.00  0.00    +0.000 A 
ATOM     26  C   UNL     1      -4.090  14.448  24.242  0.00  0.00    +0.000 A 
ATOM     27  C   UNL     1      -4.227  13.327  23.431  0.00  0.00    +0.000 A 
ATOM     28  N   UNL     1      -3.157  12.668  22.906  0.00  0.00    +0.000 NA
BRANCH  27  29
ATOM     29  N   UNL     1      -5.534  12.856  23.110  0.00  0.00    +0.000 N 
ATOM     30  C   UNL     1      -6.075  12.726  21.844  0.00  0.00    +0.000 A 
ATOM     31  C   UNL     1      -7.369  12.293  22.001  0.00  0.00    +0.000 A 
ATOM     32  C   UNL     1      -7.539  12.181  23.390  0.00  0.00    +0.000 A 
ATOM     33  N   UNL     1      -6.436  12.497  24.068  0.00  0.00    +0.000 NA
ENDBRANCH  27  29
ENDBRANCH  22  23
ENDBRANCH  20  22
ENDBRANCH  19  20
ENDBRANCH   6  19
TORSDOF 7
ENDMDL
MODEL 4
REMARK VINA RESULT:      -8.1      2.269      2.844
REMARK  Name = 
REMARK  7 active torsions:
REMARK  status: ('A' for Active; 'I' for Inactive)
REMARK    1  A    between atoms: C_2  and  C_3
REMARK    2  A    between atoms: C_7  and  C_8
REMARK    3  A    between atoms: C_16  and  C_17
REMARK    4  A    between atoms: C_17  and  N_18
REMARK    5  A    between atoms: N_18  and  C_19
REMARK    6  A    between atoms: C_19  and  C_20
REMARK    7  A    between atoms: C_24  and  N_25
REMARK                            x       y       z     vdW  Elec       q    Type
REMARK                         _______ _______ _______ _____ _____    ______ ____
ROOT
ATOM      1  O   UNL     1       2.703   7.990  17.108  0.00  0.00    +0.000 OA
ATOM      2  C   UNL     1       2.556   7.804  18.316  0.00  0.00    +0.000 C 
ATOM      3  N   UNL     1       1.869   8.701  19.146  0.00  0.00    +0.000 N 
ATOM      4  C   UNL     1       1.634   8.557  20.584  0.00  0.00    +0.000 C 
ATOM      5  C   UNL     1       0.165   8.671  20.935  0.00  0.00    +0.000 C 
ATOM      6  C   UNL     1      -0.446   9.962  20.402  0.00  0.00    +0.000 C 
ATOM      7  C   UNL     1      -0.170  10.076  18.892  0.00  0.00    +0.000 C 
ATOM      8  C   UNL     1       1.315   9.921  18.549  0.00  0.00    +0.000 C 
ENDROOT
BRANCH   2   9
ATOM      9  C   UNL     1       3.059   6.513  18.864  0.00  0.00    +0.000 A 
ATOM     10  C   UNL     1       4.290   6.033  18.401  0.00  0.00    +0.000 A 
ATOM     11  C   UNL     1       4.707   4.744  18.732  0.00  0.00    +0.000 A 
ATOM     12  C   UNL     1       3.872   3.912  19.481  0.00  0.00    +0.000 A 
ATOM     13  C   UNL     1       2.660   4.397  19.988  0.00  0.00    +0.000 A 
ATOM     14  C   UNL     1       2.316   5.738  19.757  0.00  0.00    +0.000 A 
BRANCH  13  15
ATOM     15  C   UNL     1       1.661   3.490  20.663  0.00  0.00    +0.000 C 
ATOM     16  F   UNL     1       1.810   3.407  22.011  0.00  0.00    +0.000 F 
ATOM     17  F   UNL     1       0.372   3.863  20.441  0.00  0.00    +0.000 F 
ATOM     18  F   UNL     1       1.758   2.209  20.198  0.00  0.00    +0.000 F 
ENDBRANCH  13  15
ENDBRANCH   2   9
BRANCH   6  19
ATOM     19  C   UNL     1       0.050  11.175  21.219  0.00  0.00    +0.000 C 
BRANCH  19  20
ATOM     20  N   UNL     1      -0.050  11.021  22.664  0.00  0.00    +0.000 NA
ATOM     21  H   UNL     1       0.320  11.845  23.140  0.00  0.00    +0.000 HD
BRANCH  20  22
ATOM     22  C   UNL     1      -1.431  10.828  23.113  0.00  0.00    +0.000 C 
BRANCH  22  23
ATOM     23  C   UNL     1      -2.107  12.158  23.359  0.00  0.00    +0.000 A 
ATOM     24  C   UNL     1      -1.341  13.316  23.437  0.00  0.00    +0.000 A 
ATOM     25  C   UNL     1      -1.995  14.529  23.596  0.00  0.00    +0.000 A 
ATOM     26  C   UNL     1      -3.386  14.555  23.647  0.00  0.00    +0.000 A 
ATOM     27  C   UNL     1      -4.085  13.357  23.546  0.00  0.00    +0.000 A 
ATOM     28  N   UNL     1      -3.460  12.155  23.408  0.00  0.00    +0.000 NA
BRANCH  27  29
ATOM     29  N   UNL     1      -5.510  13.380  23.562  0.00  0.00    +0.000 N 
ATOM     30  C   UNL     1      -6.318  14.477  23.330  0.00  0.00    +0.000 A 
ATOM     31  C   UNL     1      -7.617  14.064  23.499  0.00  0.00    +0.000 A 
ATOM     32  C   UNL     1      -7.516  12.704  23.830  0.00  0.00    +0.000 A 
ATOM     33  N   UNL     1      -6.254  12.275  23.851  0.00  0.00    +0.000 NA
ENDBRANCH  27  29
ENDBRANCH  22  23
ENDBRANCH  20  22
ENDBRANCH  19  20
ENDBRANCH   6  19
TORSDOF 7
ENDMDL
MODEL 5
REMARK VINA RESULT:      -7.9      0.652      1.094
REMARK  Name = 
REMARK  7 active torsions:
REMARK  status: ('A' for Active; 'I' for Inactive)
REMARK    1  A    between atoms: C_2  and  C_3
REMARK    2  A    between atoms: C_7  and  C_8
REMARK    3  A    between atoms: C_16  and  C_17
REMARK    4  A    between atoms: C_17  and  N_18
REMARK    5  A    between atoms: N_18  and  C_19
REMARK    6  A    between atoms: C_19  and  C_20
REMARK    7  A    between atoms: C_24  and  N_25
REMARK                            x       y       z     vdW  Elec       q    Type
REMARK                         _______ _______ _______ _____ _____    ______ ____
ROOT
ATOM      1  O   UNL     1       2.252   8.549  17.225  0.00  0.00    +0.000 OA
ATOM      2  C   UNL     1       2.212   8.115  18.377  0.00  0.00    +0.000 C 
ATOM      3  N   UNL     1       1.599   8.808  19.430  0.00  0.00    +0.000 N 
ATOM      4  C   UNL     1       1.492   8.367  20.822  0.00  0.00    +0.000 C 
ATOM      5  C   UNL     1       0.059   8.376  21.313  0.00  0.00    +0.000 C 
ATOM      6  C   UNL     1      -0.599   9.736  21.113  0.00  0.00    +0.000 C 
ATOM      7  C   UNL     1      -0.458  10.164  19.641  0.00  0.00    +0.000 C 
ATOM      8  C   UNL     1       0.991  10.113  19.148  0.00  0.00    +0.000 C 
ENDROOT
BRANCH   2   9
ATOM      9  C   UNL     1       2.765   6.749  18.601  0.00  0.00    +0.000 A 
ATOM     10  C   UNL     1       4.016   6.445  18.054  0.00  0.00    +0.000 A 
ATOM     11  C   UNL     1       4.484   5.131  18.067  0.00  0.00    +0.000 A 
ATOM     12  C   UNL     1       3.680   4.110  18.578  0.00  0.00    +0.000 A 
ATOM     13  C   UNL     1       2.445   4.409  19.169  0.00  0.00    +0.000 A 
ATOM     14  C   UNL     1       2.049   5.752  19.267  0.00  0.00    +0.000 A 
BRANCH  13  15
ATOM     15  C   UNL     1       1.481   3.327  19.587  0.00  0.00    +0.000 C 
ATOM     16  F   UNL     1       2.080   2.178  19.996  0.00  0.00    +0.000 F 
ATOM     17  F   UNL     1       0.658   3.714  20.599  0.00  0.00    +0.000 F 
ATOM     18  F   UNL     1       0.656   2.971  18.558  0.00  0.00    +0.000 F 
ENDBRANCH  13  15
ENDBRANCH   2   9
BRANCH   6  19
ATOM     19  C   UNL     1      -0.036  10.766  22.117  0.00  0.00    +0.000 C 
BRANCH  19  20
ATOM     20  N   UNL     1       0.236  12.083  21.555  0.00  0.00    +0.000 NA
ATOM     21  H   UNL     1      -0.029  12.114  20.569  0.00  0.00    +0.000 HD
BRANCH  20  22
ATOM     22  C   UNL     1      -0.491  13.149  22.248  0.00  0.00    +0.000 C 
BRANCH  22  23
ATOM     23  C   UNL     1      -1.984  12.922  22.165  0.00  0.00    +0.000 A 
ATOM     24  C   UNL     1      -2.759  13.010  23.317  0.00  0.00    +0.000 A 
ATOM     25  C   UNL     1      -4.134  12.864  23.198  0.00  0.00    +0.000 A 
ATOM     26  C   UNL     1      -4.694  12.659  21.940  0.00  0.00    +0.000 A 
ATOM     27  C   UNL     1      -3.855  12.598  20.833  0.00  0.00    +0.000 A 
ATOM     28  N   UNL     1      -2.503  12.722  20.931  0.00  0.00    +0.000 NA
BRANCH  27  29
ATOM     29  N   UNL     1      -4.426  12.425  19.538  0.00  0.00    +0.000 N 
ATOM     30  C   UNL     1      -5.646  12.909  19.104  0.00  0.00    +0.000 A 
ATOM     31  C   UNL     1      -5.822  12.464  17.817  0.00  0.00    +0.000 A 
ATOM     32  C   UNL     1      -4.666  11.717  17.539  0.00  0.00    +0.000 A 
ATOM     33  N   UNL     1      -3.809  11.703  18.559  0.00  0.00    +0.000 NA
ENDBRANCH  27  29
ENDBRANCH  22  23
ENDBRANCH  20  22
ENDBRANCH  19  20
ENDBRANCH   6  19
TORSDOF 7
ENDMDL
MODEL 6
REMARK VINA RESULT:      -7.9      2.623      3.199
REMARK  Name = 
REMARK  7 active torsions:
REMARK  status: ('A' for Active; 'I' for Inactive)
REMARK    1  A    between atoms: C_2  and  C_3
REMARK    2  A    between atoms: C_7  and  C_8
REMARK    3  A    between atoms: C_16  and  C_17
REMARK    4  A    between atoms: C_17  and  N_18
REMARK    5  A    between atoms: N_18  and  C_19
REMARK    6  A    between atoms: C_19  and  C_20
REMARK    7  A    between atoms: C_24  and  N_25
REMARK                            x       y       z     vdW  Elec       q    Type
REMARK                         _______ _______ _______ _____ _____    ______ ____
ROOT
ATOM      1  O   UNL     1       2.826   7.900  17.796  0.00  0.00    +0.000 OA
ATOM      2  C   UNL     1       2.346   7.388  18.808  0.00  0.00    +0.000 C 
ATOM      3  N   UNL     1       1.733   8.137  19.822  0.00  0.00    +0.000 N 
ATOM      4  C   UNL     1       1.127   7.615  21.048  0.00  0.00    +0.000 C 
ATOM      5  C   UNL     1      -0.303   8.084  21.221  0.00  0.00    +0.000 C 
ATOM      6  C   UNL     1      -0.413   9.603  21.153  0.00  0.00    +0.000 C 
ATOM      7  C   UNL     1       0.241  10.108  19.854  0.00  0.00    +0.000 C 
ATOM      8  C   UNL     1       1.673   9.595  19.676  0.00  0.00    +0.000 C 
ENDROOT
BRANCH   2   9
ATOM      9  C   UNL     1       2.353   5.900  18.875  0.00  0.00    +0.000 A 
ATOM     10  C   UNL     1       2.023   5.184  17.719  0.00  0.00    +0.000 A 
ATOM     11  C   UNL     1       1.824   3.805  17.783  0.00  0.00    +0.000 A 
ATOM     12  C   UNL     1       1.900   3.146  19.012  0.00  0.00    +0.000 A 
ATOM     13  C   UNL     1       2.275   3.844  20.167  0.00  0.00    +0.000 A 
ATOM     14  C   UNL     1       2.600   5.205  20.061  0.00  0.00    +0.000 A 
BRANCH  13  15
ATOM     15  C   UNL     1       2.215   3.208  21.534  0.00  0.00    +0.000 C 
ATOM     16  F   UNL     1       1.033   2.596  21.810  0.00  0.00    +0.000 F 
ATOM     17  F   UNL     1       3.186   2.276  21.727  0.00  0.00    +0.000 F 
ATOM     18  F   UNL     1       2.394   4.135  22.522  0.00  0.00    +0.000 F 
ENDBRANCH  13  15
ENDBRANCH   2   9
BRANCH   6  19
ATOM     19  C   UNL     1       0.164  10.247  22.432  0.00  0.00    +0.000 C 
BRANCH  19  20
ATOM     20  N   UNL     1      -0.751  11.137  23.135  0.00  0.00    +0.000 NA
ATOM     21  H   UNL     1      -0.478  11.233  24.114  0.00  0.00    +0.000 HD
BRANCH  20  22
ATOM     22  C   UNL     1      -0.791  12.478  22.548  0.00  0.00    +0.000 C 
BRANCH  22  23
ATOM     23  C   UNL     1      -1.719  13.380  23.331  0.00  0.00    +0.000 A 
ATOM     24  C   UNL     1      -1.213  14.513  23.957  0.00  0.00    +0.000 A 
ATOM     25  C   UNL     1      -2.100  15.356  24.611  0.00  0.00    +0.000 A 
ATOM     26  C   UNL     1      -3.460  15.058  24.602  0.00  0.00    +0.000 A 
ATOM     27  C   UNL     1      -3.893  13.915  23.940  0.00  0.00    +0.000 A 
ATOM     28  N   UNL     1      -3.037  13.066  23.308  0.00  0.00    +0.000 NA
BRANCH  27  29
ATOM     29  N   UNL     1      -5.288  13.624  23.896  0.00  0.00    +0.000 N 
ATOM     30  C   UNL     1      -6.318  14.541  23.793  0.00  0.00    +0.000 A 
ATOM     31  C   UNL     1      -7.494  13.834  23.841  0.00  0.00    +0.000 A 
ATOM     32  C   UNL     1      -7.096  12.494  23.971  0.00  0.00    +0.000 A 
ATOM     33  N   UNL     1      -5.771  12.352  23.985  0.00  0.00    +0.000 NA
ENDBRANCH  27  29
ENDBRANCH  22  23
ENDBRANCH  20  22
ENDBRANCH  19  20
ENDBRANCH   6  19
TORSDOF 7
ENDMDL
MODEL 7
REMARK VINA RESULT:      -7.9      4.318     10.181
REMARK  Name = 
REMARK  7 active torsions:
REMARK  status: ('A' for Active; 'I' for Inactive)
REMARK    1  A    between atoms: C_2  and  C_3
REMARK    2  A    between atoms: C_7  and  C_8
REMARK    3  A    between atoms: C_16  and  C_17
REMARK    4  A    between atoms: C_17  and  N_18
REMARK    5  A    between atoms: N_18  and  C_19
REMARK    6  A    between atoms: C_19  and  C_20
REMARK    7  A    between atoms: C_24  and  N_25
REMARK                            x       y       z     vdW  Elec       q    Type
REMARK                         _______ _______ _______ _____ _____    ______ ____
ROOT
ATOM      1  O   UNL     1      -2.596  12.173  18.580  0.00  0.00    +0.000 OA
ATOM      2  C   UNL     1      -2.094  12.013  19.693  0.00  0.00    +0.000 C 
ATOM      3  N   UNL     1      -1.203  10.969  19.982  0.00  0.00    +0.000 N 
ATOM      4  C   UNL     1      -0.549  10.710  21.265  0.00  0.00    +0.000 C 
ATOM      5  C   UNL     1       0.957  10.612  21.128  0.00  0.00    +0.000 C 
ATOM      6  C   UNL     1       1.364   9.581  20.082  0.00  0.00    +0.000 C 
ATOM      7  C   UNL     1       0.650   9.887  18.753  0.00  0.00    +0.000 C 
ATOM      8  C   UNL     1      -0.867  10.021  18.915  0.00  0.00    +0.000 C 
ENDROOT
BRANCH   2   9
ATOM      9  C   UNL     1      -2.394  13.048  20.721  0.00  0.00    +0.000 A 
ATOM     10  C   UNL     1      -1.703  14.263  20.659  0.00  0.00    +0.000 A 
ATOM     11  C   UNL     1      -1.804  15.180  21.705  0.00  0.00    +0.000 A 
ATOM     12  C   UNL     1      -2.553  14.862  22.840  0.00  0.00    +0.000 A 
ATOM     13  C   UNL     1      -3.286  13.669  22.894  0.00  0.00    +0.000 A 
ATOM     14  C   UNL     1      -3.279  12.819  21.778  0.00  0.00    +0.000 A 
BRANCH  13  15
ATOM     15  C   UNL     1      -3.975  13.216  24.157  0.00  0.00    +0.000 C 
ATOM     16  F   UNL     1      -3.547  13.850  25.280  0.00  0.00    +0.000 F 
ATOM     17  F   UNL     1      -5.324  13.381  24.112  0.00  0.00    +0.000 F 
ATOM     18  F   UNL     1      -3.775  11.884  24.383  0.00  0.00    +0.000 F 
ENDBRANCH  13  15
ENDBRANCH   2   9
BRANCH   6  19
ATOM     19  C   UNL     1       1.117   8.149  20.605  0.00  0.00    +0.000 C 
BRANCH  19  20
ATOM     20  N   UNL     1       2.230   7.228  20.413  0.00  0.00    +0.000 NA
ATOM     21  H   UNL     1       2.993   7.448  21.055  0.00  0.00    +0.000 HD
BRANCH  20  22
ATOM     22  C   UNL     1       1.848   5.832  20.635  0.00  0.00    +0.000 C 
BRANCH  22  23
ATOM     23  C   UNL     1       2.347   4.953  19.510  0.00  0.00    +0.000 A 
ATOM     24  C   UNL     1       1.452   4.147  18.816  0.00  0.00    +0.000 A 
ATOM     25  C   UNL     1       1.928   3.404  17.746  0.00  0.00    +0.000 A 
ATOM     26  C   UNL     1       3.269   3.503  17.387  0.00  0.00    +0.000 A 
ATOM     27  C   UNL     1       4.101   4.342  18.120  0.00  0.00    +0.000 A 
ATOM     28  N   UNL     1       3.657   5.066  19.184  0.00  0.00    +0.000 NA
BRANCH  27  29
ATOM     29  N   UNL     1       5.467   4.476  17.736  0.00  0.00    +0.000 N 
ATOM     30  C   UNL     1       5.979   4.353  16.457  0.00  0.00    +0.000 A 
ATOM     31  C   UNL     1       7.341   4.501  16.551  0.00  0.00    +0.000 A 
ATOM     32  C   UNL     1       7.580   4.712  17.918  0.00  0.00    +0.000 A 
ATOM     33  N   UNL     1       6.459   4.719  18.639  0.00  0.00    +0.000 NA
ENDBRANCH  27  29
ENDBRANCH  22  23
ENDBRANCH  20  22
ENDBRANCH  19  20
ENDBRANCH   6  19
TORSDOF 7
ENDMDL
MODEL 8
REMARK VINA RESULT:      -7.8      1.934      2.544
REMARK  Name = 
REMARK  7 active torsions:
REMARK  status: ('A' for Active; 'I' for Inactive)
REMARK    1  A    between atoms: C_2  and  C_3
REMARK    2  A    between atoms: C_7  and  C_8
REMARK    3  A    between atoms: C_16  and  C_17
REMARK    4  A    between atoms: C_17  and  N_18
REMARK    5  A    between atoms: N_18  and  C_19
REMARK    6  A    between atoms: C_19  and  C_20
REMARK    7  A    between atoms: C_24  and  N_25
REMARK                            x       y       z     vdW  Elec       q    Type
REMARK                         _______ _______ _______ _____ _____    ______ ____
ROOT
ATOM      1  O   UNL     1       2.355   8.544  17.394  0.00  0.00    +0.000 OA
ATOM      2  C   UNL     1       2.324   7.999  18.498  0.00  0.00    +0.000 C 
ATOM      3  N   UNL     1       1.709   8.581  19.616  0.00  0.00    +0.000 N 
ATOM      4  C   UNL     1       1.611   8.004  20.958  0.00  0.00    +0.000 C 
ATOM      5  C   UNL     1       0.180   7.951  21.453  0.00  0.00    +0.000 C 
ATOM      6  C   UNL     1      -0.492   9.317  21.388  0.00  0.00    +0.000 C 
ATOM      7  C   UNL     1      -0.361   9.888  19.965  0.00  0.00    +0.000 C 
ATOM      8  C   UNL     1       1.086   9.900  19.464  0.00  0.00    +0.000 C 
ENDROOT
BRANCH   2   9
ATOM      9  C   UNL     1       2.892   6.624  18.586  0.00  0.00    +0.000 A 
ATOM     10  C   UNL     1       3.596   6.128  17.484  0.00  0.00    +0.000 A 
ATOM     11  C   UNL     1       3.973   4.786  17.442  0.00  0.00    +0.000 A 
ATOM     12  C   UNL     1       3.601   3.924  18.476  0.00  0.00    +0.000 A 
ATOM     13  C   UNL     1       2.936   4.420  19.606  0.00  0.00    +0.000 A 
ATOM     14  C   UNL     1       2.681   5.797  19.692  0.00  0.00    +0.000 A 
BRANCH  13  15
ATOM     15  C   UNL     1       2.379   3.503  20.666  0.00  0.00    +0.000 C 
ATOM     16  F   UNL     1       1.290   2.793  20.268  0.00  0.00    +0.000 F 
ATOM     17  F   UNL     1       3.288   2.596  21.113  0.00  0.00    +0.000 F 
ATOM     18  F   UNL     1       1.983   4.202  21.771  0.00  0.00    +0.000 F 
ENDBRANCH  13  15
ENDBRANCH   2   9
BRANCH   6  19
ATOM     19  C   UNL     1       0.064  10.250  22.486  0.00  0.00    +0.000 C 
BRANCH  19  20
ATOM     20  N   UNL     1      -0.942  11.036  23.188  0.00  0.00    +0.000 NA
ATOM     21  H   UNL     1      -0.741  11.066  24.189  0.00  0.00    +0.000 HD
BRANCH  20  22
ATOM     22  C   UNL     1      -1.013  12.417  22.705  0.00  0.00    +0.000 C 
BRANCH  22  23
ATOM     23  C   UNL     1      -2.210  13.130  23.292  0.00  0.00    +0.000 A 
ATOM     24  C   UNL     1      -2.023  14.278  24.054  0.00  0.00    +0.000 A 
ATOM     25  C   UNL     1      -3.144  14.948  24.522  0.00  0.00    +0.000 A 
ATOM     26  C   UNL     1      -4.411  14.470  24.200  0.00  0.00    +0.000 A 
ATOM     27  C   UNL     1      -4.519  13.324  23.419  0.00  0.00    +0.000 A 
ATOM     28  N   UNL     1      -3.431  12.643  22.965  0.00  0.00    +0.000 NA
BRANCH  27  29
ATOM     29  N   UNL     1      -5.813  12.849  23.055  0.00  0.00    +0.000 N 
ATOM     30  C   UNL     1      -6.893  12.673  23.900  0.00  0.00    +0.000 A 
ATOM     31  C   UNL     1      -7.914  12.150  23.146  0.00  0.00    +0.000 A 
ATOM     32  C   UNL     1      -7.378  12.039  21.854  0.00  0.00    +0.000 A 
ATOM     33  N   UNL     1      -6.122  12.475  21.781  0.00  0.00    +0.000 NA
ENDBRANCH  27  29
ENDBRANCH  22  23
ENDBRANCH  20  22
ENDBRANCH  19  20
ENDBRANCH   6  19
TORSDOF 7
ENDMDL
MODEL 9
REMARK VINA RESULT:      -7.7      2.803      3.462
REMARK  Name = 
REMARK  7 active torsions:
REMARK  status: ('A' for Active; 'I' for Inactive)
REMARK    1  A    between atoms: C_2  and  C_3
REMARK    2  A    between atoms: C_7  and  C_8
REMARK    3  A    between atoms: C_16  and  C_17
REMARK    4  A    between atoms: C_17  and  N_18
REMARK    5  A    between atoms: N_18  and  C_19
REMARK    6  A    between atoms: C_19  and  C_20
REMARK    7  A    between atoms: C_24  and  N_25
REMARK                            x       y       z     vdW  Elec       q    Type
REMARK                         _______ _______ _______ _____ _____    ______ ____
ROOT
ATOM      1  O   UNL     1       2.188   8.931  17.147  0.00  0.00    +0.000 OA
ATOM      2  C   UNL     1       2.308   8.240  18.160  0.00  0.00    +0.000 C 
ATOM      3  N   UNL     1       1.767   8.608  19.400  0.00  0.00    +0.000 N 
ATOM      4  C   UNL     1       1.847   7.847  20.648  0.00  0.00    +0.000 C 
ATOM      5  C   UNL     1       0.480   7.605  21.256  0.00  0.00    +0.000 C 
ATOM      6  C   UNL     1      -0.292   8.904  21.449  0.00  0.00    +0.000 C 
ATOM      7  C   UNL     1      -0.346   9.673  20.117  0.00  0.00    +0.000 C 
ATOM      8  C   UNL     1       1.039   9.878  19.496  0.00  0.00    +0.000 C 
ENDROOT
BRANCH   2   9
ATOM      9  C   UNL     1       2.979   6.919  17.997  0.00  0.00    +0.000 A 
ATOM     10  C   UNL     1       2.183   5.769  17.996  0.00  0.00    +0.000 A 
ATOM     11  C   UNL     1       2.776   4.507  18.045  0.00  0.00    +0.000 A 
ATOM     12  C   UNL     1       4.164   4.394  18.150  0.00  0.00    +0.000 A 
ATOM     13  C   UNL     1       4.974   5.537  18.105  0.00  0.00    +0.000 A 
ATOM     14  C   UNL     1       4.368   6.790  17.923  0.00  0.00    +0.000 A 
BRANCH  13  15
ATOM     15  C   UNL     1       6.456   5.472  18.374  0.00  0.00    +0.000 C 
ATOM     16  F   UNL     1       7.163   6.499  17.831  0.00  0.00    +0.000 F 
ATOM     17  F   UNL     1       6.754   5.459  19.700  0.00  0.00    +0.000 F 
ATOM     18  F   UNL     1       7.006   4.331  17.862  0.00  0.00    +0.000 F 
ENDBRANCH  13  15
ENDBRANCH   2   9
BRANCH   6  19
ATOM     19  C   UNL     1       0.303   9.722  22.616  0.00  0.00    +0.000 C 
BRANCH  19  20
ATOM     20  N   UNL     1      -0.149  11.106  22.686  0.00  0.00    +0.000 NA
ATOM     21  H   UNL     1      -0.144  11.533  21.759  0.00  0.00    +0.000 HD
BRANCH  20  22
ATOM     22  C   UNL     1      -1.505  11.226  23.226  0.00  0.00    +0.000 C 
BRANCH  22  23
ATOM     23  C   UNL     1      -2.265  12.332  22.528  0.00  0.00    +0.000 A 
ATOM     24  C   UNL     1      -3.604  12.548  22.836  0.00  0.00    +0.000 A 
ATOM     25  C   UNL     1      -4.255  13.613  22.230  0.00  0.00    +0.000 A 
ATOM     26  C   UNL     1      -3.551  14.439  21.358  0.00  0.00    +0.000 A 
ATOM     27  C   UNL     1      -2.209  14.168  21.112  0.00  0.00    +0.000 A 
ATOM     28  N   UNL     1      -1.557  13.119  21.683  0.00  0.00    +0.000 NA
BRANCH  27  29
ATOM     29  N   UNL     1      -1.473  15.031  20.248  0.00  0.00    +0.000 N 
ATOM     30  C   UNL     1      -1.702  16.379  20.040  0.00  0.00    +0.000 A 
ATOM     31  C   UNL     1      -0.800  16.800  19.095  0.00  0.00    +0.000 A 
ATOM     32  C   UNL     1      -0.056  15.652  18.779  0.00  0.00    +0.000 A 
ATOM     33  N   UNL     1      -0.438  14.586  19.481  0.00  0.00    +0.000 NA
ENDBRANCH  27  29
ENDBRANCH  22  23
ENDBRANCH  20  22
ENDBRANCH  19  20
ENDBRANCH   6  19
TORSDOF 7
ENDMDL
