MODEL 1
REMARK VINA RESULT:      -8.1      0.000      0.000
REMARK  Name = 
REMARK  9 active torsions:
REMARK  status: ('A' for Active; 'I' for Inactive)
REMARK    1  A    between atoms: N_7  and  C_8
REMARK    2  A    between atoms: C_8  and  C_9
REMARK    3  A    between atoms: C_9  and  C_10
REMARK    4  A    between atoms: C_10  and  C_11
REMARK    5  A    between atoms: C_11  and  N_12
REMARK    6  A    between atoms: N_12  and  S_13
REMARK    7  A    between atoms: S_13  and  C_16
REMARK    8  A    between atoms: C_19  and  O_20
REMARK    9  A    between atoms: O_20  and  C_21
REMARK                            x       y       z     vdW  Elec       q    Type
REMARK                         _______ _______ _______ _____ _____    ______ ____
ROOT
ATOM      1  N   UNL     1       7.485   6.584  16.934  0.00  0.00    +0.000 NA
ATOM      2  H   UNL     1       8.297   6.574  16.317  0.00  0.00    +0.000 HD
ENDROOT
BRANCH   1   3
ATOM      3  S   UNL     1       7.441   5.166  17.844  0.00  0.00    +0.000 S 
ATOM      4  O   UNL     1       8.016   4.137  17.009  0.00  0.00    +0.000 OA
ATOM      5  O   UNL     1       7.965   5.464  19.157  0.00  0.00    +0.000 OA
BRANCH   3   6
ATOM      6  C   UNL     1       5.702   4.829  17.978  0.00  0.00    +0.000 A 
ATOM      7  C   UNL     1       5.067   4.104  16.971  0.00  0.00    +0.000 A 
ATOM      8  C   UNL     1       3.705   3.814  17.096  0.00  0.00    +0.000 A 
ATOM      9  C   UNL     1       2.983   4.225  18.223  0.00  0.00    +0.000 A 
ATOM     10  C   UNL     1       3.624   4.977  19.209  0.00  0.00    +0.000 A 
ATOM     11  C   UNL     1       4.990   5.261  19.099  0.00  0.00    +0.000 A 
BRANCH   9  12
ATOM     12  O   UNL     1       1.667   3.880  18.207  0.00  0.00    +0.000 OA
BRANCH  12  13
ATOM     13  C   UNL     1       1.150   2.983  19.180  0.00  0.00    +0.000 C 
ATOM     14  F   UNL     1       2.072   2.166  19.731  0.00  0.00    +0.000 F 
ATOM     15  F   UNL     1       0.552   3.688  20.164  0.00  0.00    +0.000 F 
ATOM     16  F   UNL     1       0.213   2.206  18.591  0.00  0.00    +0.000 F 
ENDBRANCH  12  13
ENDBRANCH   9  12
ENDBRANCH   3   6
ENDBRANCH   1   3
BRANCH   1  17
ATOM     17  C   UNL     1       7.158   7.840  17.622  0.00  0.00    +0.000 C 
BRANCH  17  18
ATOM     18  C   UNL     1       8.431   8.482  18.176  0.00  0.00    +0.000 C 
BRANCH  18  19
ATOM     19  C   UNL     1       8.408  10.010  18.089  0.00  0.00    +0.000 C 
BRANCH  19  20
ATOM     20  C   UNL     1       9.521  10.640  18.924  0.00  0.00    +0.000 C 
BRANCH  20  27
ATOM     21  O   UNL     1       8.832  16.255  17.756  0.00  0.00    +0.000 OA
ATOM     22  N   UNL     1       8.264  15.151  17.790  0.00  0.00    +0.000 N 
ATOM     23  O   UNL     1       7.076  14.953  17.495  0.00  0.00    +0.000 OA
ATOM     24  C   UNL     1       9.062  14.009  18.214  0.00  0.00    +0.000 A 
ATOM     25  N   UNL     1      10.385  14.113  18.585  0.00  0.00    +0.000 NA
ATOM     26  C   UNL     1      10.693  12.874  18.891  0.00  0.00    +0.000 A 
ATOM     27  N   UNL     1       9.608  12.069  18.710  0.00  0.00    +0.000 N 
ATOM     28  N   UNL     1       8.543  12.768  18.273  0.00  0.00    +0.000 NA
ENDBRANCH  20  27
ENDBRANCH  19  20
ENDBRANCH  18  19
ENDBRANCH  17  18
ENDBRANCH   1  17
TORSDOF 9
ENDMDL
MODEL 2
REMARK VINA RESULT:      -7.7      1.120      1.289
REMARK  Name = 
REMARK  9 active torsions:
REMARK  status: ('A' for Active; 'I' for Inactive)
REMARK    1  A    between atoms: N_7  and  C_8
REMARK    2  A    between atoms: C_8  and  C_9
REMARK    3  A    between atoms: C_9  and  C_10
REMARK    4  A    between atoms: C_10  and  C_11
REMARK    5  A    between atoms: C_11  and  N_12
REMARK    6  A    between atoms: N_12  and  S_13
REMARK    7  A    between atoms: S_13  and  C_16
REMARK    8  A    between atoms: C_19  and  O_20
REMARK    9  A    between atoms: O_20  and  C_21
REMARK                            x       y       z     vdW  Elec       q    Type
REMARK                         _______ _______ _______ _____ _____    ______ ____
ROOT
ATOM      1  N   UNL     1       6.611   7.109  17.651  0.00  0.00    +0.000 NA
ATOM      2  H   UNL     1       5.948   7.774  17.253  0.00  0.00    +0.000 HD
ENDROOT
BRANCH   1   3
ATOM      3  S   UNL     1       6.605   5.685  16.751  0.00  0.00    +0.000 S 
ATOM      4  O   UNL     1       6.148   6.048  15.430  0.00  0.00    +0.000 OA
ATOM      5  O   UNL     1       7.871   5.019  16.964  0.00  0.00    +0.000 OA
BRANCH   3   6
ATOM      6  C   UNL     1       5.316   4.732  17.516  0.00  0.00    +0.000 A 
ATOM      7  C   UNL     1       4.622   3.790  16.759  0.00  0.00    +0.000 A 
ATOM      8  C   UNL     1       3.630   3.020  17.373  0.00  0.00    +0.000 A 
ATOM      9  C   UNL     1       3.342   3.171  18.735  0.00  0.00    +0.000 A 
ATOM     10  C   UNL     1       4.024   4.139  19.474  0.00  0.00    +0.000 A 
ATOM     11  C   UNL     1       5.027   4.907  18.871  0.00  0.00    +0.000 A 
BRANCH   9  12
ATOM     12  O   UNL     1       2.349   2.363  19.195  0.00  0.00    +0.000 OA
BRANCH  12  13
ATOM     13  C   UNL     1       1.016   2.846  19.282  0.00  0.00    +0.000 C 
ATOM     14  F   UNL     1       0.103   2.082  18.647  0.00  0.00    +0.000 F 
ATOM     15  F   UNL     1       0.663   2.953  20.581  0.00  0.00    +0.000 F 
ATOM     16  F   UNL     1       0.972   4.081  18.732  0.00  0.00    +0.000 F 
ENDBRANCH  12  13
ENDBRANCH   9  12
ENDBRANCH   3   6
ENDBRANCH   1   3
BRANCH   1  17
ATOM     17  C   UNL     1       7.913   7.621  18.100  0.00  0.00    +0.000 C 
BRANCH  17  18
ATOM     18  C   UNL     1       8.090   9.073  17.649  0.00  0.00    +0.000 C 
BRANCH  18  19
ATOM     19  C   UNL     1       8.851   9.920  18.671  0.00  0.00    +0.000 C 
BRANCH  19  20
ATOM     20  C   UNL     1       9.866  10.841  17.998  0.00  0.00    +0.000 C 
BRANCH  20  27
ATOM     21  O   UNL     1       7.546  16.125  18.250  0.00  0.00    +0.000 OA
ATOM     22  N   UNL     1       7.338  14.943  17.931  0.00  0.00    +0.000 N 
ATOM     23  O   UNL     1       6.277  14.510  17.457  0.00  0.00    +0.000 OA
ATOM     24  C   UNL     1       8.431  14.001  18.135  0.00  0.00    +0.000 A 
ATOM     25  N   UNL     1       9.646  14.366  18.672  0.00  0.00    +0.000 NA
ATOM     26  C   UNL     1      10.305  13.230  18.681  0.00  0.00    +0.000 A 
ATOM     27  N   UNL     1       9.522  12.237  18.172  0.00  0.00    +0.000 N 
ATOM     28  N   UNL     1       8.311  12.700  17.809  0.00  0.00    +0.000 NA
ENDBRANCH  20  27
ENDBRANCH  19  20
ENDBRANCH  18  19
ENDBRANCH  17  18
ENDBRANCH   1  17
TORSDOF 9
ENDMDL
MODEL 3
REMARK VINA RESULT:      -7.6      5.169      6.154
REMARK  Name = 
REMARK  9 active torsions:
REMARK  status: ('A' for Active; 'I' for Inactive)
REMARK    1  A    between atoms: N_7  and  C_8
REMARK    2  A    between atoms: C_8  and  C_9
REMARK    3  A    between atoms: C_9  and  C_10
REMARK    4  A    between atoms: C_10  and  C_11
REMARK    5  A    between atoms: C_11  and  N_12
REMARK    6  A    between atoms: N_12  and  S_13
REMARK    7  A    between atoms: S_13  and  C_16
REMARK    8  A    between atoms: C_19  and  O_20
REMARK    9  A    between atoms: O_20  and  C_21
REMARK                            x       y       z     vdW  Elec       q    Type
REMARK                         _______ _______ _______ _____ _____    ______ ____
ROOT
ATOM      1  N   UNL     1       6.165   6.578  16.966  0.00  0.00    +0.000 NA
ATOM      2  H   UNL     1       6.485   6.692  17.928  0.00  0.00    +0.000 HD
ENDROOT
BRANCH   1   3
ATOM      3  S   UNL     1       6.335   4.970  16.492  0.00  0.00    +0.000 S 
ATOM      4  O   UNL     1       5.868   4.904  15.127  0.00  0.00    +0.000 OA
ATOM      5  O   UNL     1       7.662   4.534  16.865  0.00  0.00    +0.000 OA
BRANCH   3   6
ATOM      6  C   UNL     1       5.144   4.125  17.502  0.00  0.00    +0.000 A 
ATOM      7  C   UNL     1       5.314   4.104  18.886  0.00  0.00    +0.000 A 
ATOM      8  C   UNL     1       4.357   3.465  19.680  0.00  0.00    +0.000 A 
ATOM      9  C   UNL     1       3.229   2.868  19.106  0.00  0.00    +0.000 A 
ATOM     10  C   UNL     1       3.086   2.870  17.717  0.00  0.00    +0.000 A 
ATOM     11  C   UNL     1       4.033   3.517  16.914  0.00  0.00    +0.000 A 
BRANCH   9  12
ATOM     12  O   UNL     1       2.387   2.278  19.997  0.00  0.00    +0.000 OA
BRANCH  12  13
ATOM     13  C   UNL     1       1.221   2.960  20.440  0.00  0.00    +0.000 C 
ATOM     14  F   UNL     1       1.350   4.301  20.505  0.00  0.00    +0.000 F 
ATOM     15  F   UNL     1       0.191   2.661  19.620  0.00  0.00    +0.000 F 
ATOM     16  F   UNL     1       0.912   2.517  21.680  0.00  0.00    +0.000 F 
ENDBRANCH  12  13
ENDBRANCH   9  12
ENDBRANCH   3   6
ENDBRANCH   1   3
BRANCH   1  17
ATOM     17  C   UNL     1       4.939   7.277  16.561  0.00  0.00    +0.000 C 
BRANCH  17  18
ATOM     18  C   UNL     1       3.765   6.826  17.434  0.00  0.00    +0.000 C 
BRANCH  18  19
ATOM     19  C   UNL     1       2.963   8.001  17.998  0.00  0.00    +0.000 C 
BRANCH  19  20
ATOM     20  C   UNL     1       2.153   7.593  19.227  0.00  0.00    +0.000 C 
BRANCH  20  27
ATOM     21  O   UNL     1      -0.409  11.552  22.564  0.00  0.00    +0.000 OA
ATOM     22  N   UNL     1       0.148  10.441  22.556  0.00  0.00    +0.000 N 
ATOM     23  O   UNL     1       0.328   9.730  23.555  0.00  0.00    +0.000 OA
ATOM     24  C   UNL     1       0.623   9.948  21.270  0.00  0.00    +0.000 A 
ATOM     25  N   UNL     1       0.494  10.661  20.099  0.00  0.00    +0.000 NA
ATOM     26  C   UNL     1       1.053   9.864  19.218  0.00  0.00    +0.000 A 
ATOM     27  N   UNL     1       1.491   8.729  19.833  0.00  0.00    +0.000 N 
ATOM     28  N   UNL     1       1.227   8.751  21.153  0.00  0.00    +0.000 NA
ENDBRANCH  20  27
ENDBRANCH  19  20
ENDBRANCH  18  19
ENDBRANCH  17  18
ENDBRANCH   1  17
TORSDOF 9
ENDMDL
MODEL 4
REMARK VINA RESULT:      -7.5      5.259      6.021
REMARK  Name = 
REMARK  9 active torsions:
REMARK  status: ('A' for Active; 'I' for Inactive)
REMARK    1  A    between atoms: N_7  and  C_8
REMARK    2  A    between atoms: C_8  and  C_9
REMARK    3  A    between atoms: C_9  and  C_10
REMARK    4  A    between atoms: C_10  and  C_11
REMARK    5  A    between atoms: C_11  and  N_12
REMARK    6  A    between atoms: N_12  and  S_13
REMARK    7  A    between atoms: S_13  and  C_16
REMARK    8  A    between atoms: C_19  and  O_20
REMARK    9  A    between atoms: O_20  and  C_21
REMARK                            x       y       z     vdW  Elec       q    Type
REMARK                         _______ _______ _______ _____ _____    ______ ____
ROOT
ATOM      1  N   UNL     1       5.944   6.192  16.141  0.00  0.00    +0.000 NA
ATOM      2  H   UNL     1       6.674   6.693  15.634  0.00  0.00    +0.000 HD
ENDROOT
BRANCH   1   3
ATOM      3  S   UNL     1       6.394   4.582  16.351  0.00  0.00    +0.000 S 
ATOM      4  O   UNL     1       6.137   3.926  15.090  0.00  0.00    +0.000 OA
ATOM      5  O   UNL     1       7.702   4.563  16.967  0.00  0.00    +0.000 OA
BRANCH   3   6
ATOM      6  C   UNL     1       5.198   3.979  17.517  0.00  0.00    +0.000 A 
ATOM      7  C   UNL     1       4.028   3.383  17.048  0.00  0.00    +0.000 A 
ATOM      8  C   UNL     1       3.103   2.881  17.970  0.00  0.00    +0.000 A 
ATOM      9  C   UNL     1       3.348   2.954  19.346  0.00  0.00    +0.000 A 
ATOM     10  C   UNL     1       4.509   3.581  19.802  0.00  0.00    +0.000 A 
ATOM     11  C   UNL     1       5.446   4.075  18.888  0.00  0.00    +0.000 A 
BRANCH   9  12
ATOM     12  O   UNL     1       2.360   2.434  20.123  0.00  0.00    +0.000 OA
BRANCH  12  13
ATOM     13  C   UNL     1       1.499   3.294  20.857  0.00  0.00    +0.000 C 
ATOM     14  F   UNL     1       2.130   4.300  21.498  0.00  0.00    +0.000 F 
ATOM     15  F   UNL     1       0.578   3.821  20.023  0.00  0.00    +0.000 F 
ATOM     16  F   UNL     1       0.850   2.557  21.788  0.00  0.00    +0.000 F 
ENDBRANCH  12  13
ENDBRANCH   9  12
ENDBRANCH   3   6
ENDBRANCH   1   3
BRANCH   1  17
ATOM     17  C   UNL     1       5.305   6.870  17.276  0.00  0.00    +0.000 C 
BRANCH  17  18
ATOM     18  C   UNL     1       3.790   6.935  17.064  0.00  0.00    +0.000 C 
BRANCH  18  19
ATOM     19  C   UNL     1       3.142   8.115  17.791  0.00  0.00    +0.000 C 
BRANCH  19  20
ATOM     20  C   UNL     1       2.279   7.651  18.962  0.00  0.00    +0.000 C 
BRANCH  20  27
ATOM     21  O   UNL     1      -0.310  11.494  22.412  0.00  0.00    +0.000 OA
ATOM     22  N   UNL     1       0.278  10.400  22.376  0.00  0.00    +0.000 N 
ATOM     23  O   UNL     1       0.505   9.682  23.362  0.00  0.00    +0.000 OA
ATOM     24  C   UNL     1       0.734   9.937  21.073  0.00  0.00    +0.000 A 
ATOM     25  N   UNL     1       0.555  10.659  19.914  0.00  0.00    +0.000 NA
ATOM     26  C   UNL     1       1.114   9.889  19.010  0.00  0.00    +0.000 A 
ATOM     27  N   UNL     1       1.599   8.761  19.599  0.00  0.00    +0.000 N 
ATOM     28  N   UNL     1       1.369   8.759  20.926  0.00  0.00    +0.000 NA
ENDBRANCH  20  27
ENDBRANCH  19  20
ENDBRANCH  18  19
ENDBRANCH  17  18
ENDBRANCH   1  17
TORSDOF 9
ENDMDL
MODEL 5
REMARK VINA RESULT:      -7.5      1.273      1.968
REMARK  Name = 
REMARK  9 active torsions:
REMARK  status: ('A' for Active; 'I' for Inactive)
REMARK    1  A    between atoms: N_7  and  C_8
REMARK    2  A    between atoms: C_8  and  C_9
REMARK    3  A    between atoms: C_9  and  C_10
REMARK    4  A    between atoms: C_10  and  C_11
REMARK    5  A    between atoms: C_11  and  N_12
REMARK    6  A    between atoms: N_12  and  S_13
REMARK    7  A    between atoms: S_13  and  C_16
REMARK    8  A    between atoms: C_19  and  O_20
REMARK    9  A    between atoms: O_20  and  C_21
REMARK                            x       y       z     vdW  Elec       q    Type
REMARK                         _______ _______ _______ _____ _____    ______ ____
ROOT
ATOM      1  N   UNL     1       6.774   7.660  17.868  0.00  0.00    +0.000 NA
ATOM      2  H   UNL     1       5.786   7.885  17.748  0.00  0.00    +0.000 HD
ENDROOT
BRANCH   1   3
ATOM      3  S   UNL     1       7.058   6.066  17.401  0.00  0.00    +0.000 S 
ATOM      4  O   UNL     1       7.443   6.118  16.010  0.00  0.00    +0.000 OA
ATOM      5  O   UNL     1       7.902   5.454  18.403  0.00  0.00    +0.000 OA
BRANCH   3   6
ATOM      6  C   UNL     1       5.444   5.331  17.478  0.00  0.00    +0.000 A 
ATOM      7  C   UNL     1       4.410   6.016  18.117  0.00  0.00    +0.000 A 
ATOM      8  C   UNL     1       3.133   5.447  18.147  0.00  0.00    +0.000 A 
ATOM      9  C   UNL     1       2.879   4.216  17.531  0.00  0.00    +0.000 A 
ATOM     10  C   UNL     1       3.929   3.527  16.921  0.00  0.00    +0.000 A 
ATOM     11  C   UNL     1       5.208   4.093  16.875  0.00  0.00    +0.000 A 
BRANCH   9  12
ATOM     12  O   UNL     1       1.595   3.782  17.646  0.00  0.00    +0.000 OA
BRANCH  12  13
ATOM     13  C   UNL     1       1.178   3.084  18.812  0.00  0.00    +0.000 C 
ATOM     14  F   UNL     1       0.224   2.155  18.595  0.00  0.00    +0.000 F 
ATOM     15  F   UNL     1       2.246   2.486  19.380  0.00  0.00    +0.000 F 
ATOM     16  F   UNL     1       0.682   3.983  19.693  0.00  0.00    +0.000 F 
ENDBRANCH  12  13
ENDBRANCH   9  12
ENDBRANCH   3   6
ENDBRANCH   1   3
BRANCH   1  17
ATOM     17  C   UNL     1       7.763   8.669  17.469  0.00  0.00    +0.000 C 
BRANCH  17  18
ATOM     18  C   UNL     1       8.765   8.899  18.603  0.00  0.00    +0.000 C 
BRANCH  18  19
ATOM     19  C   UNL     1       8.915  10.378  18.967  0.00  0.00    +0.000 C 
BRANCH  19  20
ATOM     20  C   UNL     1      10.070  11.031  18.211  0.00  0.00    +0.000 C 
BRANCH  20  27
ATOM     21  O   UNL     1      10.323  16.730  17.303  0.00  0.00    +0.000 OA
ATOM     22  N   UNL     1      10.964  15.668  17.252  0.00  0.00    +0.000 N 
ATOM     23  O   UNL     1      12.145  15.567  16.890  0.00  0.00    +0.000 OA
ATOM     24  C   UNL     1      10.264  14.453  17.649  0.00  0.00    +0.000 A 
ATOM     25  N   UNL     1       8.946  14.442  18.050  0.00  0.00    +0.000 NA
ATOM     26  C   UNL     1       8.735  13.170  18.296  0.00  0.00    +0.000 A 
ATOM     27  N   UNL     1       9.871  12.457  18.057  0.00  0.00    +0.000 N 
ATOM     28  N   UNL     1      10.874  13.253  17.642  0.00  0.00    +0.000 NA
ENDBRANCH  20  27
ENDBRANCH  19  20
ENDBRANCH  18  19
ENDBRANCH  17  18
ENDBRANCH   1  17
TORSDOF 9
ENDMDL
MODEL 6
REMARK VINA RESULT:      -7.5      2.182      2.439
REMARK  Name = 
REMARK  9 active torsions:
REMARK  status: ('A' for Active; 'I' for Inactive)
REMARK    1  A    between atoms: N_7  and  C_8
REMARK    2  A    between atoms: C_8  and  C_9
REMARK    3  A    between atoms: C_9  and  C_10
REMARK    4  A    between atoms: C_10  and  C_11
REMARK    5  A    between atoms: C_11  and  N_12
REMARK    6  A    between atoms: N_12  and  S_13
REMARK    7  A    between atoms: S_13  and  C_16
REMARK    8  A    between atoms: C_19  and  O_20
REMARK    9  A    between atoms: O_20  and  C_21
REMARK                            x       y       z     vdW  Elec       q    Type
REMARK                         _______ _______ _______ _____ _____    ______ ____
ROOT
ATOM      1  N   UNL     1       6.893   6.337  17.354  0.00  0.00    +0.000 NA
ATOM      2  H   UNL     1       6.730   5.945  18.281  0.00  0.00    +0.000 HD
ENDROOT
BRANCH   1   3
ATOM      3  S   UNL     1       5.832   5.644  16.243  0.00  0.00    +0.000 S 
ATOM      4  O   UNL     1       5.246   6.742  15.512  0.00  0.00    +0.000 OA
ATOM      5  O   UNL     1       6.529   4.569  15.575  0.00  0.00    +0.000 OA
BRANCH   3   6
ATOM      6  C   UNL     1       4.562   4.956  17.276  0.00  0.00    +0.000 A 
ATOM      7  C   UNL     1       4.572   3.590  17.554  0.00  0.00    +0.000 A 
ATOM      8  C   UNL     1       3.589   3.059  18.394  0.00  0.00    +0.000 A 
ATOM      9  C   UNL     1       2.613   3.881  18.970  0.00  0.00    +0.000 A 
ATOM     10  C   UNL     1       2.596   5.242  18.659  0.00  0.00    +0.000 A 
ATOM     11  C   UNL     1       3.584   5.786  17.829  0.00  0.00    +0.000 A 
BRANCH   9  12
ATOM     12  O   UNL     1       1.717   3.227  19.758  0.00  0.00    +0.000 OA
BRANCH  12  13
ATOM     13  C   UNL     1       1.927   3.143  21.161  0.00  0.00    +0.000 C 
ATOM     14  F   UNL     1       0.879   2.650  21.852  0.00  0.00    +0.000 F 
ATOM     15  F   UNL     1       3.008   2.372  21.404  0.00  0.00    +0.000 F 
ATOM     16  F   UNL     1       2.182   4.385  21.631  0.00  0.00    +0.000 F 
ENDBRANCH  12  13
ENDBRANCH   9  12
ENDBRANCH   3   6
ENDBRANCH   1   3
BRANCH   1  17
ATOM     17  C   UNL     1       7.132   7.783  17.251  0.00  0.00    +0.000 C 
BRANCH  17  18
ATOM     18  C   UNL     1       8.277   8.193  18.181  0.00  0.00    +0.000 C 
BRANCH  18  19
ATOM     19  C   UNL     1       8.598   9.687  18.098  0.00  0.00    +0.000 C 
BRANCH  19  20
ATOM     20  C   UNL     1       9.279  10.189  19.370  0.00  0.00    +0.000 C 
BRANCH  20  27
ATOM     21  O   UNL     1      11.890  15.342  19.393  0.00  0.00    +0.000 OA
ATOM     22  N   UNL     1      11.171  14.568  20.047  0.00  0.00    +0.000 N 
ATOM     23  O   UNL     1      10.724  14.800  21.180  0.00  0.00    +0.000 OA
ATOM     24  C   UNL     1      10.835  13.293  19.427  0.00  0.00    +0.000 A 
ATOM     25  N   UNL     1      11.291  12.921  18.182  0.00  0.00    +0.000 NA
ATOM     26  C   UNL     1      10.764  11.727  18.032  0.00  0.00    +0.000 A 
ATOM     27  N   UNL     1      10.029  11.405  19.132  0.00  0.00    +0.000 N 
ATOM     28  N   UNL     1      10.051  12.392  20.047  0.00  0.00    +0.000 NA
ENDBRANCH  20  27
ENDBRANCH  19  20
ENDBRANCH  18  19
ENDBRANCH  17  18
ENDBRANCH   1  17
TORSDOF 9
ENDMDL
MODEL 7
REMARK VINA RESULT:      -7.5      5.423      7.380
REMARK  Name = 
REMARK  9 active torsions:
REMARK  status: ('A' for Active; 'I' for Inactive)
REMARK    1  A    between atoms: N_7  and  C_8
REMARK    2  A    between atoms: C_8  and  C_9
REMARK    3  A    between atoms: C_9  and  C_10
REMARK    4  A    between atoms: C_10  and  C_11
REMARK    5  A    between atoms: C_11  and  N_12
REMARK    6  A    between atoms: N_12  and  S_13
REMARK    7  A    between atoms: S_13  and  C_16
REMARK    8  A    between atoms: C_19  and  O_20
REMARK    9  A    between atoms: O_20  and  C_21
REMARK                            x       y       z     vdW  Elec       q    Type
REMARK                         _______ _______ _______ _____ _____    ______ ____
ROOT
ATOM      1  N   UNL     1       3.480   3.339  19.792  0.00  0.00    +0.000 NA
ATOM      2  H   UNL     1       3.843   4.121  19.247  0.00  0.00    +0.000 HD
ENDROOT
BRANCH   1   3
ATOM      3  S   UNL     1       2.087   3.811  20.614  0.00  0.00    +0.000 S 
ATOM      4  O   UNL     1       0.991   3.126  19.970  0.00  0.00    +0.000 OA
ATOM      5  O   UNL     1       2.341   3.679  22.031  0.00  0.00    +0.000 OA
BRANCH   3   6
ATOM      6  C   UNL     1       1.947   5.534  20.210  0.00  0.00    +0.000 A 
ATOM      7  C   UNL     1       1.323   6.398  21.109  0.00  0.00    +0.000 A 
ATOM      8  C   UNL     1       1.243   7.760  20.801  0.00  0.00    +0.000 A 
ATOM      9  C   UNL     1       1.796   8.263  19.617  0.00  0.00    +0.000 A 
ATOM     10  C   UNL     1       2.391   7.382  18.712  0.00  0.00    +0.000 A 
ATOM     11  C   UNL     1       2.487   6.019  19.017  0.00  0.00    +0.000 A 
BRANCH   9  12
ATOM     12  O   UNL     1       1.638   9.603  19.445  0.00  0.00    +0.000 OA
BRANCH  12  13
ATOM     13  C   UNL     1       0.503  10.106  18.753  0.00  0.00    +0.000 C 
ATOM     14  F   UNL     1       0.213   9.454  17.609  0.00  0.00    +0.000 F 
ATOM     15  F   UNL     1      -0.574  10.057  19.566  0.00  0.00    +0.000 F 
ATOM     16  F   UNL     1       0.733  11.402  18.440  0.00  0.00    +0.000 F 
ENDBRANCH  12  13
ENDBRANCH   9  12
ENDBRANCH   3   6
ENDBRANCH   1   3
BRANCH   1  17
ATOM     17  C   UNL     1       3.481   2.008  19.171  0.00  0.00    +0.000 C 
BRANCH  17  18
ATOM     18  C   UNL     1       3.191   2.127  17.672  0.00  0.00    +0.000 C 
BRANCH  18  19
ATOM     19  C   UNL     1       3.414   3.544  17.139  0.00  0.00    +0.000 C 
BRANCH  19  20
ATOM     20  C   UNL     1       4.667   3.630  16.271  0.00  0.00    +0.000 C 
BRANCH  20  27
ATOM     21  O   UNL     1       8.348   7.366  18.693  0.00  0.00    +0.000 OA
ATOM     22  N   UNL     1       7.861   6.226  18.776  0.00  0.00    +0.000 N 
ATOM     23  O   UNL     1       8.139   5.397  19.655  0.00  0.00    +0.000 OA
ATOM     24  C   UNL     1       6.893   5.844  17.757  0.00  0.00    +0.000 A 
ATOM     25  N   UNL     1       6.523   6.676  16.724  0.00  0.00    +0.000 NA
ATOM     26  C   UNL     1       5.661   5.939  16.061  0.00  0.00    +0.000 A 
ATOM     27  N   UNL     1       5.521   4.729  16.671  0.00  0.00    +0.000 N 
ATOM     28  N   UNL     1       6.298   4.636  17.767  0.00  0.00    +0.000 NA
ENDBRANCH  20  27
ENDBRANCH  19  20
ENDBRANCH  18  19
ENDBRANCH  17  18
ENDBRANCH   1  17
TORSDOF 9
ENDMDL
MODEL 8
REMARK VINA RESULT:      -7.5      0.993      1.549
REMARK  Name = 
REMARK  9 active torsions:
REMARK  status: ('A' for Active; 'I' for Inactive)
REMARK    1  A    between atoms: N_7  and  C_8
REMARK    2  A    between atoms: C_8  and  C_9
REMARK    3  A    between atoms: C_9  and  C_10
REMARK    4  A    between atoms: C_10  and  C_11
REMARK    5  A    between atoms: C_11  and  N_12
REMARK    6  A    between atoms: N_12  and  S_13
REMARK    7  A    between atoms: S_13  and  C_16
REMARK    8  A    between atoms: C_19  and  O_20
REMARK    9  A    between atoms: O_20  and  C_21
REMARK                            x       y       z     vdW  Elec       q    Type
REMARK                         _______ _______ _______ _____ _____    ______ ____
ROOT
ATOM      1  N   UNL     1       6.897   7.097  17.683  0.00  0.00    +0.000 NA
ATOM      2  H   UNL     1       6.149   7.201  16.998  0.00  0.00    +0.000 HD
ENDROOT
BRANCH   1   3
ATOM      3  S   UNL     1       7.046   5.478  18.126  0.00  0.00    +0.000 S 
ATOM      4  O   UNL     1       7.716   4.823  17.027  0.00  0.00    +0.000 OA
ATOM      5  O   UNL     1       7.568   5.432  19.473  0.00  0.00    +0.000 OA
BRANCH   3   6
ATOM      6  C   UNL     1       5.365   4.908  18.137  0.00  0.00    +0.000 A 
ATOM      7  C   UNL     1       4.511   5.318  19.161  0.00  0.00    +0.000 A 
ATOM      8  C   UNL     1       3.179   4.892  19.148  0.00  0.00    +0.000 A 
ATOM      9  C   UNL     1       2.693   4.081  18.116  0.00  0.00    +0.000 A 
ATOM     10  C   UNL     1       3.566   3.653  17.114  0.00  0.00    +0.000 A 
ATOM     11  C   UNL     1       4.898   4.083  17.112  0.00  0.00    +0.000 A 
BRANCH   9  12
ATOM     12  O   UNL     1       1.382   3.739  18.238  0.00  0.00    +0.000 OA
BRANCH  12  13
ATOM     13  C   UNL     1       0.990   2.717  19.145  0.00  0.00    +0.000 C 
ATOM     14  F   UNL     1       0.528   3.169  20.328  0.00  0.00    +0.000 F 
ATOM     15  F   UNL     1       0.039   1.951  18.570  0.00  0.00    +0.000 F 
ATOM     16  F   UNL     1       2.064   1.934  19.396  0.00  0.00    +0.000 F 
ENDBRANCH  12  13
ENDBRANCH   9  12
ENDBRANCH   3   6
ENDBRANCH   1   3
BRANCH   1  17
ATOM     17  C   UNL     1       8.135   7.858  17.472  0.00  0.00    +0.000 C 
BRANCH  17  18
ATOM     18  C   UNL     1       7.941   9.310  17.915  0.00  0.00    +0.000 C 
BRANCH  18  19
ATOM     19  C   UNL     1       9.075   9.810  18.813  0.00  0.00    +0.000 C 
BRANCH  19  20
ATOM     20  C   UNL     1       9.744  11.055  18.235  0.00  0.00    +0.000 C 
BRANCH  20  27
ATOM     21  O   UNL     1       7.842  16.259  19.871  0.00  0.00    +0.000 OA
ATOM     22  N   UNL     1       8.103  15.537  18.894  0.00  0.00    +0.000 N 
ATOM     23  O   UNL     1       7.974  15.874  17.708  0.00  0.00    +0.000 OA
ATOM     24  C   UNL     1       8.593  14.195  19.175  0.00  0.00    +0.000 A 
ATOM     25  N   UNL     1       8.756  13.707  20.453  0.00  0.00    +0.000 NA
ATOM     26  C   UNL     1       9.196  12.489  20.238  0.00  0.00    +0.000 A 
ATOM     27  N   UNL     1       9.294  12.262  18.898  0.00  0.00    +0.000 N 
ATOM     28  N   UNL     1       8.916  13.340  18.186  0.00  0.00    +0.000 NA
ENDBRANCH  20  27
ENDBRANCH  19  20
ENDBRANCH  18  19
ENDBRANCH  17  18
ENDBRANCH   1  17
TORSDOF 9
ENDMDL
MODEL 9
REMARK VINA RESULT:      -7.5      1.494      1.765
REMARK  Name = 
REMARK  9 active torsions:
REMARK  status: ('A' for Active; 'I' for Inactive)
REMARK    1  A    between atoms: N_7  and  C_8
REMARK    2  A    between atoms: C_8  and  C_9
REMARK    3  A    between atoms: C_9  and  C_10
REMARK    4  A    between atoms: C_10  and  C_11
REMARK    5  A    between atoms: C_11  and  N_12
REMARK    6  A    between atoms: N_12  and  S_13
REMARK    7  A    between atoms: S_13  and  C_16
REMARK    8  A    between atoms: C_19  and  O_20
REMARK    9  A    between atoms: O_20  and  C_21
REMARK                            x       y       z     vdW  Elec       q    Type
REMARK                         _______ _______ _______ _____ _____    ______ ____
ROOT
ATOM      1  N   UNL     1       6.416   7.318  17.196  0.00  0.00    +0.000 NA
ATOM      2  H   UNL     1       5.606   7.912  17.019  0.00  0.00    +0.000 HD
ENDROOT
BRANCH   1   3
ATOM      3  S   UNL     1       6.226   5.841  16.408  0.00  0.00    +0.000 S 
ATOM      4  O   UNL     1       5.766   6.154  15.076  0.00  0.00    +0.000 OA
ATOM      5  O   UNL     1       7.420   5.059  16.638  0.00  0.00    +0.000 OA
BRANCH   3   6
ATOM      6  C   UNL     1       4.870   5.094  17.277  0.00  0.00    +0.000 A 
ATOM      7  C   UNL     1       4.896   3.724  17.537  0.00  0.00    +0.000 A 
ATOM      8  C   UNL     1       3.841   3.146  18.249  0.00  0.00    +0.000 A 
ATOM      9  C   UNL     1       2.776   3.925  18.716  0.00  0.00    +0.000 A 
ATOM     10  C   UNL     1       2.747   5.290  18.423  0.00  0.00    +0.000 A 
ATOM     11  C   UNL     1       3.805   5.880  17.721  0.00  0.00    +0.000 A 
BRANCH   9  12
ATOM     12  O   UNL     1       1.818   3.229  19.386  0.00  0.00    +0.000 OA
BRANCH  12  13
ATOM     13  C   UNL     1       1.420   3.632  20.689  0.00  0.00    +0.000 C 
ATOM     14  F   UNL     1       0.839   2.659  21.421  0.00  0.00    +0.000 F 
ATOM     15  F   UNL     1       2.495   4.097  21.360  0.00  0.00    +0.000 F 
ATOM     16  F   UNL     1       0.530   4.643  20.570  0.00  0.00    +0.000 F 
ENDBRANCH  12  13
ENDBRANCH   9  12
ENDBRANCH   3   6
ENDBRANCH   1   3
BRANCH   1  17
ATOM     17  C   UNL     1       7.746   7.940  17.160  0.00  0.00    +0.000 C 
BRANCH  17  18
ATOM     18  C   UNL     1       8.341   7.989  18.569  0.00  0.00    +0.000 C 
BRANCH  18  19
ATOM     19  C   UNL     1       8.989   9.338  18.889  0.00  0.00    +0.000 C 
BRANCH  19  20
ATOM     20  C   UNL     1       8.408  10.461  18.034  0.00  0.00    +0.000 C 
BRANCH  20  27
ATOM     21  O   UNL     1      11.106  15.553  17.635  0.00  0.00    +0.000 OA
ATOM     22  N   UNL     1       9.998  14.998  17.712  0.00  0.00    +0.000 N 
ATOM     23  O   UNL     1       8.907  15.588  17.722  0.00  0.00    +0.000 OA
ATOM     24  C   UNL     1       9.990  13.544  17.798  0.00  0.00    +0.000 A 
ATOM     25  N   UNL     1      11.141  12.787  17.814  0.00  0.00    +0.000 NA
ATOM     26  C   UNL     1      10.674  11.563  17.908  0.00  0.00    +0.000 A 
ATOM     27  N   UNL     1       9.312  11.589  17.943  0.00  0.00    +0.000 N 
ATOM     28  N   UNL     1       8.840  12.847  17.871  0.00  0.00    +0.000 NA
ENDBRANCH  20  27
ENDBRANCH  19  20
ENDBRANCH  18  19
ENDBRANCH  17  18
ENDBRANCH   1  17
TORSDOF 9
ENDMDL
