MODEL 1
REMARK VINA RESULT:      -7.6      0.000      0.000
REMARK  Name = 
REMARK  1 active torsions:
REMARK  status: ('A' for Active; 'I' for Inactive)
REMARK    1  A    between atoms: C_9  and  C_10
REMARK                            x       y       z     vdW  Elec       q    Type
REMARK                         _______ _______ _______ _____ _____    ______ ____
ROOT
ATOM      1  O   UNL     1       2.075   2.778  17.361  0.00  0.00    +0.000 OA
ATOM      2  C   UNL     1       2.539   3.704  18.021  0.00  0.00    +0.000 C 
ATOM      3  C   UNL     1       1.829   4.262  19.225  0.00  0.00    +0.000 C 
ATOM      4  C   UNL     1       2.849   4.728  20.244  0.00  0.00    +0.000 C 
ATOM      5  N   UNL     1       3.742   5.725  19.668  0.00  0.00    +0.000 N 
ATOM      6  C   UNL     1       4.350   5.340  18.461  0.00  0.00    +0.000 A 
ATOM      7  C   UNL     1       5.465   6.042  18.003  0.00  0.00    +0.000 A 
ATOM      8  C   UNL     1       6.020   5.769  16.744  0.00  0.00    +0.000 A 
ATOM      9  C   UNL     1       5.478   4.794  15.888  0.00  0.00    +0.000 A 
ATOM     10  C   UNL     1       4.360   4.086  16.361  0.00  0.00    +0.000 A 
ATOM     11  C   UNL     1       3.789   4.382  17.608  0.00  0.00    +0.000 A 
ATOM     12  H   UNL     1       4.412   6.107  20.334  0.00  0.00    +0.000 HD
ENDROOT
BRANCH   9  13
ATOM     13  C   UNL     1       6.023   4.572  14.526  0.00  0.00    +0.000 A 
ATOM     14  C   UNL     1       5.405   3.695  13.616  0.00  0.00    +0.000 A 
ATOM     15  C   UNL     1       5.958   3.435  12.356  0.00  0.00    +0.000 A 
ATOM     16  C   UNL     1       7.138   4.062  11.970  0.00  0.00    +0.000 A 
ATOM     17  C   UNL     1       7.761   4.953  12.841  0.00  0.00    +0.000 A 
ATOM     18  C   UNL     1       7.211   5.197  14.102  0.00  0.00    +0.000 A 
ENDBRANCH   9  13
TORSDOF 1
ENDMDL
MODEL 2
REMARK VINA RESULT:      -7.6      0.306      1.204
REMARK  Name = 
REMARK  1 active torsions:
REMARK  status: ('A' for Active; 'I' for Inactive)
REMARK    1  A    between atoms: C_9  and  C_10
REMARK                            x       y       z     vdW  Elec       q    Type
REMARK                         _______ _______ _______ _____ _____    ______ ____
ROOT
ATOM      1  O   UNL     1       1.946   3.263  17.110  0.00  0.00    +0.000 OA
ATOM      2  C   UNL     1       2.545   4.031  17.859  0.00  0.00    +0.000 C 
ATOM      3  C   UNL     1       1.902   4.608  19.091  0.00  0.00    +0.000 C 
ATOM      4  C   UNL     1       2.949   4.793  20.170  0.00  0.00    +0.000 C 
ATOM      5  N   UNL     1       4.029   5.654  19.704  0.00  0.00    +0.000 N 
ATOM      6  C   UNL     1       4.603   5.266  18.482  0.00  0.00    +0.000 A 
ATOM      7  C   UNL     1       5.843   5.787  18.112  0.00  0.00    +0.000 A 
ATOM      8  C   UNL     1       6.387   5.523  16.847  0.00  0.00    +0.000 A 
ATOM      9  C   UNL     1       5.710   4.737  15.896  0.00  0.00    +0.000 A 
ATOM     10  C   UNL     1       4.466   4.210  16.280  0.00  0.00    +0.000 A 
ATOM     11  C   UNL     1       3.911   4.500  17.535  0.00  0.00    +0.000 A 
ATOM     12  H   UNL     1       4.731   5.850  20.416  0.00  0.00    +0.000 HD
ENDROOT
BRANCH   9  13
ATOM     13  C   UNL     1       6.258   4.533  14.533  0.00  0.00    +0.000 A 
ATOM     14  C   UNL     1       7.376   5.252  14.069  0.00  0.00    +0.000 A 
ATOM     15  C   UNL     1       7.849   5.109  12.760  0.00  0.00    +0.000 A 
ATOM     16  C   UNL     1       7.224   4.227  11.885  0.00  0.00    +0.000 A 
ATOM     17  C   UNL     1       6.129   3.485  12.321  0.00  0.00    +0.000 A 
ATOM     18  C   UNL     1       5.653   3.643  13.625  0.00  0.00    +0.000 A 
ENDBRANCH   9  13
TORSDOF 1
ENDMDL
MODEL 3
REMARK VINA RESULT:      -7.4      2.459      5.974
REMARK  Name = 
REMARK  1 active torsions:
REMARK  status: ('A' for Active; 'I' for Inactive)
REMARK    1  A    between atoms: C_9  and  C_10
REMARK                            x       y       z     vdW  Elec       q    Type
REMARK                         _______ _______ _______ _____ _____    ______ ____
ROOT
ATOM      1  O   UNL     1       5.044   3.270  12.374  0.00  0.00    +0.000 OA
ATOM      2  C   UNL     1       5.979   3.855  12.915  0.00  0.00    +0.000 C 
ATOM      3  C   UNL     1       7.294   4.077  12.218  0.00  0.00    +0.000 C 
ATOM      4  C   UNL     1       7.894   5.391  12.674  0.00  0.00    +0.000 C 
ATOM      5  N   UNL     1       8.072   5.406  14.121  0.00  0.00    +0.000 N 
ATOM      6  C   UNL     1       6.922   5.074  14.857  0.00  0.00    +0.000 A 
ATOM      7  C   UNL     1       6.866   5.386  16.216  0.00  0.00    +0.000 A 
ATOM      8  C   UNL     1       5.792   4.959  17.009  0.00  0.00    +0.000 A 
ATOM      9  C   UNL     1       4.735   4.195  16.480  0.00  0.00    +0.000 A 
ATOM     10  C   UNL     1       4.795   3.892  15.109  0.00  0.00    +0.000 A 
ATOM     11  C   UNL     1       5.887   4.296  14.326  0.00  0.00    +0.000 A 
ATOM     12  H   UNL     1       8.524   6.250  14.468  0.00  0.00    +0.000 HD
ENDROOT
BRANCH   9  13
ATOM     13  C   UNL     1       3.647   3.679  17.346  0.00  0.00    +0.000 A 
ATOM     14  C   UNL     1       3.669   2.370  17.862  0.00  0.00    +0.000 A 
ATOM     15  C   UNL     1       2.609   1.863  18.622  0.00  0.00    +0.000 A 
ATOM     16  C   UNL     1       1.505   2.661  18.899  0.00  0.00    +0.000 A 
ATOM     17  C   UNL     1       1.463   3.969  18.422  0.00  0.00    +0.000 A 
ATOM     18  C   UNL     1       2.519   4.465  17.651  0.00  0.00    +0.000 A 
ENDBRANCH   9  13
TORSDOF 1
ENDMDL
MODEL 4
REMARK VINA RESULT:      -7.4      3.143      4.270
REMARK  Name = 
REMARK  1 active torsions:
REMARK  status: ('A' for Active; 'I' for Inactive)
REMARK    1  A    between atoms: C_9  and  C_10
REMARK                            x       y       z     vdW  Elec       q    Type
REMARK                         _______ _______ _______ _____ _____    ______ ____
ROOT
ATOM      1  O   UNL     1       2.163   4.739  21.358  0.00  0.00    +0.000 OA
ATOM      2  C   UNL     1       2.068   3.908  20.458  0.00  0.00    +0.000 C 
ATOM      3  C   UNL     1       1.160   2.713  20.565  0.00  0.00    +0.000 C 
ATOM      4  C   UNL     1       0.621   2.361  19.194  0.00  0.00    +0.000 C 
ATOM      5  N   UNL     1       1.709   2.096  18.260  0.00  0.00    +0.000 N 
ATOM      6  C   UNL     1       2.684   3.106  18.194  0.00  0.00    +0.000 A 
ATOM      7  C   UNL     1       3.566   3.135  17.113  0.00  0.00    +0.000 A 
ATOM      8  C   UNL     1       4.629   4.047  17.077  0.00  0.00    +0.000 A 
ATOM      9  C   UNL     1       4.862   4.960  18.122  0.00  0.00    +0.000 A 
ATOM     10  C   UNL     1       3.965   4.929  19.202  0.00  0.00    +0.000 A 
ATOM     11  C   UNL     1       2.919   3.995  19.249  0.00  0.00    +0.000 A 
ATOM     12  H   UNL     1       1.392   1.802  17.338  0.00  0.00    +0.000 HD
ENDROOT
BRANCH   9  13
ATOM     13  C   UNL     1       6.039   5.864  18.109  0.00  0.00    +0.000 A 
ATOM     14  C   UNL     1       7.124   5.678  18.986  0.00  0.00    +0.000 A 
ATOM     15  C   UNL     1       8.201   6.570  19.021  0.00  0.00    +0.000 A 
ATOM     16  C   UNL     1       8.227   7.665  18.164  0.00  0.00    +0.000 A 
ATOM     17  C   UNL     1       7.179   7.864  17.269  0.00  0.00    +0.000 A 
ATOM     18  C   UNL     1       6.099   6.977  17.249  0.00  0.00    +0.000 A 
ENDBRANCH   9  13
TORSDOF 1
ENDMDL
MODEL 5
REMARK VINA RESULT:      -7.3      2.454      6.008
REMARK  Name = 
REMARK  1 active torsions:
REMARK  status: ('A' for Active; 'I' for Inactive)
REMARK    1  A    between atoms: C_9  and  C_10
REMARK                            x       y       z     vdW  Elec       q    Type
REMARK                         _______ _______ _______ _____ _____    ______ ____
ROOT
ATOM      1  O   UNL     1       5.027   3.268  12.355  0.00  0.00    +0.000 OA
ATOM      2  C   UNL     1       5.963   3.840  12.907  0.00  0.00    +0.000 C 
ATOM      3  C   UNL     1       7.284   4.059  12.221  0.00  0.00    +0.000 C 
ATOM      4  C   UNL     1       7.892   5.363  12.695  0.00  0.00    +0.000 C 
ATOM      5  N   UNL     1       8.060   5.362  14.143  0.00  0.00    +0.000 N 
ATOM      6  C   UNL     1       6.902   5.033  14.868  0.00  0.00    +0.000 A 
ATOM      7  C   UNL     1       6.840   5.331  16.229  0.00  0.00    +0.000 A 
ATOM      8  C   UNL     1       5.757   4.905  17.011  0.00  0.00    +0.000 A 
ATOM      9  C   UNL     1       4.698   4.154  16.468  0.00  0.00    +0.000 A 
ATOM     10  C   UNL     1       4.765   3.865  15.094  0.00  0.00    +0.000 A 
ATOM     11  C   UNL     1       5.865   4.268  14.322  0.00  0.00    +0.000 A 
ATOM     12  H   UNL     1       8.516   6.200  14.502  0.00  0.00    +0.000 HD
ENDROOT
BRANCH   9  13
ATOM     13  C   UNL     1       3.599   3.639  17.321  0.00  0.00    +0.000 A 
ATOM     14  C   UNL     1       2.479   4.428  17.642  0.00  0.00    +0.000 A 
ATOM     15  C   UNL     1       1.477   3.965  18.502  0.00  0.00    +0.000 A 
ATOM     16  C   UNL     1       1.564   2.690  19.051  0.00  0.00    +0.000 A 
ATOM     17  C   UNL     1       2.649   1.876  18.735  0.00  0.00    +0.000 A 
ATOM     18  C   UNL     1       3.653   2.350  17.886  0.00  0.00    +0.000 A 
ENDBRANCH   9  13
TORSDOF 1
ENDMDL
MODEL 6
REMARK VINA RESULT:      -7.3      3.151      4.252
REMARK  Name = 
REMARK  1 active torsions:
REMARK  status: ('A' for Active; 'I' for Inactive)
REMARK    1  A    between atoms: C_9  and  C_10
REMARK                            x       y       z     vdW  Elec       q    Type
REMARK                         _______ _______ _______ _____ _____    ______ ____
ROOT
ATOM      1  O   UNL     1       1.880   4.818  21.109  0.00  0.00    +0.000 OA
ATOM      2  C   UNL     1       1.897   3.931  20.259  0.00  0.00    +0.000 C 
ATOM      3  C   UNL     1       1.023   2.711  20.358  0.00  0.00    +0.000 C 
ATOM      4  C   UNL     1       0.625   2.257  18.969  0.00  0.00    +0.000 C 
ATOM      5  N   UNL     1       1.803   1.979  18.156  0.00  0.00    +0.000 N 
ATOM      6  C   UNL     1       2.746   3.021  18.114  0.00  0.00    +0.000 A 
ATOM      7  C   UNL     1       3.722   3.020  17.118  0.00  0.00    +0.000 A 
ATOM      8  C   UNL     1       4.753   3.969  17.120  0.00  0.00    +0.000 A 
ATOM      9  C   UNL     1       4.858   4.951  18.122  0.00  0.00    +0.000 A 
ATOM     10  C   UNL     1       3.866   4.950  19.117  0.00  0.00    +0.000 A 
ATOM     11  C   UNL     1       2.853   3.980  19.128  0.00  0.00    +0.000 A 
ATOM     12  H   UNL     1       1.583   1.619  17.228  0.00  0.00    +0.000 HD
ENDROOT
BRANCH   9  13
ATOM     13  C   UNL     1       6.000   5.898  18.159  0.00  0.00    +0.000 A 
ATOM     14  C   UNL     1       6.071   7.005  17.294  0.00  0.00    +0.000 A 
ATOM     15  C   UNL     1       7.180   7.859  17.283  0.00  0.00    +0.000 A 
ATOM     16  C   UNL     1       8.242   7.633  18.153  0.00  0.00    +0.000 A 
ATOM     17  C   UNL     1       8.191   6.558  19.037  0.00  0.00    +0.000 A 
ATOM     18  C   UNL     1       7.086   5.701  19.032  0.00  0.00    +0.000 A 
ENDBRANCH   9  13
TORSDOF 1
ENDMDL
MODEL 7
REMARK VINA RESULT:      -7.3      3.516      6.667
REMARK  Name = 
REMARK  1 active torsions:
REMARK  status: ('A' for Active; 'I' for Inactive)
REMARK    1  A    between atoms: C_9  and  C_10
REMARK                            x       y       z     vdW  Elec       q    Type
REMARK                         _______ _______ _______ _____ _____    ______ ____
ROOT
ATOM      1  O   UNL     1       5.202   7.077  15.096  0.00  0.00    +0.000 OA
ATOM      2  C   UNL     1       5.270   6.093  15.828  0.00  0.00    +0.000 C 
ATOM      3  C   UNL     1       5.945   4.820  15.395  0.00  0.00    +0.000 C 
ATOM      4  C   UNL     1       6.587   4.153  16.594  0.00  0.00    +0.000 C 
ATOM      5  N   UNL     1       5.597   3.881  17.629  0.00  0.00    +0.000 N 
ATOM      6  C   UNL     1       4.820   4.991  18.003  0.00  0.00    +0.000 A 
ATOM      7  C   UNL     1       4.099   4.950  19.197  0.00  0.00    +0.000 A 
ATOM      8  C   UNL     1       3.215   5.983  19.540  0.00  0.00    +0.000 A 
ATOM      9  C   UNL     1       3.008   7.093  18.701  0.00  0.00    +0.000 A 
ATOM     10  C   UNL     1       3.744   7.130  17.505  0.00  0.00    +0.000 A 
ATOM     11  C   UNL     1       4.605   6.080  17.151  0.00  0.00    +0.000 A 
ATOM     12  H   UNL     1       5.974   3.384  18.434  0.00  0.00    +0.000 HD
ENDROOT
BRANCH   9  13
ATOM     13  C   UNL     1       2.009   8.138  19.036  0.00  0.00    +0.000 A 
ATOM     14  C   UNL     1       1.510   8.292  20.342  0.00  0.00    +0.000 A 
ATOM     15  C   UNL     1       0.518   9.233  20.643  0.00  0.00    +0.000 A 
ATOM     16  C   UNL     1       0.012  10.056  19.643  0.00  0.00    +0.000 A 
ATOM     17  C   UNL     1       0.503   9.943  18.344  0.00  0.00    +0.000 A 
ATOM     18  C   UNL     1       1.483   8.992  18.048  0.00  0.00    +0.000 A 
ENDBRANCH   9  13
TORSDOF 1
ENDMDL
MODEL 8
REMARK VINA RESULT:      -7.2      3.394      6.666
REMARK  Name = 
REMARK  1 active torsions:
REMARK  status: ('A' for Active; 'I' for Inactive)
REMARK    1  A    between atoms: C_9  and  C_10
REMARK                            x       y       z     vdW  Elec       q    Type
REMARK                         _______ _______ _______ _____ _____    ______ ____
ROOT
ATOM      1  O   UNL     1       5.326   7.013  15.201  0.00  0.00    +0.000 OA
ATOM      2  C   UNL     1       5.157   5.907  15.709  0.00  0.00    +0.000 C 
ATOM      3  C   UNL     1       5.620   4.641  15.042  0.00  0.00    +0.000 C 
ATOM      4  C   UNL     1       6.037   3.635  16.095  0.00  0.00    +0.000 C 
ATOM      5  N   UNL     1       4.939   3.358  17.013  0.00  0.00    +0.000 N 
ATOM      6  C   UNL     1       4.350   4.499  17.585  0.00  0.00    +0.000 A 
ATOM      7  C   UNL     1       3.545   4.360  18.715  0.00  0.00    +0.000 A 
ATOM      8  C   UNL     1       2.841   5.454  19.237  0.00  0.00    +0.000 A 
ATOM      9  C   UNL     1       2.903   6.729  18.645  0.00  0.00    +0.000 A 
ATOM     10  C   UNL     1       3.722   6.862  17.512  0.00  0.00    +0.000 A 
ATOM     11  C   UNL     1       4.402   5.758  16.975  0.00  0.00    +0.000 A 
ATOM     12  H   UNL     1       5.156   2.646  17.707  0.00  0.00    +0.000 HD
ENDROOT
BRANCH   9  13
ATOM     13  C   UNL     1       2.089   7.858  19.157  0.00  0.00    +0.000 A 
ATOM     14  C   UNL     1       1.757   8.958  18.345  0.00  0.00    +0.000 A 
ATOM     15  C   UNL     1       1.047  10.054  18.849  0.00  0.00    +0.000 A 
ATOM     16  C   UNL     1       0.637  10.069  20.178  0.00  0.00    +0.000 A 
ATOM     17  C   UNL     1       0.931   8.985  21.001  0.00  0.00    +0.000 A 
ATOM     18  C   UNL     1       1.652   7.899  20.495  0.00  0.00    +0.000 A 
ENDBRANCH   9  13
TORSDOF 1
ENDMDL
MODEL 9
REMARK VINA RESULT:      -7.2      1.061      1.459
REMARK  Name = 
REMARK  1 active torsions:
REMARK  status: ('A' for Active; 'I' for Inactive)
REMARK    1  A    between atoms: C_9  and  C_10
REMARK                            x       y       z     vdW  Elec       q    Type
REMARK                         _______ _______ _______ _____ _____    ______ ____
ROOT
ATOM      1  O   UNL     1       1.475   2.222  17.990  0.00  0.00    +0.000 OA
ATOM      2  C   UNL     1       1.780   3.105  18.788  0.00  0.00    +0.000 C 
ATOM      3  C   UNL     1       0.894   3.477  19.946  0.00  0.00    +0.000 C 
ATOM      4  C   UNL     1       1.749   3.907  21.120  0.00  0.00    +0.000 C 
ATOM      5  N   UNL     1       2.611   5.024  20.755  0.00  0.00    +0.000 N 
ATOM      6  C   UNL     1       3.381   4.817  19.597  0.00  0.00    +0.000 A 
ATOM      7  C   UNL     1       4.474   5.646  19.346  0.00  0.00    +0.000 A 
ATOM      8  C   UNL     1       5.188   5.552  18.143  0.00  0.00    +0.000 A 
ATOM      9  C   UNL     1       4.831   4.634  17.137  0.00  0.00    +0.000 A 
ATOM     10  C   UNL     1       3.734   3.798  17.402  0.00  0.00    +0.000 A 
ATOM     11  C   UNL     1       3.004   3.915  18.595  0.00  0.00    +0.000 A 
ATOM     12  H   UNL     1       3.166   5.383  21.530  0.00  0.00    +0.000 HD
ENDROOT
BRANCH   9  13
ATOM     13  C   UNL     1       5.542   4.601  15.836  0.00  0.00    +0.000 A 
ATOM     14  C   UNL     1       5.030   3.896  14.731  0.00  0.00    +0.000 A 
ATOM     15  C   UNL     1       5.734   3.809  13.525  0.00  0.00    +0.000 A 
ATOM     16  C   UNL     1       6.966   4.441  13.389  0.00  0.00    +0.000 A 
ATOM     17  C   UNL     1       7.489   5.165  14.457  0.00  0.00    +0.000 A 
ATOM     18  C   UNL     1       6.787   5.237  15.664  0.00  0.00    +0.000 A 
ENDBRANCH   9  13
TORSDOF 1
ENDMDL
