MODEL 1
REMARK VINA RESULT:      -8.8      0.000      0.000
REMARK  Name = 
REMARK  8 active torsions:
REMARK  status: ('A' for Active; 'I' for Inactive)
REMARK    1  A    between atoms: C_2  and  C_3
REMARK    2  A    between atoms: C_6  and  S_7
REMARK    3  A    between atoms: S_7  and  N_10
REMARK    4  A    between atoms: N_10  and  C_11
REMARK    5  A    between atoms: C_14  and  C_15
REMARK    6  A    between atoms: C_15  and  O_16
REMARK    7  A    between atoms: N_21  and  C_22
REMARK    8  A    between atoms: C_22  and  C_23
REMARK                            x       y       z     vdW  Elec       q    Type
REMARK                         _______ _______ _______ _____ _____    ______ ____
ROOT
ATOM      1  C   UNL     1       1.756   9.102  18.465  0.00  0.00    +0.000 A 
ATOM      2  C   UNL     1       2.238   8.089  17.638  0.00  0.00    +0.000 A 
ATOM      3  C   UNL     1       2.427   6.801  18.148  0.00  0.00    +0.000 A 
ATOM      4  C   UNL     1       2.138   6.506  19.495  0.00  0.00    +0.000 A 
ATOM      5  C   UNL     1       1.666   7.553  20.310  0.00  0.00    +0.000 A 
ATOM      6  C   UNL     1       1.462   8.837  19.796  0.00  0.00    +0.000 A 
ENDROOT
BRANCH   4   7
ATOM      7  C   UNL     1       2.340   5.109  20.083  0.00  0.00    +0.000 C 
ATOM      8  C   UNL     1       1.052   4.287  19.884  0.00  0.00    +0.000 C 
ATOM      9  S   UNL     1       1.604   2.583  20.057  0.00  0.00    +0.000 S 
ATOM     10  C   UNL     1       3.249   2.969  19.542  0.00  0.00    +0.000 C 
ATOM     11  S   UNL     1       4.321   1.740  19.188  0.00  0.00    +0.000 S 
ATOM     12  N   UNL     1       3.446   4.353  19.491  0.00  0.00    +0.000 N 
BRANCH   7  13
ATOM     13  O   UNL     1       2.643   5.211  21.476  0.00  0.00    +0.000 OA
ATOM     14  H   UNL     1       2.206   6.013  21.813  0.00  0.00    +0.000 HD
ENDBRANCH   7  13
BRANCH  12  15
ATOM     15  C   UNL     1       4.788   4.962  19.435  0.00  0.00    +0.000 C 
BRANCH  15  16
ATOM     16  C   UNL     1       5.495   4.861  18.103  0.00  0.00    +0.000 A 
ATOM     17  C   UNL     1       4.801   4.745  16.892  0.00  0.00    +0.000 A 
ATOM     18  C   UNL     1       5.491   4.565  15.694  0.00  0.00    +0.000 A 
ATOM     19  C   UNL     1       6.870   4.513  15.735  0.00  0.00    +0.000 A 
ATOM     20  N   UNL     1       7.585   4.631  16.872  0.00  0.00    +0.000 NA
ATOM     21  C   UNL     1       6.883   4.783  18.023  0.00  0.00    +0.000 A 
ENDBRANCH  15  16
ENDBRANCH  12  15
ENDBRANCH   4   7
BRANCH   1  22
ATOM     22  N   UNL     1       1.463  10.377  17.916  0.00  0.00    +0.000 N 
ATOM     23  H   UNL     1       0.928  10.393  17.047  0.00  0.00    +0.000 HD
BRANCH  22  24
ATOM     24  S   UNL     1       0.838  11.544  18.982  0.00  0.00    +0.000 S 
ATOM     25  O   UNL     1       1.251  12.866  18.561  0.00  0.00    +0.000 OA
ATOM     26  O   UNL     1       1.129  11.050  20.310  0.00  0.00    +0.000 OA
BRANCH  24  30
ATOM     27  C   UNL     1      -3.671  11.197  18.351  0.00  0.00    +0.000 A 
ATOM     28  C   UNL     1      -3.153  12.131  19.257  0.00  0.00    +0.000 A 
ATOM     29  C   UNL     1      -1.774  12.222  19.457  0.00  0.00    +0.000 A 
ATOM     30  C   UNL     1      -0.914  11.371  18.753  0.00  0.00    +0.000 A 
ATOM     31  C   UNL     1      -1.421  10.438  17.846  0.00  0.00    +0.000 A 
ATOM     32  C   UNL     1      -2.803  10.351  17.648  0.00  0.00    +0.000 A 
BRANCH  27  34
ATOM     33  N   UNL     1      -6.233  11.041  17.972  0.00  0.00    +0.000 NA
ATOM     34  C   UNL     1      -5.086  11.116  18.139  0.00  0.00    +0.000 C 
ENDBRANCH  27  34
ENDBRANCH  24  30
ENDBRANCH  22  24
ENDBRANCH   1  22
TORSDOF 8
ENDMDL
MODEL 2
REMARK VINA RESULT:      -8.7      2.064      2.644
REMARK  Name = 
REMARK  8 active torsions:
REMARK  status: ('A' for Active; 'I' for Inactive)
REMARK    1  A    between atoms: C_2  and  C_3
REMARK    2  A    between atoms: C_6  and  S_7
REMARK    3  A    between atoms: S_7  and  N_10
REMARK    4  A    between atoms: N_10  and  C_11
REMARK    5  A    between atoms: C_14  and  C_15
REMARK    6  A    between atoms: C_15  and  O_16
REMARK    7  A    between atoms: N_21  and  C_22
REMARK    8  A    between atoms: C_22  and  C_23
REMARK                            x       y       z     vdW  Elec       q    Type
REMARK                         _______ _______ _______ _____ _____    ______ ____
ROOT
ATOM      1  C   UNL     1       1.401   9.226  19.720  0.00  0.00    +0.000 A 
ATOM      2  C   UNL     1       1.090   8.588  20.918  0.00  0.00    +0.000 A 
ATOM      3  C   UNL     1       1.346   7.222  21.070  0.00  0.00    +0.000 A 
ATOM      4  C   UNL     1       1.916   6.472  20.023  0.00  0.00    +0.000 A 
ATOM      5  C   UNL     1       2.207   7.140  18.818  0.00  0.00    +0.000 A 
ATOM      6  C   UNL     1       1.966   8.509  18.672  0.00  0.00    +0.000 A 
ENDROOT
BRANCH   4   7
ATOM      7  C   UNL     1       2.202   4.975  20.157  0.00  0.00    +0.000 C 
ATOM      8  C   UNL     1       0.927   4.185  19.806  0.00  0.00    +0.000 C 
ATOM      9  S   UNL     1       1.539   2.535  19.430  0.00  0.00    +0.000 S 
ATOM     10  C   UNL     1       3.128   3.136  18.948  0.00  0.00    +0.000 C 
ATOM     11  S   UNL     1       4.204   2.121  18.177  0.00  0.00    +0.000 S 
ATOM     12  N   UNL     1       3.281   4.482  19.297  0.00  0.00    +0.000 N 
BRANCH   7  13
ATOM     13  O   UNL     1       2.607   4.678  21.495  0.00  0.00    +0.000 OA
ATOM     14  H   UNL     1       3.571   4.797  21.542  0.00  0.00    +0.000 HD
ENDBRANCH   7  13
BRANCH  12  15
ATOM     15  C   UNL     1       4.597   5.147  19.337  0.00  0.00    +0.000 C 
BRANCH  15  16
ATOM     16  C   UNL     1       5.333   5.217  18.019  0.00  0.00    +0.000 A 
ATOM     17  C   UNL     1       4.701   5.584  16.825  0.00  0.00    +0.000 A 
ATOM     18  C   UNL     1       5.394   5.550  15.616  0.00  0.00    +0.000 A 
ATOM     19  C   UNL     1       6.717   5.154  15.631  0.00  0.00    +0.000 A 
ATOM     20  N   UNL     1       7.374   4.801  16.755  0.00  0.00    +0.000 NA
ATOM     21  C   UNL     1       6.665   4.825  17.911  0.00  0.00    +0.000 A 
ENDBRANCH  15  16
ENDBRANCH  12  15
ENDBRANCH   4   7
BRANCH   1  22
ATOM     22  N   UNL     1       1.242  10.632  19.609  0.00  0.00    +0.000 N 
ATOM     23  H   UNL     1       2.014  11.151  19.190  0.00  0.00    +0.000 HD
BRANCH  22  24
ATOM     24  S   UNL     1      -0.227  11.188  18.960  0.00  0.00    +0.000 S 
ATOM     25  O   UNL     1      -0.902  10.107  18.274  0.00  0.00    +0.000 OA
ATOM     26  O   UNL     1       0.093  12.427  18.286  0.00  0.00    +0.000 OA
BRANCH  24  30
ATOM     27  C   UNL     1      -2.665  12.256  22.671  0.00  0.00    +0.000 A 
ATOM     28  C   UNL     1      -3.122  12.612  21.395  0.00  0.00    +0.000 A 
ATOM     29  C   UNL     1      -2.365  12.296  20.266  0.00  0.00    +0.000 A 
ATOM     30  C   UNL     1      -1.144  11.629  20.415  0.00  0.00    +0.000 A 
ATOM     31  C   UNL     1      -0.680  11.268  21.682  0.00  0.00    +0.000 A 
ATOM     32  C   UNL     1      -1.443  11.585  22.810  0.00  0.00    +0.000 A 
BRANCH  27  34
ATOM     33  N   UNL     1      -4.081  12.822  24.769  0.00  0.00    +0.000 NA
ATOM     34  C   UNL     1      -3.451  12.570  23.826  0.00  0.00    +0.000 C 
ENDBRANCH  27  34
ENDBRANCH  24  30
ENDBRANCH  22  24
ENDBRANCH   1  22
TORSDOF 8
ENDMDL
MODEL 3
REMARK VINA RESULT:      -8.6      2.330      3.307
REMARK  Name = 
REMARK  8 active torsions:
REMARK  status: ('A' for Active; 'I' for Inactive)
REMARK    1  A    between atoms: C_2  and  C_3
REMARK    2  A    between atoms: C_6  and  S_7
REMARK    3  A    between atoms: S_7  and  N_10
REMARK    4  A    between atoms: N_10  and  C_11
REMARK    5  A    between atoms: C_14  and  C_15
REMARK    6  A    between atoms: C_15  and  O_16
REMARK    7  A    between atoms: N_21  and  C_22
REMARK    8  A    between atoms: C_22  and  C_23
REMARK                            x       y       z     vdW  Elec       q    Type
REMARK                         _______ _______ _______ _____ _____    ______ ____
ROOT
ATOM      1  C   UNL     1       1.869   8.918  18.733  0.00  0.00    +0.000 A 
ATOM      2  C   UNL     1       2.225   7.962  17.784  0.00  0.00    +0.000 A 
ATOM      3  C   UNL     1       2.377   6.625  18.163  0.00  0.00    +0.000 A 
ATOM      4  C   UNL     1       2.177   6.223  19.498  0.00  0.00    +0.000 A 
ATOM      5  C   UNL     1       1.831   7.214  20.438  0.00  0.00    +0.000 A 
ATOM      6  C   UNL     1       1.664   8.548  20.056  0.00  0.00    +0.000 A 
ENDROOT
BRANCH   4   7
ATOM      7  C   UNL     1       2.342   4.770  19.943  0.00  0.00    +0.000 C 
ATOM      8  C   UNL     1       1.026   4.011  19.685  0.00  0.00    +0.000 C 
ATOM      9  S   UNL     1       1.526   2.282  19.682  0.00  0.00    +0.000 S 
ATOM     10  C   UNL     1       3.175   2.666  19.181  0.00  0.00    +0.000 C 
ATOM     11  S   UNL     1       4.202   1.446  18.691  0.00  0.00    +0.000 S 
ATOM     12  N   UNL     1       3.415   4.042  19.262  0.00  0.00    +0.000 N 
BRANCH   7  13
ATOM     13  O   UNL     1       2.666   4.725  21.335  0.00  0.00    +0.000 OA
ATOM     14  H   UNL     1       2.449   3.834  21.657  0.00  0.00    +0.000 HD
ENDBRANCH   7  13
BRANCH  12  15
ATOM     15  C   UNL     1       4.775   4.613  19.244  0.00  0.00    +0.000 C 
BRANCH  15  16
ATOM     16  C   UNL     1       5.450   4.647  17.892  0.00  0.00    +0.000 A 
ATOM     17  C   UNL     1       4.733   4.551  16.694  0.00  0.00    +0.000 A 
ATOM     18  C   UNL     1       5.401   4.497  15.471  0.00  0.00    +0.000 A 
ATOM     19  C   UNL     1       6.781   4.549  15.476  0.00  0.00    +0.000 A 
ATOM     20  N   UNL     1       7.517   4.652  16.601  0.00  0.00    +0.000 NA
ATOM     21  C   UNL     1       6.837   4.681  17.775  0.00  0.00    +0.000 A 
ENDBRANCH  15  16
ENDBRANCH  12  15
ENDBRANCH   4   7
BRANCH   1  22
ATOM     22  N   UNL     1       1.608  10.252  18.324  0.00  0.00    +0.000 N 
ATOM     23  H   UNL     1       1.699  10.455  17.328  0.00  0.00    +0.000 HD
BRANCH  22  24
ATOM     24  S   UNL     1       0.187  10.972  18.916  0.00  0.00    +0.000 S 
ATOM     25  O   UNL     1      -0.020  10.587  20.297  0.00  0.00    +0.000 OA
ATOM     26  O   UNL     1      -0.819  10.728  17.906  0.00  0.00    +0.000 OA
BRANCH  24  30
ATOM     27  C   UNL     1       1.210  15.411  18.605  0.00  0.00    +0.000 A 
ATOM     28  C   UNL     1       2.219  14.443  18.510  0.00  0.00    +0.000 A 
ATOM     29  C   UNL     1       1.901  13.088  18.620  0.00  0.00    +0.000 A 
ATOM     30  C   UNL     1       0.573  12.702  18.836  0.00  0.00    +0.000 A 
ATOM     31  C   UNL     1      -0.439  13.660  18.931  0.00  0.00    +0.000 A 
ATOM     32  C   UNL     1      -0.117  15.016  18.817  0.00  0.00    +0.000 A 
BRANCH  27  34
ATOM     33  N   UNL     1       1.812  17.924  18.377  0.00  0.00    +0.000 NA
ATOM     34  C   UNL     1       1.538  16.800  18.478  0.00  0.00    +0.000 C 
ENDBRANCH  27  34
ENDBRANCH  24  30
ENDBRANCH  22  24
ENDBRANCH   1  22
TORSDOF 8
ENDMDL
MODEL 4
REMARK VINA RESULT:      -8.6      0.158      1.219
REMARK  Name = 
REMARK  8 active torsions:
REMARK  status: ('A' for Active; 'I' for Inactive)
REMARK    1  A    between atoms: C_2  and  C_3
REMARK    2  A    between atoms: C_6  and  S_7
REMARK    3  A    between atoms: S_7  and  N_10
REMARK    4  A    between atoms: N_10  and  C_11
REMARK    5  A    between atoms: C_14  and  C_15
REMARK    6  A    between atoms: C_15  and  O_16
REMARK    7  A    between atoms: N_21  and  C_22
REMARK    8  A    between atoms: C_22  and  C_23
REMARK                            x       y       z     vdW  Elec       q    Type
REMARK                         _______ _______ _______ _____ _____    ______ ____
ROOT
ATOM      1  C   UNL     1       1.673   9.120  18.610  0.00  0.00    +0.000 A 
ATOM      2  C   UNL     1       1.472   8.862  19.964  0.00  0.00    +0.000 A 
ATOM      3  C   UNL     1       1.678   7.575  20.468  0.00  0.00    +0.000 A 
ATOM      4  C   UNL     1       2.088   6.523  19.625  0.00  0.00    +0.000 A 
ATOM      5  C   UNL     1       2.270   6.810  18.258  0.00  0.00    +0.000 A 
ATOM      6  C   UNL     1       2.079   8.101  17.757  0.00  0.00    +0.000 A 
ENDROOT
BRANCH   4   7
ATOM      7  C   UNL     1       2.315   5.104  20.146  0.00  0.00    +0.000 C 
ATOM      8  C   UNL     1       1.028   4.280  19.945  0.00  0.00    +0.000 C 
ATOM      9  S   UNL     1       1.597   2.575  20.028  0.00  0.00    +0.000 S 
ATOM     10  C   UNL     1       3.225   2.997  19.487  0.00  0.00    +0.000 C 
ATOM     11  S   UNL     1       4.295   1.794  19.050  0.00  0.00    +0.000 S 
ATOM     12  N   UNL     1       3.410   4.383  19.491  0.00  0.00    +0.000 N 
BRANCH   7  13
ATOM     13  O   UNL     1       2.655   5.147  21.534  0.00  0.00    +0.000 OA
ATOM     14  H   UNL     1       2.040   5.764  21.966  0.00  0.00    +0.000 HD
ENDBRANCH   7  13
BRANCH  12  15
ATOM     15  C   UNL     1       4.746   5.005  19.426  0.00  0.00    +0.000 C 
BRANCH  15  16
ATOM     16  C   UNL     1       5.442   4.918  18.087  0.00  0.00    +0.000 A 
ATOM     17  C   UNL     1       4.738   4.872  16.878  0.00  0.00    +0.000 A 
ATOM     18  C   UNL     1       5.413   4.701  15.671  0.00  0.00    +0.000 A 
ATOM     19  C   UNL     1       6.790   4.588  15.701  0.00  0.00    +0.000 A 
ATOM     20  N   UNL     1       7.514   4.638  16.837  0.00  0.00    +0.000 NA
ATOM     21  C   UNL     1       6.824   4.783  17.996  0.00  0.00    +0.000 A 
ENDBRANCH  15  16
ENDBRANCH  12  15
ENDBRANCH   4   7
BRANCH   1  22
ATOM     22  N   UNL     1       1.569  10.449  18.124  0.00  0.00    +0.000 N 
ATOM     23  H   UNL     1       1.150  10.571  17.202  0.00  0.00    +0.000 HD
BRANCH  22  24
ATOM     24  S   UNL     1       0.929  11.607  19.190  0.00  0.00    +0.000 S 
ATOM     25  O   UNL     1       1.419  12.924  18.839  0.00  0.00    +0.000 OA
ATOM     26  O   UNL     1       1.121  11.060  20.515  0.00  0.00    +0.000 OA
BRANCH  24  30
ATOM     27  C   UNL     1      -3.549  11.267  18.365  0.00  0.00    +0.000 A 
ATOM     28  C   UNL     1      -2.636  10.472  17.659  0.00  0.00    +0.000 A 
ATOM     29  C   UNL     1      -1.267  10.592  17.905  0.00  0.00    +0.000 A 
ATOM     30  C   UNL     1      -0.811  11.514  18.854  0.00  0.00    +0.000 A 
ATOM     31  C   UNL     1      -1.714  12.309  19.565  0.00  0.00    +0.000 A 
ATOM     32  C   UNL     1      -3.084  12.185  19.316  0.00  0.00    +0.000 A 
BRANCH  27  34
ATOM     33  N   UNL     1      -6.094  11.022  17.928  0.00  0.00    +0.000 NA
ATOM     34  C   UNL     1      -4.954  11.132  18.118  0.00  0.00    +0.000 C 
ENDBRANCH  27  34
ENDBRANCH  24  30
ENDBRANCH  22  24
ENDBRANCH   1  22
TORSDOF 8
ENDMDL
MODEL 5
REMARK VINA RESULT:      -8.6      2.321      3.015
REMARK  Name = 
REMARK  8 active torsions:
REMARK  status: ('A' for Active; 'I' for Inactive)
REMARK    1  A    between atoms: C_2  and  C_3
REMARK    2  A    between atoms: C_6  and  S_7
REMARK    3  A    between atoms: S_7  and  N_10
REMARK    4  A    between atoms: N_10  and  C_11
REMARK    5  A    between atoms: C_14  and  C_15
REMARK    6  A    between atoms: C_15  and  O_16
REMARK    7  A    between atoms: N_21  and  C_22
REMARK    8  A    between atoms: C_22  and  C_23
REMARK                            x       y       z     vdW  Elec       q    Type
REMARK                         _______ _______ _______ _____ _____    ______ ____
ROOT
ATOM      1  C   UNL     1       1.491   9.374  19.255  0.00  0.00    +0.000 A 
ATOM      2  C   UNL     1       1.956   8.516  18.260  0.00  0.00    +0.000 A 
ATOM      3  C   UNL     1       2.199   7.172  18.554  0.00  0.00    +0.000 A 
ATOM      4  C   UNL     1       1.981   6.663  19.849  0.00  0.00    +0.000 A 
ATOM      5  C   UNL     1       1.524   7.555  20.838  0.00  0.00    +0.000 A 
ATOM      6  C   UNL     1       1.266   8.897  20.540  0.00  0.00    +0.000 A 
ENDROOT
BRANCH   4   7
ATOM      7  C   UNL     1       2.243   5.198  20.202  0.00  0.00    +0.000 C 
ATOM      8  C   UNL     1       0.963   4.380  19.944  0.00  0.00    +0.000 C 
ATOM      9  S   UNL     1       1.558   2.686  19.822  0.00  0.00    +0.000 S 
ATOM     10  C   UNL     1       3.165   3.193  19.290  0.00  0.00    +0.000 C 
ATOM     11  S   UNL     1       4.240   2.064  18.696  0.00  0.00    +0.000 S 
ATOM     12  N   UNL     1       3.330   4.573  19.445  0.00  0.00    +0.000 N 
BRANCH   7  13
ATOM     13  O   UNL     1       2.620   5.093  21.577  0.00  0.00    +0.000 OA
ATOM     14  H   UNL     1       3.535   5.413  21.655  0.00  0.00    +0.000 HD
ENDBRANCH   7  13
BRANCH  12  15
ATOM     15  C   UNL     1       4.655   5.222  19.415  0.00  0.00    +0.000 C 
BRANCH  15  16
ATOM     16  C   UNL     1       5.381   5.162  18.091  0.00  0.00    +0.000 A 
ATOM     17  C   UNL     1       4.728   5.359  16.868  0.00  0.00    +0.000 A 
ATOM     18  C   UNL     1       5.416   5.207  15.665  0.00  0.00    +0.000 A 
ATOM     19  C   UNL     1       6.754   4.868  15.714  0.00  0.00    +0.000 A 
ATOM     20  N   UNL     1       7.431   4.679  16.865  0.00  0.00    +0.000 NA
ATOM     21  C   UNL     1       6.727   4.813  18.018  0.00  0.00    +0.000 A 
ENDBRANCH  15  16
ENDBRANCH  12  15
ENDBRANCH   4   7
BRANCH   1  22
ATOM     22  N   UNL     1       1.142  10.709  18.925  0.00  0.00    +0.000 N 
ATOM     23  H   UNL     1       1.557  11.099  18.078  0.00  0.00    +0.000 HD
BRANCH  22  24
ATOM     24  S   UNL     1      -0.510  11.104  18.974  0.00  0.00    +0.000 S 
ATOM     25  O   UNL     1      -1.300   9.898  19.110  0.00  0.00    +0.000 OA
ATOM     26  O   UNL     1      -0.720  12.023  17.878  0.00  0.00    +0.000 OA
BRANCH  24  30
ATOM     27  C   UNL     1      -0.901  13.621  22.763  0.00  0.00    +0.000 A 
ATOM     28  C   UNL     1      -0.493  14.211  21.560  0.00  0.00    +0.000 A 
ATOM     29  C   UNL     1      -0.361  13.433  20.408  0.00  0.00    +0.000 A 
ATOM     30  C   UNL     1      -0.630  12.061  20.464  0.00  0.00    +0.000 A 
ATOM     31  C   UNL     1      -1.039  11.464  21.659  0.00  0.00    +0.000 A 
ATOM     32  C   UNL     1      -1.171  12.247  22.810  0.00  0.00    +0.000 A 
BRANCH  27  34
ATOM     33  N   UNL     1      -1.170  15.069  24.899  0.00  0.00    +0.000 NA
ATOM     34  C   UNL     1      -1.048  14.425  23.940  0.00  0.00    +0.000 C 
ENDBRANCH  27  34
ENDBRANCH  24  30
ENDBRANCH  22  24
ENDBRANCH   1  22
TORSDOF 8
ENDMDL
MODEL 6
REMARK VINA RESULT:      -8.6      2.486      3.392
REMARK  Name = 
REMARK  8 active torsions:
REMARK  status: ('A' for Active; 'I' for Inactive)
REMARK    1  A    between atoms: C_2  and  C_3
REMARK    2  A    between atoms: C_6  and  S_7
REMARK    3  A    between atoms: S_7  and  N_10
REMARK    4  A    between atoms: N_10  and  C_11
REMARK    5  A    between atoms: C_14  and  C_15
REMARK    6  A    between atoms: C_15  and  O_16
REMARK    7  A    between atoms: N_21  and  C_22
REMARK    8  A    between atoms: C_22  and  C_23
REMARK                            x       y       z     vdW  Elec       q    Type
REMARK                         _______ _______ _______ _____ _____    ______ ____
ROOT
ATOM      1  C   UNL     1       1.552   9.255  19.239  0.00  0.00    +0.000 A 
ATOM      2  C   UNL     1       2.106   8.418  18.273  0.00  0.00    +0.000 A 
ATOM      3  C   UNL     1       2.337   7.071  18.564  0.00  0.00    +0.000 A 
ATOM      4  C   UNL     1       2.018   6.539  19.829  0.00  0.00    +0.000 A 
ATOM      5  C   UNL     1       1.472   7.411  20.790  0.00  0.00    +0.000 A 
ATOM      6  C   UNL     1       1.226   8.755  20.494  0.00  0.00    +0.000 A 
ENDROOT
BRANCH   4   7
ATOM      7  C   UNL     1       2.265   5.071  20.180  0.00  0.00    +0.000 C 
ATOM      8  C   UNL     1       0.977   4.266  19.917  0.00  0.00    +0.000 C 
ATOM      9  S   UNL     1       1.556   2.567  19.793  0.00  0.00    +0.000 S 
ATOM     10  C   UNL     1       3.168   3.059  19.265  0.00  0.00    +0.000 C 
ATOM     11  S   UNL     1       4.233   1.921  18.670  0.00  0.00    +0.000 S 
ATOM     12  N   UNL     1       3.347   4.437  19.423  0.00  0.00    +0.000 N 
BRANCH   7  13
ATOM     13  O   UNL     1       2.638   4.959  21.555  0.00  0.00    +0.000 OA
ATOM     14  H   UNL     1       3.565   5.241  21.631  0.00  0.00    +0.000 HD
ENDBRANCH   7  13
BRANCH  12  15
ATOM     15  C   UNL     1       4.678   5.072  19.397  0.00  0.00    +0.000 C 
BRANCH  15  16
ATOM     16  C   UNL     1       5.396   5.030  18.067  0.00  0.00    +0.000 A 
ATOM     17  C   UNL     1       4.730   5.216  16.850  0.00  0.00    +0.000 A 
ATOM     18  C   UNL     1       5.412   5.081  15.642  0.00  0.00    +0.000 A 
ATOM     19  C   UNL     1       6.757   4.770  15.680  0.00  0.00    +0.000 A 
ATOM     20  N   UNL     1       7.446   4.592  16.825  0.00  0.00    +0.000 NA
ATOM     21  C   UNL     1       6.748   4.709  17.983  0.00  0.00    +0.000 A 
ENDBRANCH  15  16
ENDBRANCH  12  15
ENDBRANCH   4   7
BRANCH   1  22
ATOM     22  N   UNL     1       1.218  10.593  18.903  0.00  0.00    +0.000 N 
ATOM     23  H   UNL     1       0.673  10.732  18.051  0.00  0.00    +0.000 HD
BRANCH  22  24
ATOM     24  S   UNL     1       0.572  11.556  20.146  0.00  0.00    +0.000 S 
ATOM     25  O   UNL     1       1.326  11.355  21.365  0.00  0.00    +0.000 OA
ATOM     26  O   UNL     1      -0.857  11.342  20.098  0.00  0.00    +0.000 OA
BRANCH  24  30
ATOM     27  C   UNL     1       1.253  15.825  18.675  0.00  0.00    +0.000 A 
ATOM     28  C   UNL     1      -0.047  15.318  18.802  0.00  0.00    +0.000 A 
ATOM     29  C   UNL     1      -0.248  14.007  19.238  0.00  0.00    +0.000 A 
ATOM     30  C   UNL     1       0.855  13.200  19.539  0.00  0.00    +0.000 A 
ATOM     31  C   UNL     1       2.155  13.697  19.417  0.00  0.00    +0.000 A 
ATOM     32  C   UNL     1       2.351  15.011  18.982  0.00  0.00    +0.000 A 
BRANCH  27  34
ATOM     33  N   UNL     1       1.610  18.272  17.891  0.00  0.00    +0.000 NA
ATOM     34  C   UNL     1       1.454  17.175  18.240  0.00  0.00    +0.000 C 
ENDBRANCH  27  34
ENDBRANCH  24  30
ENDBRANCH  22  24
ENDBRANCH   1  22
TORSDOF 8
ENDMDL
MODEL 7
REMARK VINA RESULT:      -8.5      2.740      9.145
REMARK  Name = 
REMARK  8 active torsions:
REMARK  status: ('A' for Active; 'I' for Inactive)
REMARK    1  A    between atoms: C_2  and  C_3
REMARK    2  A    between atoms: C_6  and  S_7
REMARK    3  A    between atoms: S_7  and  N_10
REMARK    4  A    between atoms: N_10  and  C_11
REMARK    5  A    between atoms: C_14  and  C_15
REMARK    6  A    between atoms: C_15  and  O_16
REMARK    7  A    between atoms: N_21  and  C_22
REMARK    8  A    between atoms: C_22  and  C_23
REMARK                            x       y       z     vdW  Elec       q    Type
REMARK                         _______ _______ _______ _____ _____    ______ ____
ROOT
ATOM      1  C   UNL     1       2.236   7.582  19.651  0.00  0.00    +0.000 A 
ATOM      2  C   UNL     1       2.236   8.242  18.424  0.00  0.00    +0.000 A 
ATOM      3  C   UNL     1       1.396   9.340  18.222  0.00  0.00    +0.000 A 
ATOM      4  C   UNL     1       0.541   9.796  19.245  0.00  0.00    +0.000 A 
ATOM      5  C   UNL     1       0.553   9.101  20.470  0.00  0.00    +0.000 A 
ATOM      6  C   UNL     1       1.404   8.011  20.677  0.00  0.00    +0.000 A 
ENDROOT
BRANCH   4   7
ATOM      7  C   UNL     1      -0.394  10.991  19.052  0.00  0.00    +0.000 C 
ATOM      8  C   UNL     1      -1.829  10.477  18.824  0.00  0.00    +0.000 C 
ATOM      9  S   UNL     1      -2.857  11.904  19.203  0.00  0.00    +0.000 S 
ATOM     10  C   UNL     1      -1.652  12.596  20.294  0.00  0.00    +0.000 C 
ATOM     11  S   UNL     1      -2.060  13.878  21.279  0.00  0.00    +0.000 S 
ATOM     12  N   UNL     1      -0.431  11.923  20.181  0.00  0.00    +0.000 N 
BRANCH   7  13
ATOM     13  O   UNL     1       0.033  11.762  17.927  0.00  0.00    +0.000 OA
ATOM     14  H   UNL     1      -0.675  12.396  17.721  0.00  0.00    +0.000 HD
ENDBRANCH   7  13
BRANCH  12  15
ATOM     15  C   UNL     1       0.833  12.482  20.697  0.00  0.00    +0.000 C 
BRANCH  15  16
ATOM     16  C   UNL     1       1.514  13.490  19.800  0.00  0.00    +0.000 A 
ATOM     17  C   UNL     1       2.643  13.172  19.035  0.00  0.00    +0.000 A 
ATOM     18  C   UNL     1       3.294  14.153  18.290  0.00  0.00    +0.000 A 
ATOM     19  C   UNL     1       2.792  15.440  18.321  0.00  0.00    +0.000 A 
ATOM     20  N   UNL     1       1.703  15.795  19.032  0.00  0.00    +0.000 NA
ATOM     21  C   UNL     1       1.105  14.820  19.763  0.00  0.00    +0.000 A 
ENDBRANCH  15  16
ENDBRANCH  12  15
ENDBRANCH   4   7
BRANCH   1  22
ATOM     22  N   UNL     1       3.168   6.538  19.887  0.00  0.00    +0.000 N 
ATOM     23  H   UNL     1       3.417   6.354  20.860  0.00  0.00    +0.000 HD
BRANCH  22  24
ATOM     24  S   UNL     1       2.886   5.063  19.092  0.00  0.00    +0.000 S 
ATOM     25  O   UNL     1       1.543   5.046  18.550  0.00  0.00    +0.000 OA
ATOM     26  O   UNL     1       3.344   4.038  20.003  0.00  0.00    +0.000 OA
BRANCH  24  30
ATOM     27  C   UNL     1       5.985   5.190  15.742  0.00  0.00    +0.000 A 
ATOM     28  C   UNL     1       5.913   6.228  16.680  0.00  0.00    +0.000 A 
ATOM     29  C   UNL     1       4.953   6.190  17.692  0.00  0.00    +0.000 A 
ATOM     30  C   UNL     1       4.059   5.116  17.761  0.00  0.00    +0.000 A 
ATOM     31  C   UNL     1       4.125   4.075  16.832  0.00  0.00    +0.000 A 
ATOM     32  C   UNL     1       5.089   4.116  15.820  0.00  0.00    +0.000 A 
BRANCH  27  34
ATOM     33  N   UNL     1       7.780   5.258  13.870  0.00  0.00    +0.000 NA
ATOM     34  C   UNL     1       6.980   5.225  14.711  0.00  0.00    +0.000 C 
ENDBRANCH  27  34
ENDBRANCH  24  30
ENDBRANCH  22  24
ENDBRANCH   1  22
TORSDOF 8
ENDMDL
MODEL 8
REMARK VINA RESULT:      -8.5      1.433      1.619
REMARK  Name = 
REMARK  8 active torsions:
REMARK  status: ('A' for Active; 'I' for Inactive)
REMARK    1  A    between atoms: C_2  and  C_3
REMARK    2  A    between atoms: C_6  and  S_7
REMARK    3  A    between atoms: S_7  and  N_10
REMARK    4  A    between atoms: N_10  and  C_11
REMARK    5  A    between atoms: C_14  and  C_15
REMARK    6  A    between atoms: C_15  and  O_16
REMARK    7  A    between atoms: N_21  and  C_22
REMARK    8  A    between atoms: C_22  and  C_23
REMARK                            x       y       z     vdW  Elec       q    Type
REMARK                         _______ _______ _______ _____ _____    ______ ____
ROOT
ATOM      1  C   UNL     1       1.590   9.223  19.338  0.00  0.00    +0.000 A 
ATOM      2  C   UNL     1       1.998   8.384  18.303  0.00  0.00    +0.000 A 
ATOM      3  C   UNL     1       2.211   7.025  18.548  0.00  0.00    +0.000 A 
ATOM      4  C   UNL     1       2.023   6.482  19.834  0.00  0.00    +0.000 A 
ATOM      5  C   UNL     1       1.624   7.356  20.864  0.00  0.00    +0.000 A 
ATOM      6  C   UNL     1       1.395   8.713  20.616  0.00  0.00    +0.000 A 
ENDROOT
BRANCH   4   7
ATOM      7  C   UNL     1       2.254   5.001  20.134  0.00  0.00    +0.000 C 
ATOM      8  C   UNL     1       0.960   4.218  19.842  0.00  0.00    +0.000 C 
ATOM      9  S   UNL     1       1.522   2.519  19.660  0.00  0.00    +0.000 S 
ATOM     10  C   UNL     1       3.140   3.013  19.151  0.00  0.00    +0.000 C 
ATOM     11  S   UNL     1       4.194   1.886  18.519  0.00  0.00    +0.000 S 
ATOM     12  N   UNL     1       3.332   4.383  19.357  0.00  0.00    +0.000 N 
BRANCH   7  13
ATOM     13  O   UNL     1       2.624   4.838  21.505  0.00  0.00    +0.000 OA
ATOM     14  H   UNL     1       1.861   5.103  22.047  0.00  0.00    +0.000 HD
ENDBRANCH   7  13
BRANCH  12  15
ATOM     15  C   UNL     1       4.669   5.006  19.355  0.00  0.00    +0.000 C 
BRANCH  15  16
ATOM     16  C   UNL     1       5.381   5.019  18.022  0.00  0.00    +0.000 A 
ATOM     17  C   UNL     1       4.714   5.278  16.819  0.00  0.00    +0.000 A 
ATOM     18  C   UNL     1       5.389   5.193  15.602  0.00  0.00    +0.000 A 
ATOM     19  C   UNL     1       6.728   4.856  15.618  0.00  0.00    +0.000 A 
ATOM     20  N   UNL     1       7.418   4.608  16.750  0.00  0.00    +0.000 NA
ATOM     21  C   UNL     1       6.726   4.678  17.915  0.00  0.00    +0.000 A 
ENDBRANCH  15  16
ENDBRANCH  12  15
ENDBRANCH   4   7
BRANCH   1  22
ATOM     22  N   UNL     1       1.268  10.577  19.061  0.00  0.00    +0.000 N 
ATOM     23  H   UNL     1       1.466  10.914  18.119  0.00  0.00    +0.000 HD
BRANCH  22  24
ATOM     24  S   UNL     1      -0.273  11.111  19.538  0.00  0.00    +0.000 S 
ATOM     25  O   UNL     1      -0.240  12.534  19.805  0.00  0.00    +0.000 OA
ATOM     26  O   UNL     1      -0.718  10.166  20.538  0.00  0.00    +0.000 OA
BRANCH  24  30
ATOM     27  C   UNL     1      -2.720  10.392  15.750  0.00  0.00    +0.000 A 
ATOM     28  C   UNL     1      -2.731  11.647  16.373  0.00  0.00    +0.000 A 
ATOM     29  C   UNL     1      -1.993  11.856  17.539  0.00  0.00    +0.000 A 
ATOM     30  C   UNL     1      -1.248  10.805  18.087  0.00  0.00    +0.000 A 
ATOM     31  C   UNL     1      -1.229   9.550  17.472  0.00  0.00    +0.000 A 
ATOM     32  C   UNL     1      -1.969   9.346  16.303  0.00  0.00    +0.000 A 
BRANCH  27  34
ATOM     33  N   UNL     1      -4.067  10.016  13.566  0.00  0.00    +0.000 NA
ATOM     34  C   UNL     1      -3.468  10.184  14.546  0.00  0.00    +0.000 C 
ENDBRANCH  27  34
ENDBRANCH  24  30
ENDBRANCH  22  24
ENDBRANCH   1  22
TORSDOF 8
ENDMDL
MODEL 9
REMARK VINA RESULT:      -8.5      2.489      3.532
REMARK  Name = 
REMARK  8 active torsions:
REMARK  status: ('A' for Active; 'I' for Inactive)
REMARK    1  A    between atoms: C_2  and  C_3
REMARK    2  A    between atoms: C_6  and  S_7
REMARK    3  A    between atoms: S_7  and  N_10
REMARK    4  A    between atoms: N_10  and  C_11
REMARK    5  A    between atoms: C_14  and  C_15
REMARK    6  A    between atoms: C_15  and  O_16
REMARK    7  A    between atoms: N_21  and  C_22
REMARK    8  A    between atoms: C_22  and  C_23
REMARK                            x       y       z     vdW  Elec       q    Type
REMARK                         _______ _______ _______ _____ _____    ______ ____
ROOT
ATOM      1  C   UNL     1       1.527   9.244  19.261  0.00  0.00    +0.000 A 
ATOM      2  C   UNL     1       1.276   8.755  20.541  0.00  0.00    +0.000 A 
ATOM      3  C   UNL     1       1.505   7.408  20.831  0.00  0.00    +0.000 A 
ATOM      4  C   UNL     1       1.987   6.526  19.845  0.00  0.00    +0.000 A 
ATOM      5  C   UNL     1       2.218   7.045  18.556  0.00  0.00    +0.000 A 
ATOM      6  C   UNL     1       2.004   8.396  18.269  0.00  0.00    +0.000 A 
ENDROOT
BRANCH   4   7
ATOM      7  C   UNL     1       2.241   5.045  20.130  0.00  0.00    +0.000 C 
ATOM      8  C   UNL     1       0.958   4.246  19.829  0.00  0.00    +0.000 C 
ATOM      9  S   UNL     1       1.546   2.557  19.631  0.00  0.00    +0.000 S 
ATOM     10  C   UNL     1       3.157   3.081  19.128  0.00  0.00    +0.000 C 
ATOM     11  S   UNL     1       4.228   1.976  18.484  0.00  0.00    +0.000 S 
ATOM     12  N   UNL     1       3.328   4.452  19.347  0.00  0.00    +0.000 N 
BRANCH   7  13
ATOM     13  O   UNL     1       2.613   4.874  21.500  0.00  0.00    +0.000 OA
ATOM     14  H   UNL     1       2.914   3.956  21.609  0.00  0.00    +0.000 HD
ENDBRANCH   7  13
BRANCH  12  15
ATOM     15  C   UNL     1       4.656   5.095  19.352  0.00  0.00    +0.000 C 
BRANCH  15  16
ATOM     16  C   UNL     1       5.387   5.089  18.029  0.00  0.00    +0.000 A 
ATOM     17  C   UNL     1       4.743   5.353  16.815  0.00  0.00    +0.000 A 
ATOM     18  C   UNL     1       5.436   5.250  15.609  0.00  0.00    +0.000 A 
ATOM     19  C   UNL     1       6.769   4.892  15.648  0.00  0.00    +0.000 A 
ATOM     20  N   UNL     1       7.437   4.639  16.791  0.00  0.00    +0.000 NA
ATOM     21  C   UNL     1       6.729   4.727  17.945  0.00  0.00    +0.000 A 
ENDBRANCH  15  16
ENDBRANCH  12  15
ENDBRANCH   4   7
BRANCH   1  22
ATOM     22  N   UNL     1       1.398  10.634  19.000  0.00  0.00    +0.000 N 
ATOM     23  H   UNL     1       1.096  10.901  18.063  0.00  0.00    +0.000 HD
BRANCH  22  24
ATOM     24  S   UNL     1       0.546  11.553  20.148  0.00  0.00    +0.000 S 
ATOM     25  O   UNL     1       1.141  11.379  21.457  0.00  0.00    +0.000 OA
ATOM     26  O   UNL     1      -0.852  11.267  19.912  0.00  0.00    +0.000 OA
BRANCH  24  30
ATOM     27  C   UNL     1       1.305  15.787  18.619  0.00  0.00    +0.000 A 
ATOM     28  C   UNL     1       2.379  14.957  18.967  0.00  0.00    +0.000 A 
ATOM     29  C   UNL     1       2.139  13.669  19.449  0.00  0.00    +0.000 A 
ATOM     30  C   UNL     1       0.823  13.214  19.588  0.00  0.00    +0.000 A 
ATOM     31  C   UNL     1      -0.254  14.034  19.242  0.00  0.00    +0.000 A 
ATOM     32  C   UNL     1      -0.009  15.323  18.758  0.00  0.00    +0.000 A 
BRANCH  27  34
ATOM     33  N   UNL     1       1.765  18.169  17.698  0.00  0.00    +0.000 NA
ATOM     34  C   UNL     1       1.555  17.104  18.113  0.00  0.00    +0.000 C 
ENDBRANCH  27  34
ENDBRANCH  24  30
ENDBRANCH  22  24
ENDBRANCH   1  22
TORSDOF 8
ENDMDL
