MODEL 1
REMARK VINA RESULT:      -6.2      0.000      0.000
REMARK  Name = 
REMARK  7 active torsions:
REMARK  status: ('A' for Active; 'I' for Inactive)
REMARK    1  A    between atoms: C_1  and  C_2
REMARK    2  A    between atoms: C_5  and  C_6
REMARK    3  A    between atoms: N_10  and  C_11
REMARK    4  A    between atoms: C_11  and  C_12
REMARK    5  A    between atoms: C_12  and  C_13
REMARK    6  A    between atoms: C_12  and  C_14
REMARK    7  A    between atoms: N_17  and  C_18
REMARK                            x       y       z     vdW  Elec       q    Type
REMARK                         _______ _______ _______ _____ _____    ______ ____
ROOT
ATOM      1  C   UNL     1       5.261   3.902  17.138  0.00  0.00    +0.000 A 
ATOM      2  N   UNL     1       5.736   4.280  18.304  0.00  0.00    +0.000 NA
ATOM      3  N   UNL     1       4.998   3.763  19.360  0.00  0.00    +0.000 NA
ATOM      4  C   UNL     1       4.001   3.004  18.955  0.00  0.00    +0.000 A 
ATOM      5  N   UNL     1       3.115   2.328  19.730  0.00  0.00    +0.000 N 
ATOM      6  S   UNL     1       3.850   2.915  17.252  0.00  0.00    +0.000 S 
ATOM      7  H   UNL     1       2.291   1.980  19.251  0.00  0.00    +0.000 HD
ENDROOT
BRANCH   1  12
ATOM      8  C   UNL     1       8.119   5.651  13.233  0.00  0.00    +0.000 C 
ATOM      9  C   UNL     1       7.136   5.012  14.142  0.00  0.00    +0.000 A 
ATOM     10  C   UNL     1       6.827   5.220  15.476  0.00  0.00    +0.000 A 
ATOM     11 CL   UNL     1       7.509   6.387  16.507  0.00  0.00    +0.000 Cl
ATOM     12  C   UNL     1       5.871   4.226  15.801  0.00  0.00    +0.000 A 
ATOM     13  N   UNL     1       5.552   3.496  14.722  0.00  0.00    +0.000 NA
ATOM     14  N   UNL     1       6.326   3.983  13.744  0.00  0.00    +0.000 N 
ATOM     15  C   UNL     1       6.260   3.359  12.443  0.00  0.00    +0.000 C 
ENDBRANCH   1  12
BRANCH   5  16
ATOM     16  C   UNL     1       2.902   2.791  21.087  0.00  0.00    +0.000 C 
BRANCH  16  17
ATOM     17  C   UNL     1       1.649   3.678  21.172  0.00  0.00    +0.000 C 
ATOM     18  C   UNL     1       1.966   5.157  20.941  0.00  0.00    +0.000 C 
ATOM     19  C   UNL     1       0.624   3.197  20.144  0.00  0.00    +0.000 C 
ENDBRANCH  16  17
ENDBRANCH   5  16
TORSDOF 3
ENDMDL
MODEL 2
REMARK VINA RESULT:      -6.1      3.515      7.342
REMARK  Name = 
REMARK  7 active torsions:
REMARK  status: ('A' for Active; 'I' for Inactive)
REMARK    1  A    between atoms: C_1  and  C_2
REMARK    2  A    between atoms: C_5  and  C_6
REMARK    3  A    between atoms: N_10  and  C_11
REMARK    4  A    between atoms: C_11  and  C_12
REMARK    5  A    between atoms: C_12  and  C_13
REMARK    6  A    between atoms: C_12  and  C_14
REMARK    7  A    between atoms: N_17  and  C_18
REMARK                            x       y       z     vdW  Elec       q    Type
REMARK                         _______ _______ _______ _____ _____    ______ ____
ROOT
ATOM      1  C   UNL     1       3.539   6.211  17.701  0.00  0.00    +0.000 A 
ATOM      2  N   UNL     1       3.300   4.950  17.415  0.00  0.00    +0.000 NA
ATOM      3  N   UNL     1       4.318   4.385  16.658  0.00  0.00    +0.000 NA
ATOM      4  C   UNL     1       5.294   5.233  16.412  0.00  0.00    +0.000 A 
ATOM      5  N   UNL     1       6.443   4.989  15.731  0.00  0.00    +0.000 N 
ATOM      6  S   UNL     1       5.014   6.805  17.030  0.00  0.00    +0.000 S 
ATOM      7  H   UNL     1       6.969   5.811  15.453  0.00  0.00    +0.000 HD
ENDROOT
BRANCH   1  12
ATOM      8  C   UNL     1       0.885   8.427  21.512  0.00  0.00    +0.000 C 
ATOM      9  C   UNL     1       1.536   8.010  20.245  0.00  0.00    +0.000 A 
ATOM     10  C   UNL     1       2.165   6.837  19.862  0.00  0.00    +0.000 A 
ATOM     11 CL   UNL     1       2.334   5.424  20.793  0.00  0.00    +0.000 Cl
ATOM     12  C   UNL     1       2.673   7.088  18.564  0.00  0.00    +0.000 A 
ATOM     13  N   UNL     1       2.321   8.311  18.138  0.00  0.00    +0.000 NA
ATOM     14  N   UNL     1       1.646   8.843  19.165  0.00  0.00    +0.000 N 
ATOM     15  C   UNL     1       1.172  10.202  19.041  0.00  0.00    +0.000 C 
ENDBRANCH   1  12
BRANCH   5  16
ATOM     16  C   UNL     1       6.460   3.887  14.792  0.00  0.00    +0.000 C 
BRANCH  16  17
ATOM     17  C   UNL     1       6.387   4.400  13.344  0.00  0.00    +0.000 C 
ATOM     18  C   UNL     1       7.707   5.017  12.877  0.00  0.00    +0.000 C 
ATOM     19  C   UNL     1       5.996   3.243  12.422  0.00  0.00    +0.000 C 
ENDBRANCH  16  17
ENDBRANCH   5  16
TORSDOF 3
ENDMDL
MODEL 3
REMARK VINA RESULT:      -6.0      5.447      7.166
REMARK  Name = 
REMARK  7 active torsions:
REMARK  status: ('A' for Active; 'I' for Inactive)
REMARK    1  A    between atoms: C_1  and  C_2
REMARK    2  A    between atoms: C_5  and  C_6
REMARK    3  A    between atoms: N_10  and  C_11
REMARK    4  A    between atoms: C_11  and  C_12
REMARK    5  A    between atoms: C_12  and  C_13
REMARK    6  A    between atoms: C_12  and  C_14
REMARK    7  A    between atoms: N_17  and  C_18
REMARK                            x       y       z     vdW  Elec       q    Type
REMARK                         _______ _______ _______ _____ _____    ______ ____
ROOT
ATOM      1  C   UNL     1       2.278   7.501  19.328  0.00  0.00    +0.000 A 
ATOM      2  N   UNL     1       1.647   8.021  20.358  0.00  0.00    +0.000 NA
ATOM      3  N   UNL     1       0.987   9.196  20.025  0.00  0.00    +0.000 NA
ATOM      4  C   UNL     1       1.131   9.514  18.756  0.00  0.00    +0.000 A 
ATOM      5  N   UNL     1       0.590  10.577  18.108  0.00  0.00    +0.000 N 
ATOM      6  S   UNL     1       2.137   8.436  17.885  0.00  0.00    +0.000 S 
ATOM      7  H   UNL     1       0.985  10.781  17.196  0.00  0.00    +0.000 HD
ENDROOT
BRANCH   1  12
ATOM      8  C   UNL     1       3.757   2.581  19.616  0.00  0.00    +0.000 C 
ATOM      9  C   UNL     1       3.622   4.052  19.474  0.00  0.00    +0.000 A 
ATOM     10  C   UNL     1       2.611   4.933  19.822  0.00  0.00    +0.000 A 
ATOM     11 CL   UNL     1       1.156   4.548  20.615  0.00  0.00    +0.000 Cl
ATOM     12  C   UNL     1       3.026   6.196  19.334  0.00  0.00    +0.000 A 
ATOM     13  N   UNL     1       4.248   6.120  18.783  0.00  0.00    +0.000 NA
ATOM     14  N   UNL     1       4.579   4.825  18.875  0.00  0.00    +0.000 N 
ATOM     15  C   UNL     1       5.837   4.399  18.308  0.00  0.00    +0.000 C 
ENDBRANCH   1  12
BRANCH   5  16
ATOM     16  C   UNL     1       0.199  11.730  18.893  0.00  0.00    +0.000 C 
BRANCH  16  17
ATOM     17  C   UNL     1      -1.236  12.164  18.552  0.00  0.00    +0.000 C 
ATOM     18  C   UNL     1      -1.925  11.195  17.590  0.00  0.00    +0.000 C 
ATOM     19  C   UNL     1      -2.045  12.280  19.846  0.00  0.00    +0.000 C 
ENDBRANCH  16  17
ENDBRANCH   5  16
TORSDOF 3
ENDMDL
MODEL 4
REMARK VINA RESULT:      -5.9      4.407      8.024
REMARK  Name = 
REMARK  7 active torsions:
REMARK  status: ('A' for Active; 'I' for Inactive)
REMARK    1  A    between atoms: C_1  and  C_2
REMARK    2  A    between atoms: C_5  and  C_6
REMARK    3  A    between atoms: N_10  and  C_11
REMARK    4  A    between atoms: C_11  and  C_12
REMARK    5  A    between atoms: C_12  and  C_13
REMARK    6  A    between atoms: C_12  and  C_14
REMARK    7  A    between atoms: N_17  and  C_18
REMARK                            x       y       z     vdW  Elec       q    Type
REMARK                         _______ _______ _______ _____ _____    ______ ____
ROOT
ATOM      1  C   UNL     1       2.261   7.258  19.405  0.00  0.00    +0.000 A 
ATOM      2  N   UNL     1       2.415   6.015  19.805  0.00  0.00    +0.000 NA
ATOM      3  N   UNL     1       3.232   5.289  18.949  0.00  0.00    +0.000 NA
ATOM      4  C   UNL     1       3.676   6.011  17.942  0.00  0.00    +0.000 A 
ATOM      5  N   UNL     1       4.515   5.613  16.952  0.00  0.00    +0.000 N 
ATOM      6  S   UNL     1       3.078   7.615  17.927  0.00  0.00    +0.000 S 
ATOM      7  H   UNL     1       4.570   6.232  16.150  0.00  0.00    +0.000 HD
ENDROOT
BRANCH   1  12
ATOM      8  C   UNL     1      -0.781  11.151  20.840  0.00  0.00    +0.000 C 
ATOM      9  C   UNL     1       0.170  10.019  20.718  0.00  0.00    +0.000 A 
ATOM     10  C   UNL     1       0.782   9.429  19.625  0.00  0.00    +0.000 A 
ATOM     11 CL   UNL     1       0.640   9.909  17.999  0.00  0.00    +0.000 Cl
ATOM     12  C   UNL     1       1.499   8.323  20.144  0.00  0.00    +0.000 A 
ATOM     13  N   UNL     1       1.399   8.272  21.482  0.00  0.00    +0.000 NA
ATOM     14  N   UNL     1       0.594   9.294  21.799  0.00  0.00    +0.000 N 
ATOM     15  C   UNL     1       0.237   9.479  23.186  0.00  0.00    +0.000 C 
ENDBRANCH   1  12
BRANCH   5  16
ATOM     16  C   UNL     1       4.602   4.197  16.657  0.00  0.00    +0.000 C 
BRANCH  16  17
ATOM     17  C   UNL     1       5.901   3.874  15.902  0.00  0.00    +0.000 C 
ATOM     18  C   UNL     1       5.828   4.260  14.423  0.00  0.00    +0.000 C 
ATOM     19  C   UNL     1       7.066   4.603  16.574  0.00  0.00    +0.000 C 
ENDBRANCH  16  17
ENDBRANCH   5  16
TORSDOF 3
ENDMDL
MODEL 5
REMARK VINA RESULT:      -5.9      5.283      6.802
REMARK  Name = 
REMARK  7 active torsions:
REMARK  status: ('A' for Active; 'I' for Inactive)
REMARK    1  A    between atoms: C_1  and  C_2
REMARK    2  A    between atoms: C_5  and  C_6
REMARK    3  A    between atoms: N_10  and  C_11
REMARK    4  A    between atoms: C_11  and  C_12
REMARK    5  A    between atoms: C_12  and  C_13
REMARK    6  A    between atoms: C_12  and  C_14
REMARK    7  A    between atoms: N_17  and  C_18
REMARK                            x       y       z     vdW  Elec       q    Type
REMARK                         _______ _______ _______ _____ _____    ______ ____
ROOT
ATOM      1  C   UNL     1       2.520   7.468  18.778  0.00  0.00    +0.000 A 
ATOM      2  N   UNL     1       2.423   8.175  17.674  0.00  0.00    +0.000 NA
ATOM      3  N   UNL     1       1.647   9.312  17.850  0.00  0.00    +0.000 NA
ATOM      4  C   UNL     1       1.197   9.431  19.081  0.00  0.00    +0.000 A 
ATOM      5  N   UNL     1       0.441  10.438  19.586  0.00  0.00    +0.000 N 
ATOM      6  S   UNL     1       1.634   8.129  20.103  0.00  0.00    +0.000 S 
ATOM      7  H   UNL     1       0.007  10.252  20.485  0.00  0.00    +0.000 HD
ENDROOT
BRANCH   1  12
ATOM      8  C   UNL     1       4.313   2.745  19.756  0.00  0.00    +0.000 C 
ATOM      9  C   UNL     1       4.079   4.163  19.389  0.00  0.00    +0.000 A 
ATOM     10  C   UNL     1       3.037   5.036  19.656  0.00  0.00    +0.000 A 
ATOM     11 CL   UNL     1       1.654   4.712  20.591  0.00  0.00    +0.000 Cl
ATOM     12  C   UNL     1       3.347   6.222  18.945  0.00  0.00    +0.000 A 
ATOM     13  N   UNL     1       4.538   6.120  18.336  0.00  0.00    +0.000 NA
ATOM     14  N   UNL     1       4.953   4.876  18.613  0.00  0.00    +0.000 N 
ATOM     15  C   UNL     1       6.202   4.428  18.042  0.00  0.00    +0.000 C 
ENDBRANCH   1  12
BRANCH   5  16
ATOM     16  C   UNL     1      -0.347  11.231  18.664  0.00  0.00    +0.000 C 
BRANCH  16  17
ATOM     17  C   UNL     1      -1.764  10.652  18.517  0.00  0.00    +0.000 C 
ATOM     18  C   UNL     1      -2.850  11.715  18.697  0.00  0.00    +0.000 C 
ATOM     19  C   UNL     1      -1.897   9.999  17.140  0.00  0.00    +0.000 C 
ENDBRANCH  16  17
ENDBRANCH   5  16
TORSDOF 3
ENDMDL
MODEL 6
REMARK VINA RESULT:      -5.9      5.452      7.228
REMARK  Name = 
REMARK  7 active torsions:
REMARK  status: ('A' for Active; 'I' for Inactive)
REMARK    1  A    between atoms: C_1  and  C_2
REMARK    2  A    between atoms: C_5  and  C_6
REMARK    3  A    between atoms: N_10  and  C_11
REMARK    4  A    between atoms: C_11  and  C_12
REMARK    5  A    between atoms: C_12  and  C_13
REMARK    6  A    between atoms: C_12  and  C_14
REMARK    7  A    between atoms: N_17  and  C_18
REMARK                            x       y       z     vdW  Elec       q    Type
REMARK                         _______ _______ _______ _____ _____    ______ ____
ROOT
ATOM      1  C   UNL     1       2.338   7.437  19.320  0.00  0.00    +0.000 A 
ATOM      2  N   UNL     1       1.684   7.940  20.343  0.00  0.00    +0.000 NA
ATOM      3  N   UNL     1       1.066   9.142  20.026  0.00  0.00    +0.000 NA
ATOM      4  C   UNL     1       1.264   9.497  18.774  0.00  0.00    +0.000 A 
ATOM      5  N   UNL     1       0.775  10.595  18.143  0.00  0.00    +0.000 N 
ATOM      6  S   UNL     1       2.274   8.422  17.905  0.00  0.00    +0.000 S 
ATOM      7  H   UNL     1       1.208  10.818  17.254  0.00  0.00    +0.000 HD
ENDROOT
BRANCH   1  12
ATOM      8  C   UNL     1       3.693   2.479  19.560  0.00  0.00    +0.000 C 
ATOM      9  C   UNL     1       3.593   3.953  19.428  0.00  0.00    +0.000 A 
ATOM     10  C   UNL     1       2.611   4.858  19.795  0.00  0.00    +0.000 A 
ATOM     11 CL   UNL     1       1.157   4.506  20.604  0.00  0.00    +0.000 Cl
ATOM     12  C   UNL     1       3.052   6.112  19.308  0.00  0.00    +0.000 A 
ATOM     13  N   UNL     1       4.264   6.008  18.741  0.00  0.00    +0.000 NA
ATOM     14  N   UNL     1       4.563   4.705  18.821  0.00  0.00    +0.000 N 
ATOM     15  C   UNL     1       5.801   4.249  18.235  0.00  0.00    +0.000 C 
ENDBRANCH   1  12
BRANCH   5  16
ATOM     16  C   UNL     1       0.386  11.732  18.953  0.00  0.00    +0.000 C 
BRANCH  16  17
ATOM     17  C   UNL     1       1.613  12.573  19.341  0.00  0.00    +0.000 C 
ATOM     18  C   UNL     1       2.300  13.198  18.125  0.00  0.00    +0.000 C 
ATOM     19  C   UNL     1       1.180  13.669  20.316  0.00  0.00    +0.000 C 
ENDBRANCH  16  17
ENDBRANCH   5  16
TORSDOF 3
ENDMDL
MODEL 7
REMARK VINA RESULT:      -5.8      2.298      7.198
REMARK  Name = 
REMARK  7 active torsions:
REMARK  status: ('A' for Active; 'I' for Inactive)
REMARK    1  A    between atoms: C_1  and  C_2
REMARK    2  A    between atoms: C_5  and  C_6
REMARK    3  A    between atoms: N_10  and  C_11
REMARK    4  A    between atoms: C_11  and  C_12
REMARK    5  A    between atoms: C_12  and  C_13
REMARK    6  A    between atoms: C_12  and  C_14
REMARK    7  A    between atoms: N_17  and  C_18
REMARK                            x       y       z     vdW  Elec       q    Type
REMARK                         _______ _______ _______ _____ _____    ______ ____
ROOT
ATOM      1  C   UNL     1       4.387   5.497  17.258  0.00  0.00    +0.000 A 
ATOM      2  N   UNL     1       4.860   6.427  16.458  0.00  0.00    +0.000 NA
ATOM      3  N   UNL     1       5.521   5.885  15.363  0.00  0.00    +0.000 NA
ATOM      4  C   UNL     1       5.511   4.569  15.368  0.00  0.00    +0.000 A 
ATOM      5  N   UNL     1       6.037   3.740  14.431  0.00  0.00    +0.000 N 
ATOM      6  S   UNL     1       4.751   3.890  16.744  0.00  0.00    +0.000 S 
ATOM      7  H   UNL     1       6.130   2.769  14.709  0.00  0.00    +0.000 HD
ENDROOT
BRANCH   1  12
ATOM      8  C   UNL     1       1.163   7.292  20.844  0.00  0.00    +0.000 C 
ATOM      9  C   UNL     1       2.155   6.563  20.016  0.00  0.00    +0.000 A 
ATOM     10  C   UNL     1       2.828   6.902  18.854  0.00  0.00    +0.000 A 
ATOM     11 CL   UNL     1       2.733   8.381  18.019  0.00  0.00    +0.000 Cl
ATOM     12  C   UNL     1       3.561   5.746  18.491  0.00  0.00    +0.000 A 
ATOM     13  N   UNL     1       3.411   4.775  19.406  0.00  0.00    +0.000 NA
ATOM     14  N   UNL     1       2.561   5.288  20.305  0.00  0.00    +0.000 N 
ATOM     15  C   UNL     1       2.145   4.453  21.407  0.00  0.00    +0.000 C 
ENDBRANCH   1  12
BRANCH   5  16
ATOM     16  C   UNL     1       7.094   4.252  13.581  0.00  0.00    +0.000 C 
BRANCH  16  17
ATOM     17  C   UNL     1       6.932   3.742  12.140  0.00  0.00    +0.000 C 
ATOM     18  C   UNL     1       5.542   3.156  11.881  0.00  0.00    +0.000 C 
ATOM     19  C   UNL     1       7.203   4.892  11.168  0.00  0.00    +0.000 C 
ENDBRANCH  16  17
ENDBRANCH   5  16
TORSDOF 3
ENDMDL
MODEL 8
REMARK VINA RESULT:      -5.8      4.745      6.093
REMARK  Name = 
REMARK  7 active torsions:
REMARK  status: ('A' for Active; 'I' for Inactive)
REMARK    1  A    between atoms: C_1  and  C_2
REMARK    2  A    between atoms: C_5  and  C_6
REMARK    3  A    between atoms: N_10  and  C_11
REMARK    4  A    between atoms: C_11  and  C_12
REMARK    5  A    between atoms: C_12  and  C_13
REMARK    6  A    between atoms: C_12  and  C_14
REMARK    7  A    between atoms: N_17  and  C_18
REMARK                            x       y       z     vdW  Elec       q    Type
REMARK                         _______ _______ _______ _____ _____    ______ ____
ROOT
ATOM      1  C   UNL     1       2.296   7.092  19.040  0.00  0.00    +0.000 A 
ATOM      2  N   UNL     1       2.012   7.088  20.323  0.00  0.00    +0.000 NA
ATOM      3  N   UNL     1       1.446   8.287  20.735  0.00  0.00    +0.000 NA
ATOM      4  C   UNL     1       1.311   9.147  19.748  0.00  0.00    +0.000 A 
ATOM      5  N   UNL     1       0.768  10.389  19.809  0.00  0.00    +0.000 N 
ATOM      6  S   UNL     1       1.924   8.582  18.253  0.00  0.00    +0.000 S 
ATOM      7  H   UNL     1       0.948  10.986  19.008  0.00  0.00    +0.000 HD
ENDROOT
BRANCH   1  12
ATOM      8  C   UNL     1       5.185   3.774  16.371  0.00  0.00    +0.000 C 
ATOM      9  C   UNL     1       4.137   4.522  17.108  0.00  0.00    +0.000 A 
ATOM     10  C   UNL     1       4.043   5.845  17.508  0.00  0.00    +0.000 A 
ATOM     11 CL   UNL     1       5.167   7.083  17.198  0.00  0.00    +0.000 Cl
ATOM     12  C   UNL     1       2.849   5.926  18.266  0.00  0.00    +0.000 A 
ATOM     13  N   UNL     1       2.205   4.748  18.275  0.00  0.00    +0.000 NA
ATOM     14  N   UNL     1       3.000   3.924  17.580  0.00  0.00    +0.000 N 
ATOM     15  C   UNL     1       2.608   2.540  17.454  0.00  0.00    +0.000 C 
ENDBRANCH   1  12
BRANCH   5  16
ATOM     16  C   UNL     1       0.735  11.060  21.093  0.00  0.00    +0.000 C 
BRANCH  16  17
ATOM     17  C   UNL     1      -0.689  11.067  21.671  0.00  0.00    +0.000 C 
ATOM     18  C   UNL     1      -0.777  10.343  23.016  0.00  0.00    +0.000 C 
ATOM     19  C   UNL     1      -1.160  12.514  21.826  0.00  0.00    +0.000 C 
ENDBRANCH  16  17
ENDBRANCH   5  16
TORSDOF 3
ENDMDL
MODEL 9
REMARK VINA RESULT:      -5.8      5.109      6.638
REMARK  Name = 
REMARK  7 active torsions:
REMARK  status: ('A' for Active; 'I' for Inactive)
REMARK    1  A    between atoms: C_1  and  C_2
REMARK    2  A    between atoms: C_5  and  C_6
REMARK    3  A    between atoms: N_10  and  C_11
REMARK    4  A    between atoms: C_11  and  C_12
REMARK    5  A    between atoms: C_12  and  C_13
REMARK    6  A    between atoms: C_12  and  C_14
REMARK    7  A    between atoms: N_17  and  C_18
REMARK                            x       y       z     vdW  Elec       q    Type
REMARK                         _______ _______ _______ _____ _____    ______ ____
ROOT
ATOM      1  C   UNL     1       2.199   7.086  19.214  0.00  0.00    +0.000 A 
ATOM      2  N   UNL     1       1.839   7.309  20.459  0.00  0.00    +0.000 NA
ATOM      3  N   UNL     1       1.372   8.603  20.641  0.00  0.00    +0.000 NA
ATOM      4  C   UNL     1       1.384   9.307  19.529  0.00  0.00    +0.000 A 
ATOM      5  N   UNL     1       0.965  10.586  19.361  0.00  0.00    +0.000 N 
ATOM      6  S   UNL     1       2.027   8.461  18.186  0.00  0.00    +0.000 S 
ATOM      7  H   UNL     1       1.253  11.031  18.495  0.00  0.00    +0.000 HD
ENDROOT
BRANCH   1  12
ATOM      8  C   UNL     1       2.802   2.174  17.804  0.00  0.00    +0.000 C 
ATOM      9  C   UNL     1       2.898   3.628  18.082  0.00  0.00    +0.000 A 
ATOM     10  C   UNL     1       2.187   4.465  18.926  0.00  0.00    +0.000 A 
ATOM     11 CL   UNL     1       0.943   4.012  19.995  0.00  0.00    +0.000 Cl
ATOM     12  C   UNL     1       2.679   5.768  18.668  0.00  0.00    +0.000 A 
ATOM     13  N   UNL     1       3.681   5.735  17.777  0.00  0.00    +0.000 NA
ATOM     14  N   UNL     1       3.789   4.444  17.438  0.00  0.00    +0.000 N 
ATOM     15  C   UNL     1       4.759   4.078  16.433  0.00  0.00    +0.000 C 
ENDBRANCH   1  12
BRANCH   5  16
ATOM     16  C   UNL     1       0.921  11.450  20.524  0.00  0.00    +0.000 C 
BRANCH  16  17
ATOM     17  C   UNL     1      -0.518  11.909  20.811  0.00  0.00    +0.000 C 
ATOM     18  C   UNL     1      -1.492  11.504  19.703  0.00  0.00    +0.000 C 
ATOM     19  C   UNL     1      -0.974  11.321  22.148  0.00  0.00    +0.000 C 
ENDBRANCH  16  17
ENDBRANCH   5  16
TORSDOF 3
ENDMDL
