MODEL 1
REMARK VINA RESULT:      -7.6      0.000      0.000
REMARK  Name = 
REMARK  8 active torsions:
REMARK  status: ('A' for Active; 'I' for Inactive)
REMARK    1  A    between atoms: C_1  and  C_2
REMARK    2  A    between atoms: C_2  and  C_3
REMARK    3  A    between atoms: C_2  and  C_4
REMARK    4  A    between atoms: C_2  and  C_6
REMARK    5  A    between atoms: C_4  and  N_5
REMARK    6  A    between atoms: C_6  and  N_7
REMARK    7  A    between atoms: N_7  and  C_8
REMARK    8  A    between atoms: C_10  and  C_11
REMARK                            x       y       z     vdW  Elec       q    Type
REMARK                         _______ _______ _______ _____ _____    ______ ____
ROOT
ATOM      1  C   UNL     1       4.139   4.655  18.855  0.00  0.00    +0.000 A 
ATOM      2  C   UNL     1       3.664   5.950  18.626  0.00  0.00    +0.000 A 
ATOM      3  C   UNL     1       2.646   6.482  19.405  0.00  0.00    +0.000 A 
ATOM      4  N   UNL     1       2.084   5.779  20.412  0.00  0.00    +0.000 NA
ATOM      5  C   UNL     1       2.506   4.517  20.633  0.00  0.00    +0.000 A 
ATOM      6  C   UNL     1       1.918   3.756  21.632  0.00  0.00    +0.000 A 
ATOM      7  N   UNL     1       2.234   2.474  21.956  0.00  0.00    +0.000 NA
ATOM      8  C   UNL     1       3.204   1.904  21.222  0.00  0.00    +0.000 A 
ATOM      9  C   UNL     1       3.865   2.559  20.195  0.00  0.00    +0.000 A 
ATOM     10  C   UNL     1       3.526   3.897  19.886  0.00  0.00    +0.000 A 
ENDROOT
BRANCH   3  11
ATOM     11  C   UNL     1       2.109   7.839  19.182  0.00  0.00    +0.000 A 
ATOM     12  C   UNL     1       1.371   8.517  20.164  0.00  0.00    +0.000 A 
ATOM     13  C   UNL     1       0.891   9.790  19.898  0.00  0.00    +0.000 A 
ATOM     14  N   UNL     1       1.090  10.436  18.733  0.00  0.00    +0.000 NA
ATOM     15  C   UNL     1       1.807   9.783  17.798  0.00  0.00    +0.000 A 
ATOM     16  C   UNL     1       2.327   8.509  17.973  0.00  0.00    +0.000 A 
ENDBRANCH   3  11
BRANCH   1  17
ATOM     17  N   UNL     1       5.119   4.074  18.026  0.00  0.00    +0.000 N 
ATOM     18  H   UNL     1       6.051   4.337  18.332  0.00  0.00    +0.000 HD
BRANCH  17  19
ATOM     19  C   UNL     1       4.943   4.087  16.568  0.00  0.00    +0.000 C 
BRANCH  19  21
ATOM     20  C   UNL     1       5.271   6.310  15.387  0.00  0.00    +0.000 C 
ATOM     21  C   UNL     1       5.957   5.010  15.851  0.00  0.00    +0.000 C 
ATOM     22  C   UNL     1       6.558   4.295  14.622  0.00  0.00    +0.000 C 
BRANCH  21  23
ATOM     23  C   UNL     1       7.131   5.332  16.822  0.00  0.00    +0.000 C 
BRANCH  23  24
ATOM     24  N   UNL     1       7.988   4.190  17.138  0.00  0.00    +0.000 NA
ATOM     25  H   UNL     1       7.655   3.731  17.986  0.00  0.00    +0.000 HD
ATOM     26  H   UNL     1       8.926   4.525  17.363  0.00  0.00    +0.000 HD
ENDBRANCH  23  24
ENDBRANCH  21  23
ENDBRANCH  19  21
ENDBRANCH  17  19
ENDBRANCH   1  17
TORSDOF 6
ENDMDL
MODEL 2
REMARK VINA RESULT:      -7.5      0.477      1.086
REMARK  Name = 
REMARK  8 active torsions:
REMARK  status: ('A' for Active; 'I' for Inactive)
REMARK    1  A    between atoms: C_1  and  C_2
REMARK    2  A    between atoms: C_2  and  C_3
REMARK    3  A    between atoms: C_2  and  C_4
REMARK    4  A    between atoms: C_2  and  C_6
REMARK    5  A    between atoms: C_4  and  N_5
REMARK    6  A    between atoms: C_6  and  N_7
REMARK    7  A    between atoms: N_7  and  C_8
REMARK    8  A    between atoms: C_10  and  C_11
REMARK                            x       y       z     vdW  Elec       q    Type
REMARK                         _______ _______ _______ _____ _____    ______ ____
ROOT
ATOM      1  C   UNL     1       4.163   4.605  18.717  0.00  0.00    +0.000 A 
ATOM      2  C   UNL     1       3.673   5.896  18.496  0.00  0.00    +0.000 A 
ATOM      3  C   UNL     1       2.711   6.444  19.332  0.00  0.00    +0.000 A 
ATOM      4  N   UNL     1       2.220   5.763  20.390  0.00  0.00    +0.000 NA
ATOM      5  C   UNL     1       2.656   4.505  20.606  0.00  0.00    +0.000 A 
ATOM      6  C   UNL     1       2.138   3.765  21.658  0.00  0.00    +0.000 A 
ATOM      7  N   UNL     1       2.475   2.489  21.985  0.00  0.00    +0.000 NA
ATOM      8  C   UNL     1       3.392   1.903  21.197  0.00  0.00    +0.000 A 
ATOM      9  C   UNL     1       3.982   2.537  20.115  0.00  0.00    +0.000 A 
ATOM     10  C   UNL     1       3.622   3.869  19.803  0.00  0.00    +0.000 A 
ENDROOT
BRANCH   3  11
ATOM     11  C   UNL     1       2.161   7.798  19.120  0.00  0.00    +0.000 A 
ATOM     12  C   UNL     1       2.355   8.500  17.921  0.00  0.00    +0.000 A 
ATOM     13  C   UNL     1       1.816   9.769  17.779  0.00  0.00    +0.000 A 
ATOM     14  N   UNL     1       1.100  10.389  18.737  0.00  0.00    +0.000 NA
ATOM     15  C   UNL     1       0.910   9.705  19.882  0.00  0.00    +0.000 A 
ATOM     16  C   UNL     1       1.410   8.433  20.116  0.00  0.00    +0.000 A 
ENDBRANCH   3  11
BRANCH   1  17
ATOM     17  N   UNL     1       5.083   4.006  17.835  0.00  0.00    +0.000 N 
ATOM     18  H   UNL     1       6.030   4.309  18.042  0.00  0.00    +0.000 HD
BRANCH  17  19
ATOM     19  C   UNL     1       4.780   3.936  16.399  0.00  0.00    +0.000 C 
BRANCH  19  21
ATOM     20  C   UNL     1       5.320   6.168  15.317  0.00  0.00    +0.000 C 
ATOM     21  C   UNL     1       5.796   4.719  15.533  0.00  0.00    +0.000 C 
ATOM     22  C   UNL     1       5.967   4.037  14.159  0.00  0.00    +0.000 C 
BRANCH  21  23
ATOM     23  C   UNL     1       7.186   4.702  16.236  0.00  0.00    +0.000 C 
BRANCH  23  24
ATOM     24  N   UNL     1       7.483   5.898  17.022  0.00  0.00    +0.000 NA
ATOM     25  H   UNL     1       8.233   6.429  16.577  0.00  0.00    +0.000 HD
ATOM     26  H   UNL     1       7.853   5.620  17.932  0.00  0.00    +0.000 HD
ENDBRANCH  23  24
ENDBRANCH  21  23
ENDBRANCH  19  21
ENDBRANCH  17  19
ENDBRANCH   1  17
TORSDOF 6
ENDMDL
MODEL 3
REMARK VINA RESULT:      -7.3      1.558      2.255
REMARK  Name = 
REMARK  8 active torsions:
REMARK  status: ('A' for Active; 'I' for Inactive)
REMARK    1  A    between atoms: C_1  and  C_2
REMARK    2  A    between atoms: C_2  and  C_3
REMARK    3  A    between atoms: C_2  and  C_4
REMARK    4  A    between atoms: C_2  and  C_6
REMARK    5  A    between atoms: C_4  and  N_5
REMARK    6  A    between atoms: C_6  and  N_7
REMARK    7  A    between atoms: N_7  and  C_8
REMARK    8  A    between atoms: C_10  and  C_11
REMARK                            x       y       z     vdW  Elec       q    Type
REMARK                         _______ _______ _______ _____ _____    ______ ____
ROOT
ATOM      1  C   UNL     1       3.220   5.924  18.529  0.00  0.00    +0.000 A 
ATOM      2  C   UNL     1       2.752   7.148  19.016  0.00  0.00    +0.000 A 
ATOM      3  C   UNL     1       1.871   7.197  20.087  0.00  0.00    +0.000 A 
ATOM      4  N   UNL     1       1.439   6.075  20.701  0.00  0.00    +0.000 NA
ATOM      5  C   UNL     1       1.853   4.881  20.229  0.00  0.00    +0.000 A 
ATOM      6  C   UNL     1       1.393   3.710  20.812  0.00  0.00    +0.000 A 
ATOM      7  N   UNL     1       1.716   2.444  20.434  0.00  0.00    +0.000 NA
ATOM      8  C   UNL     1       2.555   2.338  19.391  0.00  0.00    +0.000 A 
ATOM      9  C   UNL     1       3.082   3.433  18.724  0.00  0.00    +0.000 A 
ATOM     10  C   UNL     1       2.739   4.739  19.144  0.00  0.00    +0.000 A 
ENDROOT
BRANCH   3  11
ATOM     11  C   UNL     1       1.346   8.470  20.618  0.00  0.00    +0.000 A 
ATOM     12  C   UNL     1       1.097   9.576  19.791  0.00  0.00    +0.000 A 
ATOM     13  C   UNL     1       0.605  10.746  20.346  0.00  0.00    +0.000 A 
ATOM     14  N   UNL     1       0.342  10.899  21.658  0.00  0.00    +0.000 NA
ATOM     15  C   UNL     1       0.574   9.831  22.446  0.00  0.00    +0.000 A 
ATOM     16  C   UNL     1       1.066   8.620  21.982  0.00  0.00    +0.000 A 
ENDBRANCH   3  11
BRANCH   1  17
ATOM     17  N   UNL     1       4.055   5.854  17.397  0.00  0.00    +0.000 N 
ATOM     18  H   UNL     1       4.382   4.903  17.249  0.00  0.00    +0.000 HD
BRANCH  17  19
ATOM     19  C   UNL     1       5.086   6.879  17.184  0.00  0.00    +0.000 C 
BRANCH  19  21
ATOM     20  C   UNL     1       7.529   7.505  17.471  0.00  0.00    +0.000 C 
ATOM     21  C   UNL     1       6.520   6.343  17.410  0.00  0.00    +0.000 C 
ATOM     22  C   UNL     1       6.921   5.389  16.265  0.00  0.00    +0.000 C 
BRANCH  21  23
ATOM     23  C   UNL     1       6.556   5.522  18.733  0.00  0.00    +0.000 C 
BRANCH  23  24
ATOM     24  N   UNL     1       6.541   4.072  18.549  0.00  0.00    +0.000 NA
ATOM     25  H   UNL     1       5.737   3.802  17.983  0.00  0.00    +0.000 HD
ATOM     26  H   UNL     1       6.400   3.619  19.453  0.00  0.00    +0.000 HD
ENDBRANCH  23  24
ENDBRANCH  21  23
ENDBRANCH  19  21
ENDBRANCH  17  19
ENDBRANCH   1  17
TORSDOF 6
ENDMDL
MODEL 4
REMARK VINA RESULT:      -7.2      1.551      2.348
REMARK  Name = 
REMARK  8 active torsions:
REMARK  status: ('A' for Active; 'I' for Inactive)
REMARK    1  A    between atoms: C_1  and  C_2
REMARK    2  A    between atoms: C_2  and  C_3
REMARK    3  A    between atoms: C_2  and  C_4
REMARK    4  A    between atoms: C_2  and  C_6
REMARK    5  A    between atoms: C_4  and  N_5
REMARK    6  A    between atoms: C_6  and  N_7
REMARK    7  A    between atoms: N_7  and  C_8
REMARK    8  A    between atoms: C_10  and  C_11
REMARK                            x       y       z     vdW  Elec       q    Type
REMARK                         _______ _______ _______ _____ _____    ______ ____
ROOT
ATOM      1  C   UNL     1       3.256   5.856  18.512  0.00  0.00    +0.000 A 
ATOM      2  C   UNL     1       2.800   7.084  18.999  0.00  0.00    +0.000 A 
ATOM      3  C   UNL     1       1.889   7.141  20.044  0.00  0.00    +0.000 A 
ATOM      4  N   UNL     1       1.416   6.021  20.633  0.00  0.00    +0.000 NA
ATOM      5  C   UNL     1       1.818   4.823  20.160  0.00  0.00    +0.000 A 
ATOM      6  C   UNL     1       1.317   3.657  20.716  0.00  0.00    +0.000 A 
ATOM      7  N   UNL     1       1.625   2.388  20.334  0.00  0.00    +0.000 NA
ATOM      8  C   UNL     1       2.491   2.275  19.315  0.00  0.00    +0.000 A 
ATOM      9  C   UNL     1       3.060   3.365  18.675  0.00  0.00    +0.000 A 
ATOM     10  C   UNL     1       2.733   4.674  19.099  0.00  0.00    +0.000 A 
ENDROOT
BRANCH   3  11
ATOM     11  C   UNL     1       1.375   8.419  20.574  0.00  0.00    +0.000 A 
ATOM     12  C   UNL     1       1.101   9.513  19.740  0.00  0.00    +0.000 A 
ATOM     13  C   UNL     1       0.621  10.689  20.294  0.00  0.00    +0.000 A 
ATOM     14  N   UNL     1       0.395  10.858  21.612  0.00  0.00    +0.000 NA
ATOM     15  C   UNL     1       0.652   9.800  22.405  0.00  0.00    +0.000 A 
ATOM     16  C   UNL     1       1.133   8.585  21.943  0.00  0.00    +0.000 A 
ENDBRANCH   3  11
BRANCH   1  17
ATOM     17  N   UNL     1       4.123   5.779  17.404  0.00  0.00    +0.000 N 
ATOM     18  H   UNL     1       4.454   4.828  17.271  0.00  0.00    +0.000 HD
BRANCH  17  19
ATOM     19  C   UNL     1       5.158   6.804  17.214  0.00  0.00    +0.000 C 
BRANCH  19  21
ATOM     20  C   UNL     1       6.593   5.612  18.936  0.00  0.00    +0.000 C 
ATOM     21  C   UNL     1       6.578   6.290  17.553  0.00  0.00    +0.000 C 
ATOM     22  C   UNL     1       7.584   7.461  17.557  0.00  0.00    +0.000 C 
BRANCH  21  23
ATOM     23  C   UNL     1       7.036   5.289  16.451  0.00  0.00    +0.000 C 
BRANCH  23  24
ATOM     24  N   UNL     1       7.859   4.183  16.939  0.00  0.00    +0.000 NA
ATOM     25  H   UNL     1       8.430   3.814  16.179  0.00  0.00    +0.000 HD
ATOM     26  H   UNL     1       7.253   3.412  17.222  0.00  0.00    +0.000 HD
ENDBRANCH  23  24
ENDBRANCH  21  23
ENDBRANCH  19  21
ENDBRANCH  17  19
ENDBRANCH   1  17
TORSDOF 6
ENDMDL
MODEL 5
REMARK VINA RESULT:      -7.2      0.826      1.090
REMARK  Name = 
REMARK  8 active torsions:
REMARK  status: ('A' for Active; 'I' for Inactive)
REMARK    1  A    between atoms: C_1  and  C_2
REMARK    2  A    between atoms: C_2  and  C_3
REMARK    3  A    between atoms: C_2  and  C_4
REMARK    4  A    between atoms: C_2  and  C_6
REMARK    5  A    between atoms: C_4  and  N_5
REMARK    6  A    between atoms: C_6  and  N_7
REMARK    7  A    between atoms: N_7  and  C_8
REMARK    8  A    between atoms: C_10  and  C_11
REMARK                            x       y       z     vdW  Elec       q    Type
REMARK                         _______ _______ _______ _____ _____    ______ ____
ROOT
ATOM      1  C   UNL     1       4.115   4.857  18.769  0.00  0.00    +0.000 A 
ATOM      2  C   UNL     1       3.596   6.141  18.586  0.00  0.00    +0.000 A 
ATOM      3  C   UNL     1       2.577   6.619  19.398  0.00  0.00    +0.000 A 
ATOM      4  N   UNL     1       2.057   5.872  20.396  0.00  0.00    +0.000 NA
ATOM      5  C   UNL     1       2.522   4.618  20.573  0.00  0.00    +0.000 A 
ATOM      6  C   UNL     1       1.978   3.812  21.560  0.00  0.00    +0.000 A 
ATOM      7  N   UNL     1       2.340   2.531  21.842  0.00  0.00    +0.000 NA
ATOM      8  C   UNL     1       3.312   2.013  21.074  0.00  0.00    +0.000 A 
ATOM      9  C   UNL     1       3.933   2.717  20.054  0.00  0.00    +0.000 A 
ATOM     10  C   UNL     1       3.546   4.051  19.789  0.00  0.00    +0.000 A 
ENDROOT
BRANCH   3  11
ATOM     11  C   UNL     1       1.995   7.964  19.224  0.00  0.00    +0.000 A 
ATOM     12  C   UNL     1       1.300   8.613  20.256  0.00  0.00    +0.000 A 
ATOM     13  C   UNL     1       0.773   9.876  20.035  0.00  0.00    +0.000 A 
ATOM     14  N   UNL     1       0.886  10.539  18.868  0.00  0.00    +0.000 NA
ATOM     15  C   UNL     1       1.562   9.914  17.884  0.00  0.00    +0.000 A 
ATOM     16  C   UNL     1       2.123   8.653  18.012  0.00  0.00    +0.000 A 
ENDBRANCH   3  11
BRANCH   1  17
ATOM     17  N   UNL     1       5.096   4.330  17.906  0.00  0.00    +0.000 N 
ATOM     18  H   UNL     1       5.973   4.831  18.009  0.00  0.00    +0.000 HD
BRANCH  17  19
ATOM     19  C   UNL     1       4.750   4.013  16.513  0.00  0.00    +0.000 C 
BRANCH  19  21
ATOM     20  C   UNL     1       5.518   4.067  14.094  0.00  0.00    +0.000 C 
ATOM     21  C   UNL     1       5.699   4.687  15.493  0.00  0.00    +0.000 C 
ATOM     22  C   UNL     1       7.168   4.514  15.932  0.00  0.00    +0.000 C 
BRANCH  21  23
ATOM     23  C   UNL     1       5.403   6.215  15.452  0.00  0.00    +0.000 C 
BRANCH  23  24
ATOM     24  N   UNL     1       6.193   7.012  16.390  0.00  0.00    +0.000 NA
ATOM     25  H   UNL     1       7.174   7.004  16.111  0.00  0.00    +0.000 HD
ATOM     26  H   UNL     1       6.169   6.571  17.310  0.00  0.00    +0.000 HD
ENDBRANCH  23  24
ENDBRANCH  21  23
ENDBRANCH  19  21
ENDBRANCH  17  19
ENDBRANCH   1  17
TORSDOF 6
ENDMDL
MODEL 6
REMARK VINA RESULT:      -7.2      0.712      1.144
REMARK  Name = 
REMARK  8 active torsions:
REMARK  status: ('A' for Active; 'I' for Inactive)
REMARK    1  A    between atoms: C_1  and  C_2
REMARK    2  A    between atoms: C_2  and  C_3
REMARK    3  A    between atoms: C_2  and  C_4
REMARK    4  A    between atoms: C_2  and  C_6
REMARK    5  A    between atoms: C_4  and  N_5
REMARK    6  A    between atoms: C_6  and  N_7
REMARK    7  A    between atoms: N_7  and  C_8
REMARK    8  A    between atoms: C_10  and  C_11
REMARK                            x       y       z     vdW  Elec       q    Type
REMARK                         _______ _______ _______ _____ _____    ______ ____
ROOT
ATOM      1  C   UNL     1       4.255   4.725  18.881  0.00  0.00    +0.000 A 
ATOM      2  C   UNL     1       3.751   6.008  18.650  0.00  0.00    +0.000 A 
ATOM      3  C   UNL     1       2.690   6.501  19.397  0.00  0.00    +0.000 A 
ATOM      4  N   UNL     1       2.112   5.771  20.375  0.00  0.00    +0.000 NA
ATOM      5  C   UNL     1       2.562   4.518  20.597  0.00  0.00    +0.000 A 
ATOM      6  C   UNL     1       1.961   3.729  21.565  0.00  0.00    +0.000 A 
ATOM      7  N   UNL     1       2.302   2.452  21.885  0.00  0.00    +0.000 NA
ATOM      8  C   UNL     1       3.314   1.919  21.181  0.00  0.00    +0.000 A 
ATOM      9  C   UNL     1       3.993   2.606  20.187  0.00  0.00    +0.000 A 
ATOM     10  C   UNL     1       3.626   3.937  19.881  0.00  0.00    +0.000 A 
ENDROOT
BRANCH   3  11
ATOM     11  C   UNL     1       2.123   7.845  19.170  0.00  0.00    +0.000 A 
ATOM     12  C   UNL     1       1.370   8.510  20.150  0.00  0.00    +0.000 A 
ATOM     13  C   UNL     1       0.861   9.770  19.880  0.00  0.00    +0.000 A 
ATOM     14  N   UNL     1       1.045  10.417  18.713  0.00  0.00    +0.000 NA
ATOM     15  C   UNL     1       1.776   9.777  17.780  0.00  0.00    +0.000 A 
ATOM     16  C   UNL     1       2.325   8.516  17.958  0.00  0.00    +0.000 A 
ENDBRANCH   3  11
BRANCH   1  17
ATOM     17  N   UNL     1       5.281   4.182  18.083  0.00  0.00    +0.000 N 
ATOM     18  H   UNL     1       6.193   4.474  18.422  0.00  0.00    +0.000 HD
BRANCH  17  19
ATOM     19  C   UNL     1       5.154   4.199  16.619  0.00  0.00    +0.000 C 
BRANCH  19  21
ATOM     20  C   UNL     1       7.152   5.734  16.936  0.00  0.00    +0.000 C 
ATOM     21  C   UNL     1       6.066   5.256  15.952  0.00  0.00    +0.000 C 
ATOM     22  C   UNL     1       5.232   6.472  15.496  0.00  0.00    +0.000 C 
BRANCH  21  23
ATOM     23  C   UNL     1       6.719   4.638  14.680  0.00  0.00    +0.000 C 
BRANCH  23  24
ATOM     24  N   UNL     1       7.770   5.456  14.078  0.00  0.00    +0.000 NA
ATOM     25  H   UNL     1       7.772   6.385  14.501  0.00  0.00    +0.000 HD
ATOM     26  H   UNL     1       7.554   5.609  13.092  0.00  0.00    +0.000 HD
ENDBRANCH  23  24
ENDBRANCH  21  23
ENDBRANCH  19  21
ENDBRANCH  17  19
ENDBRANCH   1  17
TORSDOF 6
ENDMDL
MODEL 7
REMARK VINA RESULT:      -7.1      1.516      2.155
REMARK  Name = 
REMARK  8 active torsions:
REMARK  status: ('A' for Active; 'I' for Inactive)
REMARK    1  A    between atoms: C_1  and  C_2
REMARK    2  A    between atoms: C_2  and  C_3
REMARK    3  A    between atoms: C_2  and  C_4
REMARK    4  A    between atoms: C_2  and  C_6
REMARK    5  A    between atoms: C_4  and  N_5
REMARK    6  A    between atoms: C_6  and  N_7
REMARK    7  A    between atoms: N_7  and  C_8
REMARK    8  A    between atoms: C_10  and  C_11
REMARK                            x       y       z     vdW  Elec       q    Type
REMARK                         _______ _______ _______ _____ _____    ______ ____
ROOT
ATOM      1  C   UNL     1       3.368   6.011  18.654  0.00  0.00    +0.000 A 
ATOM      2  C   UNL     1       2.735   7.213  18.985  0.00  0.00    +0.000 A 
ATOM      3  C   UNL     1       1.899   7.296  20.089  0.00  0.00    +0.000 A 
ATOM      4  N   UNL     1       1.672   6.231  20.888  0.00  0.00    +0.000 NA
ATOM      5  C   UNL     1       2.249   5.052  20.572  0.00  0.00    +0.000 A 
ATOM      6  C   UNL     1       2.001   3.931  21.348  0.00  0.00    +0.000 A 
ATOM      7  N   UNL     1       2.503   2.684  21.141  0.00  0.00    +0.000 NA
ATOM      8  C   UNL     1       3.307   2.543  20.075  0.00  0.00    +0.000 A 
ATOM      9  C   UNL     1       3.629   3.587  19.222  0.00  0.00    +0.000 A 
ATOM     10  C   UNL     1       3.103   4.877  19.466  0.00  0.00    +0.000 A 
ENDROOT
BRANCH   3  11
ATOM     11  C   UNL     1       1.203   8.544  20.459  0.00  0.00    +0.000 A 
ATOM     12  C   UNL     1       0.780   8.798  21.772  0.00  0.00    +0.000 A 
ATOM     13  C   UNL     1       0.130   9.987  22.061  0.00  0.00    +0.000 A 
ATOM     14  N   UNL     1      -0.131  10.939  21.144  0.00  0.00    +0.000 NA
ATOM     15  C   UNL     1       0.285  10.692  19.887  0.00  0.00    +0.000 A 
ATOM     16  C   UNL     1       0.943   9.533  19.503  0.00  0.00    +0.000 A 
ENDBRANCH   3  11
BRANCH   1  17
ATOM     17  N   UNL     1       4.159   5.891  17.495  0.00  0.00    +0.000 N 
ATOM     18  H   UNL     1       4.474   4.933  17.372  0.00  0.00    +0.000 HD
BRANCH  17  19
ATOM     19  C   UNL     1       5.187   6.899  17.204  0.00  0.00    +0.000 C 
BRANCH  19  21
ATOM     20  C   UNL     1       6.714   5.596  18.757  0.00  0.00    +0.000 C 
ATOM     21  C   UNL     1       6.624   6.372  17.429  0.00  0.00    +0.000 C 
ATOM     22  C   UNL     1       7.626   7.546  17.465  0.00  0.00    +0.000 C 
BRANCH  21  23
ATOM     23  C   UNL     1       7.025   5.455  16.236  0.00  0.00    +0.000 C 
BRANCH  23  24
ATOM     24  N   UNL     1       6.207   5.626  15.036  0.00  0.00    +0.000 NA
ATOM     25  H   UNL     1       5.237   5.382  15.240  0.00  0.00    +0.000 HD
ATOM     26  H   UNL     1       6.509   4.960  14.325  0.00  0.00    +0.000 HD
ENDBRANCH  23  24
ENDBRANCH  21  23
ENDBRANCH  19  21
ENDBRANCH  17  19
ENDBRANCH   1  17
TORSDOF 6
ENDMDL
MODEL 8
REMARK VINA RESULT:      -7.0      1.453      6.259
REMARK  Name = 
REMARK  8 active torsions:
REMARK  status: ('A' for Active; 'I' for Inactive)
REMARK    1  A    between atoms: C_1  and  C_2
REMARK    2  A    between atoms: C_2  and  C_3
REMARK    3  A    between atoms: C_2  and  C_4
REMARK    4  A    between atoms: C_2  and  C_6
REMARK    5  A    between atoms: C_4  and  N_5
REMARK    6  A    between atoms: C_6  and  N_7
REMARK    7  A    between atoms: N_7  and  C_8
REMARK    8  A    between atoms: C_10  and  C_11
REMARK                            x       y       z     vdW  Elec       q    Type
REMARK                         _______ _______ _______ _____ _____    ______ ____
ROOT
ATOM      1  C   UNL     1       2.735   6.359  19.726  0.00  0.00    +0.000 A 
ATOM      2  C   UNL     1       3.736   5.763  18.955  0.00  0.00    +0.000 A 
ATOM      3  C   UNL     1       4.222   6.387  17.814  0.00  0.00    +0.000 A 
ATOM      4  N   UNL     1       3.758   7.590  17.412  0.00  0.00    +0.000 NA
ATOM      5  C   UNL     1       2.770   8.171  18.124  0.00  0.00    +0.000 A 
ATOM      6  C   UNL     1       2.244   9.385  17.712  0.00  0.00    +0.000 A 
ATOM      7  N   UNL     1       1.245  10.076  18.323  0.00  0.00    +0.000 NA
ATOM      8  C   UNL     1       0.726   9.509  19.424  0.00  0.00    +0.000 A 
ATOM      9  C   UNL     1       1.165   8.298  19.936  0.00  0.00    +0.000 A 
ATOM     10  C   UNL     1       2.214   7.605  19.287  0.00  0.00    +0.000 A 
ENDROOT
BRANCH   3  11
ATOM     11  C   UNL     1       5.268   5.780  16.968  0.00  0.00    +0.000 A 
ATOM     12  C   UNL     1       5.216   5.834  15.567  0.00  0.00    +0.000 A 
ATOM     13  C   UNL     1       6.226   5.245  14.824  0.00  0.00    +0.000 A 
ATOM     14  N   UNL     1       7.281   4.608  15.368  0.00  0.00    +0.000 NA
ATOM     15  C   UNL     1       7.330   4.567  16.713  0.00  0.00    +0.000 A 
ATOM     16  C   UNL     1       6.367   5.127  17.539  0.00  0.00    +0.000 A 
ENDBRANCH   3  11
BRANCH   1  17
ATOM     17  N   UNL     1       2.179   5.706  20.843  0.00  0.00    +0.000 N 
ATOM     18  H   UNL     1       2.045   6.356  21.611  0.00  0.00    +0.000 HD
BRANCH  17  19
ATOM     19  C   UNL     1       2.697   4.394  21.255  0.00  0.00    +0.000 C 
BRANCH  19  21
ATOM     20  C   UNL     1       0.599   3.747  19.980  0.00  0.00    +0.000 C 
ATOM     21  C   UNL     1       1.831   3.220  20.740  0.00  0.00    +0.000 C 
ATOM     22  C   UNL     1       1.356   2.347  21.921  0.00  0.00    +0.000 C 
BRANCH  21  23
ATOM     23  C   UNL     1       2.696   2.315  19.812  0.00  0.00    +0.000 C 
BRANCH  23  24
ATOM     24  N   UNL     1       2.008   1.842  18.612  0.00  0.00    +0.000 NA
ATOM     25  H   UNL     1       2.644   1.278  18.048  0.00  0.00    +0.000 HD
ATOM     26  H   UNL     1       1.763   2.642  18.027  0.00  0.00    +0.000 HD
ENDBRANCH  23  24
ENDBRANCH  21  23
ENDBRANCH  19  21
ENDBRANCH  17  19
ENDBRANCH   1  17
TORSDOF 6
ENDMDL
MODEL 9
REMARK VINA RESULT:      -7.0      0.858      1.463
REMARK  Name = 
REMARK  8 active torsions:
REMARK  status: ('A' for Active; 'I' for Inactive)
REMARK    1  A    between atoms: C_1  and  C_2
REMARK    2  A    between atoms: C_2  and  C_3
REMARK    3  A    between atoms: C_2  and  C_4
REMARK    4  A    between atoms: C_2  and  C_6
REMARK    5  A    between atoms: C_4  and  N_5
REMARK    6  A    between atoms: C_6  and  N_7
REMARK    7  A    between atoms: N_7  and  C_8
REMARK    8  A    between atoms: C_10  and  C_11
REMARK                            x       y       z     vdW  Elec       q    Type
REMARK                         _______ _______ _______ _____ _____    ______ ____
ROOT
ATOM      1  C   UNL     1       3.947   4.615  18.667  0.00  0.00    +0.000 A 
ATOM      2  C   UNL     1       3.466   5.913  18.469  0.00  0.00    +0.000 A 
ATOM      3  C   UNL     1       2.569   6.483  19.361  0.00  0.00    +0.000 A 
ATOM      4  N   UNL     1       2.136   5.817  20.453  0.00  0.00    +0.000 NA
ATOM      5  C   UNL     1       2.563   4.552  20.649  0.00  0.00    +0.000 A 
ATOM      6  C   UNL     1       2.102   3.828  21.738  0.00  0.00    +0.000 A 
ATOM      7  N   UNL     1       2.438   2.548  22.051  0.00  0.00    +0.000 NA
ATOM      8  C   UNL     1       3.292   1.941  21.211  0.00  0.00    +0.000 A 
ATOM      9  C   UNL     1       3.821   2.558  20.088  0.00  0.00    +0.000 A 
ATOM     10  C   UNL     1       3.465   3.895  19.791  0.00  0.00    +0.000 A 
ENDROOT
BRANCH   3  11
ATOM     11  C   UNL     1       2.030   7.844  19.175  0.00  0.00    +0.000 A 
ATOM     12  C   UNL     1       2.151   8.533  17.959  0.00  0.00    +0.000 A 
ATOM     13  C   UNL     1       1.626   9.810  17.843  0.00  0.00    +0.000 A 
ATOM     14  N   UNL     1       0.991  10.451  18.843  0.00  0.00    +0.000 NA
ATOM     15  C   UNL     1       0.870   9.781  20.005  0.00  0.00    +0.000 A 
ATOM     16  C   UNL     1       1.363   8.502  20.215  0.00  0.00    +0.000 A 
ENDBRANCH   3  11
BRANCH   1  17
ATOM     17  N   UNL     1       4.799   3.995  17.732  0.00  0.00    +0.000 N 
ATOM     18  H   UNL     1       5.628   3.627  18.188  0.00  0.00    +0.000 HD
BRANCH  17  19
ATOM     19  C   UNL     1       5.066   4.647  16.443  0.00  0.00    +0.000 C 
BRANCH  19  21
ATOM     20  C   UNL     1       7.057   5.064  14.923  0.00  0.00    +0.000 C 
ATOM     21  C   UNL     1       6.499   5.224  16.350  0.00  0.00    +0.000 C 
ATOM     22  C   UNL     1       7.435   4.496  17.339  0.00  0.00    +0.000 C 
BRANCH  21  23
ATOM     23  C   UNL     1       6.471   6.728  16.758  0.00  0.00    +0.000 C 
BRANCH  23  24
ATOM     24  N   UNL     1       7.781   7.376  16.776  0.00  0.00    +0.000 NA
ATOM     25  H   UNL     1       8.043   7.657  15.831  0.00  0.00    +0.000 HD
ATOM     26  H   UNL     1       8.489   6.698  17.062  0.00  0.00    +0.000 HD
ENDBRANCH  23  24
ENDBRANCH  21  23
ENDBRANCH  19  21
ENDBRANCH  17  19
ENDBRANCH   1  17
TORSDOF 6
ENDMDL
