MODEL 1
REMARK VINA RESULT:      -7.7      0.000      0.000
REMARK  Name = 
REMARK  8 active torsions:
REMARK  status: ('A' for Active; 'I' for Inactive)
REMARK    1  A    between atoms: C_1  and  O_2
REMARK    2  A    between atoms: O_2  and  C_3
REMARK    3  A    between atoms: C_8  and  C_9
REMARK    4  A    between atoms: C_10  and  C_11
REMARK    5  A    between atoms: C_11  and  O_13
REMARK    6  A    between atoms: O_13  and  C_14
REMARK    7  A    between atoms: C_14  and  C_15
REMARK    8  A    between atoms: N_17  and  C_18
REMARK                            x       y       z     vdW  Elec       q    Type
REMARK                         _______ _______ _______ _____ _____    ______ ____
ROOT
ATOM      1  O   UNL     1       1.262   2.876  20.097  0.00  0.00    +0.000 OA
ENDROOT
BRANCH   1   2
ATOM      2  C   UNL     1       1.615   3.836  20.984  0.00  0.00    +0.000 C 
ATOM      3  O   UNL     1       2.183   3.648  22.049  0.00  0.00    +0.000 OA
BRANCH   2   5
ATOM      4  C   UNL     1       2.165   6.105  20.255  0.00  0.00    +0.000 C 
ATOM      5  C   UNL     1       1.244   5.143  20.409  0.00  0.00    +0.000 C 
BRANCH   4  11
ATOM      6  C   UNL     1       1.387   8.552  20.448  0.00  0.00    +0.000 A 
ATOM      7  C   UNL     1       1.195   9.786  19.804  0.00  0.00    +0.000 A 
ATOM      8  C   UNL     1       1.521   9.947  18.456  0.00  0.00    +0.000 A 
ATOM      9  C   UNL     1       2.023   8.875  17.731  0.00  0.00    +0.000 A 
ATOM     10  C   UNL     1       2.210   7.643  18.358  0.00  0.00    +0.000 A 
ATOM     11  C   UNL     1       1.913   7.461  19.722  0.00  0.00    +0.000 A 
BRANCH   6  13
ATOM     12  C   UNL     1      -0.333   8.601  22.095  0.00  0.00    +0.000 C 
ATOM     13  O   UNL     1       1.026   8.340  21.757  0.00  0.00    +0.000 OA
ENDBRANCH   6  13
ENDBRANCH   4  11
ENDBRANCH   2   5
ENDBRANCH   1   2
BRANCH   1  14
ATOM     14  C   UNL     1       2.334   2.383  19.296  0.00  0.00    +0.000 C 
BRANCH  14  15
ATOM     15  C   UNL     1       2.656   3.362  18.171  0.00  0.00    +0.000 C 
ATOM     16  O   UNL     1       1.826   3.684  17.323  0.00  0.00    +0.000 OA
ATOM     17  N   UNL     1       3.944   3.867  18.187  0.00  0.00    +0.000 N 
ATOM     18  H   UNL     1       4.464   3.753  19.060  0.00  0.00    +0.000 HD
BRANCH  17  19
ATOM     19  C   UNL     1       4.363   4.856  17.197  0.00  0.00    +0.000 C 
ATOM     20  C   UNL     1       4.854   4.197  15.906  0.00  0.00    +0.000 C 
ATOM     21  C   UNL     1       6.298   3.789  16.140  0.00  0.00    +0.000 C 
ATOM     22  S   UNL     1       7.003   5.142  17.060  0.00  0.00    +0.000 S 
ATOM     23  O   UNL     1       7.533   6.101  16.111  0.00  0.00    +0.000 OA
ATOM     24  O   UNL     1       7.797   4.597  18.137  0.00  0.00    +0.000 OA
ATOM     25  C   UNL     1       5.467   5.784  17.712  0.00  0.00    +0.000 C 
ENDBRANCH  17  19
ENDBRANCH  14  15
ENDBRANCH   1  14
TORSDOF 7
ENDMDL
MODEL 2
REMARK VINA RESULT:      -7.4      5.094      7.158
REMARK  Name = 
REMARK  8 active torsions:
REMARK  status: ('A' for Active; 'I' for Inactive)
REMARK    1  A    between atoms: C_1  and  O_2
REMARK    2  A    between atoms: O_2  and  C_3
REMARK    3  A    between atoms: C_8  and  C_9
REMARK    4  A    between atoms: C_10  and  C_11
REMARK    5  A    between atoms: C_11  and  O_13
REMARK    6  A    between atoms: O_13  and  C_14
REMARK    7  A    between atoms: C_14  and  C_15
REMARK    8  A    between atoms: N_17  and  C_18
REMARK                            x       y       z     vdW  Elec       q    Type
REMARK                         _______ _______ _______ _____ _____    ______ ____
ROOT
ATOM      1  O   UNL     1       7.003   7.343  16.827  0.00  0.00    +0.000 OA
ENDROOT
BRANCH   1   2
ATOM      2  C   UNL     1       7.773   7.542  17.924  0.00  0.00    +0.000 C 
ATOM      3  O   UNL     1       8.080   6.690  18.744  0.00  0.00    +0.000 OA
BRANCH   2   5
ATOM      4  C   UNL     1       9.017   9.416  18.884  0.00  0.00    +0.000 C 
ATOM      5  C   UNL     1       8.214   8.950  17.916  0.00  0.00    +0.000 C 
BRANCH   4  11
ATOM      6  C   UNL     1       9.470  11.597  20.176  0.00  0.00    +0.000 A 
ATOM      7  C   UNL     1       9.963  12.913  20.140  0.00  0.00    +0.000 A 
ATOM      8  C   UNL     1      10.487  13.448  18.961  0.00  0.00    +0.000 A 
ATOM      9  C   UNL     1      10.507  12.683  17.802  0.00  0.00    +0.000 A 
ATOM     10  C   UNL     1      10.013  11.379  17.825  0.00  0.00    +0.000 A 
ATOM     11  C   UNL     1       9.502  10.808  19.005  0.00  0.00    +0.000 A 
BRANCH   6  13
ATOM     12  C   UNL     1       8.534  11.968  22.335  0.00  0.00    +0.000 C 
ATOM     13  O   UNL     1       8.896  11.056  21.302  0.00  0.00    +0.000 OA
ENDBRANCH   6  13
ENDBRANCH   4  11
ENDBRANCH   2   5
ENDBRANCH   1   2
BRANCH   1  14
ATOM     14  C   UNL     1       5.620   7.131  17.102  0.00  0.00    +0.000 C 
BRANCH  14  15
ATOM     15  C   UNL     1       5.315   5.639  17.194  0.00  0.00    +0.000 C 
ATOM     16  O   UNL     1       5.976   4.795  16.592  0.00  0.00    +0.000 OA
ATOM     17  N   UNL     1       4.249   5.309  18.013  0.00  0.00    +0.000 N 
ATOM     18  H   UNL     1       3.938   6.034  18.664  0.00  0.00    +0.000 HD
BRANCH  17  19
ATOM     19  C   UNL     1       3.888   3.911  18.231  0.00  0.00    +0.000 C 
ATOM     20  C   UNL     1       2.717   3.481  17.343  0.00  0.00    +0.000 C 
ATOM     21  C   UNL     1       1.447   3.938  18.036  0.00  0.00    +0.000 C 
ATOM     22  S   UNL     1       1.736   3.615  19.764  0.00  0.00    +0.000 S 
ATOM     23  O   UNL     1       1.286   2.267  20.049  0.00  0.00    +0.000 OA
ATOM     24  O   UNL     1       1.287   4.759  20.523  0.00  0.00    +0.000 OA
ATOM     25  C   UNL     1       3.522   3.609  19.687  0.00  0.00    +0.000 C 
ENDBRANCH  17  19
ENDBRANCH  14  15
ENDBRANCH   1  14
TORSDOF 7
ENDMDL
MODEL 3
REMARK VINA RESULT:      -7.4      4.941      7.280
REMARK  Name = 
REMARK  8 active torsions:
REMARK  status: ('A' for Active; 'I' for Inactive)
REMARK    1  A    between atoms: C_1  and  O_2
REMARK    2  A    between atoms: O_2  and  C_3
REMARK    3  A    between atoms: C_8  and  C_9
REMARK    4  A    between atoms: C_10  and  C_11
REMARK    5  A    between atoms: C_11  and  O_13
REMARK    6  A    between atoms: O_13  and  C_14
REMARK    7  A    between atoms: C_14  and  C_15
REMARK    8  A    between atoms: N_17  and  C_18
REMARK                            x       y       z     vdW  Elec       q    Type
REMARK                         _______ _______ _______ _____ _____    ______ ____
ROOT
ATOM      1  O   UNL     1       8.061   6.365  18.355  0.00  0.00    +0.000 OA
ENDROOT
BRANCH   1   2
ATOM      2  C   UNL     1       7.690   7.542  17.796  0.00  0.00    +0.000 C 
ATOM      3  O   UNL     1       6.830   7.685  16.941  0.00  0.00    +0.000 OA
BRANCH   2   5
ATOM      4  C   UNL     1       8.431   9.866  17.965  0.00  0.00    +0.000 C 
ATOM      5  C   UNL     1       8.468   8.615  18.445  0.00  0.00    +0.000 C 
BRANCH   4  11
ATOM      6  C   UNL     1       8.987  12.374  18.160  0.00  0.00    +0.000 A 
ATOM      7  C   UNL     1       9.787  13.365  18.752  0.00  0.00    +0.000 A 
ATOM      8  C   UNL     1      10.776  13.026  19.679  0.00  0.00    +0.000 A 
ATOM      9  C   UNL     1      10.988  11.695  20.011  0.00  0.00    +0.000 A 
ATOM     10  C   UNL     1      10.204  10.702  19.423  0.00  0.00    +0.000 A 
ATOM     11  C   UNL     1       9.186  11.018  18.505  0.00  0.00    +0.000 A 
BRANCH   6  13
ATOM     12  C   UNL     1       7.104  13.685  17.521  0.00  0.00    +0.000 C 
ATOM     13  O   UNL     1       8.044  12.662  17.203  0.00  0.00    +0.000 OA
ENDBRANCH   6  13
ENDBRANCH   4  11
ENDBRANCH   2   5
ENDBRANCH   1   2
BRANCH   1  14
ATOM     14  C   UNL     1       7.064   5.754  19.171  0.00  0.00    +0.000 C 
BRANCH  14  15
ATOM     15  C   UNL     1       6.251   4.748  18.361  0.00  0.00    +0.000 C 
ATOM     16  O   UNL     1       6.651   4.289  17.293  0.00  0.00    +0.000 OA
ATOM     17  N   UNL     1       5.040   4.386  18.925  0.00  0.00    +0.000 N 
ATOM     18  H   UNL     1       4.918   4.608  19.916  0.00  0.00    +0.000 HD
BRANCH  17  19
ATOM     19  C   UNL     1       4.192   3.389  18.277  0.00  0.00    +0.000 C 
ATOM     20  C   UNL     1       3.195   4.033  17.310  0.00  0.00    +0.000 C 
ATOM     21  C   UNL     1       2.023   4.520  18.142  0.00  0.00    +0.000 C 
ATOM     22  S   UNL     1       1.762   3.234  19.347  0.00  0.00    +0.000 S 
ATOM     23  O   UNL     1       0.833   2.274  18.784  0.00  0.00    +0.000 OA
ATOM     24  O   UNL     1       1.552   3.851  20.636  0.00  0.00    +0.000 OA
ATOM     25  C   UNL     1       3.406   2.535  19.277  0.00  0.00    +0.000 C 
ENDBRANCH  17  19
ENDBRANCH  14  15
ENDBRANCH   1  14
TORSDOF 7
ENDMDL
MODEL 4
REMARK VINA RESULT:      -7.3      1.080      1.962
REMARK  Name = 
REMARK  8 active torsions:
REMARK  status: ('A' for Active; 'I' for Inactive)
REMARK    1  A    between atoms: C_1  and  O_2
REMARK    2  A    between atoms: O_2  and  C_3
REMARK    3  A    between atoms: C_8  and  C_9
REMARK    4  A    between atoms: C_10  and  C_11
REMARK    5  A    between atoms: C_11  and  O_13
REMARK    6  A    between atoms: O_13  and  C_14
REMARK    7  A    between atoms: C_14  and  C_15
REMARK    8  A    between atoms: N_17  and  C_18
REMARK                            x       y       z     vdW  Elec       q    Type
REMARK                         _______ _______ _______ _____ _____    ______ ____
ROOT
ATOM      1  O   UNL     1       1.529   2.421  19.838  0.00  0.00    +0.000 OA
ENDROOT
BRANCH   1   2
ATOM      2  C   UNL     1       1.906   3.115  20.938  0.00  0.00    +0.000 C 
ATOM      3  O   UNL     1       2.636   2.702  21.826  0.00  0.00    +0.000 OA
BRANCH   2   5
ATOM      4  C   UNL     1       2.092   5.516  20.515  0.00  0.00    +0.000 C 
ATOM      5  C   UNL     1       1.323   4.467  20.842  0.00  0.00    +0.000 C 
BRANCH   4  11
ATOM      6  C   UNL     1       1.890   7.799  19.339  0.00  0.00    +0.000 A 
ATOM      7  C   UNL     1       1.396   9.114  19.385  0.00  0.00    +0.000 A 
ATOM      8  C   UNL     1       0.655   9.561  20.481  0.00  0.00    +0.000 A 
ATOM      9  C   UNL     1       0.414   8.708  21.550  0.00  0.00    +0.000 A 
ATOM     10  C   UNL     1       0.907   7.403  21.518  0.00  0.00    +0.000 A 
ATOM     11  C   UNL     1       1.636   6.920  20.416  0.00  0.00    +0.000 A 
BRANCH   6  13
ATOM     12  C   UNL     1       3.205   8.325  17.424  0.00  0.00    +0.000 C 
ATOM     13  O   UNL     1       2.670   7.341  18.305  0.00  0.00    +0.000 OA
ENDBRANCH   6  13
ENDBRANCH   4  11
ENDBRANCH   2   5
ENDBRANCH   1   2
BRANCH   1  14
ATOM     14  C   UNL     1       2.598   2.069  18.962  0.00  0.00    +0.000 C 
BRANCH  14  15
ATOM     15  C   UNL     1       2.840   3.175  17.939  0.00  0.00    +0.000 C 
ATOM     16  O   UNL     1       1.939   3.624  17.233  0.00  0.00    +0.000 OA
ATOM     17  N   UNL     1       4.142   3.641  17.879  0.00  0.00    +0.000 N 
ATOM     18  H   UNL     1       4.745   3.402  18.669  0.00  0.00    +0.000 HD
BRANCH  17  19
ATOM     19  C   UNL     1       4.494   4.737  16.980  0.00  0.00    +0.000 C 
ATOM     20  C   UNL     1       4.899   4.229  15.594  0.00  0.00    +0.000 C 
ATOM     21  C   UNL     1       6.355   3.810  15.686  0.00  0.00    +0.000 C 
ATOM     22  S   UNL     1       7.119   5.058  16.703  0.00  0.00    +0.000 S 
ATOM     23  O   UNL     1       7.584   6.120  15.834  0.00  0.00    +0.000 OA
ATOM     24  O   UNL     1       7.982   4.403  17.658  0.00  0.00    +0.000 OA
ATOM     25  C   UNL     1       5.629   5.611  17.522  0.00  0.00    +0.000 C 
ENDBRANCH  17  19
ENDBRANCH  14  15
ENDBRANCH   1  14
TORSDOF 7
ENDMDL
MODEL 5
REMARK VINA RESULT:      -7.3      0.969      1.035
REMARK  Name = 
REMARK  8 active torsions:
REMARK  status: ('A' for Active; 'I' for Inactive)
REMARK    1  A    between atoms: C_1  and  O_2
REMARK    2  A    between atoms: O_2  and  C_3
REMARK    3  A    between atoms: C_8  and  C_9
REMARK    4  A    between atoms: C_10  and  C_11
REMARK    5  A    between atoms: C_11  and  O_13
REMARK    6  A    between atoms: O_13  and  C_14
REMARK    7  A    between atoms: C_14  and  C_15
REMARK    8  A    between atoms: N_17  and  C_18
REMARK                            x       y       z     vdW  Elec       q    Type
REMARK                         _______ _______ _______ _____ _____    ______ ____
ROOT
ATOM      1  O   UNL     1       3.277   3.540  20.649  0.00  0.00    +0.000 OA
ENDROOT
BRANCH   1   2
ATOM      2  C   UNL     1       2.077   3.822  21.211  0.00  0.00    +0.000 C 
ATOM      3  O   UNL     1       1.538   3.182  22.101  0.00  0.00    +0.000 OA
BRANCH   2   5
ATOM      4  C   UNL     1       2.408   6.074  20.317  0.00  0.00    +0.000 C 
ATOM      5  C   UNL     1       1.571   5.064  20.596  0.00  0.00    +0.000 C 
BRANCH   4  11
ATOM      6  C   UNL     1       1.447   8.461  20.431  0.00  0.00    +0.000 A 
ATOM      7  C   UNL     1       1.124   9.640  19.738  0.00  0.00    +0.000 A 
ATOM      8  C   UNL     1       1.365   9.753  18.367  0.00  0.00    +0.000 A 
ATOM      9  C   UNL     1       1.913   8.685  17.670  0.00  0.00    +0.000 A 
ATOM     10  C   UNL     1       2.231   7.507  18.346  0.00  0.00    +0.000 A 
ATOM     11  C   UNL     1       2.021   7.376  19.731  0.00  0.00    +0.000 A 
BRANCH   6  13
ATOM     12  C   UNL     1       0.014   8.951  22.269  0.00  0.00    +0.000 C 
ATOM     13  O   UNL     1       1.174   8.293  21.767  0.00  0.00    +0.000 OA
ENDBRANCH   6  13
ENDBRANCH   4  11
ENDBRANCH   2   5
ENDBRANCH   1   2
BRANCH   1  14
ATOM     14  C   UNL     1       3.240   2.531  19.642  0.00  0.00    +0.000 C 
BRANCH  14  15
ATOM     15  C   UNL     1       3.758   3.079  18.315  0.00  0.00    +0.000 C 
ATOM     16  O   UNL     1       3.573   2.497  17.248  0.00  0.00    +0.000 OA
ATOM     17  N   UNL     1       4.435   4.283  18.404  0.00  0.00    +0.000 N 
ATOM     18  H   UNL     1       4.309   4.810  19.272  0.00  0.00    +0.000 HD
BRANCH  17  19
ATOM     19  C   UNL     1       4.933   4.942  17.200  0.00  0.00    +0.000 C 
ATOM     20  C   UNL     1       6.057   4.142  16.536  0.00  0.00    +0.000 C 
ATOM     21  C   UNL     1       7.337   4.482  17.276  0.00  0.00    +0.000 C 
ATOM     22  S   UNL     1       7.224   6.233  17.588  0.00  0.00    +0.000 S 
ATOM     23  O   UNL     1       7.812   6.928  16.459  0.00  0.00    +0.000 OA
ATOM     24  O   UNL     1       7.636   6.482  18.951  0.00  0.00    +0.000 OA
ATOM     25  C   UNL     1       5.445   6.361  17.465  0.00  0.00    +0.000 C 
ENDBRANCH  17  19
ENDBRANCH  14  15
ENDBRANCH   1  14
TORSDOF 7
ENDMDL
MODEL 6
REMARK VINA RESULT:      -7.3      5.270      7.273
REMARK  Name = 
REMARK  8 active torsions:
REMARK  status: ('A' for Active; 'I' for Inactive)
REMARK    1  A    between atoms: C_1  and  O_2
REMARK    2  A    between atoms: O_2  and  C_3
REMARK    3  A    between atoms: C_8  and  C_9
REMARK    4  A    between atoms: C_10  and  C_11
REMARK    5  A    between atoms: C_11  and  O_13
REMARK    6  A    between atoms: O_13  and  C_14
REMARK    7  A    between atoms: C_14  and  C_15
REMARK    8  A    between atoms: N_17  and  C_18
REMARK                            x       y       z     vdW  Elec       q    Type
REMARK                         _______ _______ _______ _____ _____    ______ ____
ROOT
ATOM      1  O   UNL     1       6.716   7.614  17.152  0.00  0.00    +0.000 OA
ENDROOT
BRANCH   1   2
ATOM      2  C   UNL     1       7.767   7.715  18.000  0.00  0.00    +0.000 C 
ATOM      3  O   UNL     1       8.220   6.811  18.685  0.00  0.00    +0.000 OA
BRANCH   2   5
ATOM      4  C   UNL     1       9.040   9.602  18.894  0.00  0.00    +0.000 C 
ATOM      5  C   UNL     1       8.296   9.089  17.904  0.00  0.00    +0.000 C 
BRANCH   4  11
ATOM      6  C   UNL     1       9.428  11.909  19.972  0.00  0.00    +0.000 A 
ATOM      7  C   UNL     1      10.016  13.180  19.866  0.00  0.00    +0.000 A 
ATOM      8  C   UNL     1      10.772  13.526  18.743  0.00  0.00    +0.000 A 
ATOM      9  C   UNL     1      10.933  12.616  17.708  0.00  0.00    +0.000 A 
ATOM     10  C   UNL     1      10.346  11.354  17.799  0.00  0.00    +0.000 A 
ATOM     11  C   UNL     1       9.600  10.970  18.930  0.00  0.00    +0.000 A 
BRANCH   6  13
ATOM     12  C   UNL     1       8.889  12.207  22.273  0.00  0.00    +0.000 C 
ATOM     13  O   UNL     1       8.632  11.552  21.034  0.00  0.00    +0.000 OA
ENDBRANCH   6  13
ENDBRANCH   4  11
ENDBRANCH   2   5
ENDBRANCH   1   2
BRANCH   1  14
ATOM     14  C   UNL     1       6.104   6.327  17.114  0.00  0.00    +0.000 C 
BRANCH  14  15
ATOM     15  C   UNL     1       4.670   6.401  17.630  0.00  0.00    +0.000 C 
ATOM     16  O   UNL     1       3.944   7.369  17.415  0.00  0.00    +0.000 OA
ATOM     17  N   UNL     1       4.248   5.293  18.344  0.00  0.00    +0.000 N 
ATOM     18  H   UNL     1       4.815   4.448  18.245  0.00  0.00    +0.000 HD
BRANCH  17  19
ATOM     19  C   UNL     1       2.878   5.214  18.846  0.00  0.00    +0.000 C 
ATOM     20  C   UNL     1       2.812   4.531  20.214  0.00  0.00    +0.000 C 
ATOM     21  C   UNL     1       2.827   3.034  19.961  0.00  0.00    +0.000 C 
ATOM     22  S   UNL     1       1.788   2.809  18.531  0.00  0.00    +0.000 S 
ATOM     23  O   UNL     1       0.428   2.616  18.992  0.00  0.00    +0.000 OA
ATOM     24  O   UNL     1       2.442   1.885  17.633  0.00  0.00    +0.000 OA
ATOM     25  C   UNL     1       1.936   4.473  17.893  0.00  0.00    +0.000 C 
ENDBRANCH  17  19
ENDBRANCH  14  15
ENDBRANCH   1  14
TORSDOF 7
ENDMDL
MODEL 7
REMARK VINA RESULT:      -7.2      5.199      7.697
REMARK  Name = 
REMARK  8 active torsions:
REMARK  status: ('A' for Active; 'I' for Inactive)
REMARK    1  A    between atoms: C_1  and  O_2
REMARK    2  A    between atoms: O_2  and  C_3
REMARK    3  A    between atoms: C_8  and  C_9
REMARK    4  A    between atoms: C_10  and  C_11
REMARK    5  A    between atoms: C_11  and  O_13
REMARK    6  A    between atoms: O_13  and  C_14
REMARK    7  A    between atoms: C_14  and  C_15
REMARK    8  A    between atoms: N_17  and  C_18
REMARK                            x       y       z     vdW  Elec       q    Type
REMARK                         _______ _______ _______ _____ _____    ______ ____
ROOT
ATOM      1  O   UNL     1       7.547   6.586  18.644  0.00  0.00    +0.000 OA
ENDROOT
BRANCH   1   2
ATOM      2  C   UNL     1       7.988   7.620  17.888  0.00  0.00    +0.000 C 
ATOM      3  O   UNL     1       7.816   7.749  16.686  0.00  0.00    +0.000 OA
BRANCH   2   5
ATOM      4  C   UNL     1       8.778   9.869  18.434  0.00  0.00    +0.000 C 
ATOM      5  C   UNL     1       8.660   8.580  18.785  0.00  0.00    +0.000 C 
BRANCH   4  11
ATOM      6  C   UNL     1      10.360  11.880  18.729  0.00  0.00    +0.000 A 
ATOM      7  C   UNL     1      10.932  12.816  19.607  0.00  0.00    +0.000 A 
ATOM      8  C   UNL     1      10.612  12.810  20.966  0.00  0.00    +0.000 A 
ATOM      9  C   UNL     1       9.734  11.858  21.467  0.00  0.00    +0.000 A 
ATOM     10  C   UNL     1       9.167  10.919  20.606  0.00  0.00    +0.000 A 
ATOM     11  C   UNL     1       9.453  10.918  19.228  0.00  0.00    +0.000 A 
BRANCH   6  13
ATOM     12  C   UNL     1      11.289  12.985  16.835  0.00  0.00    +0.000 C 
ATOM     13  O   UNL     1      10.693  11.820  17.397  0.00  0.00    +0.000 OA
ENDBRANCH   6  13
ENDBRANCH   4  11
ENDBRANCH   2   5
ENDBRANCH   1   2
BRANCH   1  14
ATOM     14  C   UNL     1       6.774   5.619  17.935  0.00  0.00    +0.000 C 
BRANCH  14  15
ATOM     15  C   UNL     1       5.966   4.763  18.906  0.00  0.00    +0.000 C 
ATOM     16  O   UNL     1       6.156   4.791  20.120  0.00  0.00    +0.000 OA
ATOM     17  N   UNL     1       4.997   3.968  18.318  0.00  0.00    +0.000 N 
ATOM     18  H   UNL     1       4.739   4.206  17.357  0.00  0.00    +0.000 HD
BRANCH  17  19
ATOM     19  C   UNL     1       4.118   3.143  19.142  0.00  0.00    +0.000 C 
ATOM     20  C   UNL     1       3.775   1.817  18.457  0.00  0.00    +0.000 C 
ATOM     21  C   UNL     1       2.639   2.100  17.491  0.00  0.00    +0.000 C 
ATOM     22  S   UNL     1       1.576   3.231  18.366  0.00  0.00    +0.000 S 
ATOM     23  O   UNL     1       0.611   2.450  19.114  0.00  0.00    +0.000 OA
ATOM     24  O   UNL     1       1.184   4.284  17.458  0.00  0.00    +0.000 OA
ATOM     25  C   UNL     1       2.807   3.848  19.505  0.00  0.00    +0.000 C 
ENDBRANCH  17  19
ENDBRANCH  14  15
ENDBRANCH   1  14
TORSDOF 7
ENDMDL
MODEL 8
REMARK VINA RESULT:      -7.2      5.233      7.445
REMARK  Name = 
REMARK  8 active torsions:
REMARK  status: ('A' for Active; 'I' for Inactive)
REMARK    1  A    between atoms: C_1  and  O_2
REMARK    2  A    between atoms: O_2  and  C_3
REMARK    3  A    between atoms: C_8  and  C_9
REMARK    4  A    between atoms: C_10  and  C_11
REMARK    5  A    between atoms: C_11  and  O_13
REMARK    6  A    between atoms: O_13  and  C_14
REMARK    7  A    between atoms: C_14  and  C_15
REMARK    8  A    between atoms: N_17  and  C_18
REMARK                            x       y       z     vdW  Elec       q    Type
REMARK                         _______ _______ _______ _____ _____    ______ ____
ROOT
ATOM      1  O   UNL     1       8.001   6.633  17.752  0.00  0.00    +0.000 OA
ENDROOT
BRANCH   1   2
ATOM      2  C   UNL     1       7.654   7.940  17.680  0.00  0.00    +0.000 C 
ATOM      3  O   UNL     1       6.620   8.378  17.199  0.00  0.00    +0.000 OA
BRANCH   2   5
ATOM      4  C   UNL     1       8.760  10.060  18.194  0.00  0.00    +0.000 C 
ATOM      5  C   UNL     1       8.717   8.727  18.334  0.00  0.00    +0.000 C 
BRANCH   4  11
ATOM      6  C   UNL     1       9.901  11.314  20.133  0.00  0.00    +0.000 A 
ATOM      7  C   UNL     1      10.930  12.181  20.538  0.00  0.00    +0.000 A 
ATOM      8  C   UNL     1      11.843  12.689  19.611  0.00  0.00    +0.000 A 
ATOM      9  C   UNL     1      11.728  12.352  18.269  0.00  0.00    +0.000 A 
ATOM     10  C   UNL     1      10.706  11.498  17.855  0.00  0.00    +0.000 A 
ATOM     11  C   UNL     1       9.788  10.953  18.772  0.00  0.00    +0.000 A 
BRANCH   6  13
ATOM     12  C   UNL     1       8.596  11.694  22.089  0.00  0.00    +0.000 C 
ATOM     13  O   UNL     1       8.952  10.839  21.006  0.00  0.00    +0.000 OA
ENDBRANCH   6  13
ENDBRANCH   4  11
ENDBRANCH   2   5
ENDBRANCH   1   2
BRANCH   1  14
ATOM     14  C   UNL     1       7.394   5.915  18.824  0.00  0.00    +0.000 C 
BRANCH  14  15
ATOM     15  C   UNL     1       6.407   4.883  18.286  0.00  0.00    +0.000 C 
ATOM     16  O   UNL     1       6.635   4.221  17.276  0.00  0.00    +0.000 OA
ATOM     17  N   UNL     1       5.247   4.741  19.028  0.00  0.00    +0.000 N 
ATOM     18  H   UNL     1       5.265   5.129  19.975  0.00  0.00    +0.000 HD
BRANCH  17  19
ATOM     19  C   UNL     1       4.245   3.748  18.652  0.00  0.00    +0.000 C 
ATOM     20  C   UNL     1       3.212   4.321  17.679  0.00  0.00    +0.000 C 
ATOM     21  C   UNL     1       2.187   5.069  18.513  0.00  0.00    +0.000 C 
ATOM     22  S   UNL     1       1.943   4.043  19.950  0.00  0.00    +0.000 S 
ATOM     23  O   UNL     1       0.874   3.109  19.657  0.00  0.00    +0.000 OA
ATOM     24  O   UNL     1       1.933   4.891  21.119  0.00  0.00    +0.000 OA
ATOM     25  C   UNL     1       3.499   3.167  19.857  0.00  0.00    +0.000 C 
ENDBRANCH  17  19
ENDBRANCH  14  15
ENDBRANCH   1  14
TORSDOF 7
ENDMDL
MODEL 9
REMARK VINA RESULT:      -7.2      1.617      2.147
REMARK  Name = 
REMARK  8 active torsions:
REMARK  status: ('A' for Active; 'I' for Inactive)
REMARK    1  A    between atoms: C_1  and  O_2
REMARK    2  A    between atoms: O_2  and  C_3
REMARK    3  A    between atoms: C_8  and  C_9
REMARK    4  A    between atoms: C_10  and  C_11
REMARK    5  A    between atoms: C_11  and  O_13
REMARK    6  A    between atoms: O_13  and  C_14
REMARK    7  A    between atoms: C_14  and  C_15
REMARK    8  A    between atoms: N_17  and  C_18
REMARK                            x       y       z     vdW  Elec       q    Type
REMARK                         _______ _______ _______ _____ _____    ______ ____
ROOT
ATOM      1  O   UNL     1       3.057   3.784  19.487  0.00  0.00    +0.000 OA
ENDROOT
BRANCH   1   2
ATOM      2  C   UNL     1       2.418   4.225  20.597  0.00  0.00    +0.000 C 
ATOM      3  O   UNL     1       2.417   3.673  21.686  0.00  0.00    +0.000 OA
BRANCH   2   5
ATOM      4  C   UNL     1       2.511   6.550  19.844  0.00  0.00    +0.000 C 
ATOM      5  C   UNL     1       1.775   5.512  20.267  0.00  0.00    +0.000 C 
BRANCH   4  11
ATOM      6  C   UNL     1       1.305   8.758  20.396  0.00  0.00    +0.000 A 
ATOM      7  C   UNL     1       0.862  10.010  19.937  0.00  0.00    +0.000 A 
ATOM      8  C   UNL     1       1.095  10.412  18.620  0.00  0.00    +0.000 A 
ATOM      9  C   UNL     1       1.755   9.563  17.742  0.00  0.00    +0.000 A 
ATOM     10  C   UNL     1       2.191   8.314  18.184  0.00  0.00    +0.000 A 
ATOM     11  C   UNL     1       1.991   7.894  19.513  0.00  0.00    +0.000 A 
BRANCH   6  13
ATOM     12  C   UNL     1      -0.267   8.535  22.171  0.00  0.00    +0.000 C 
ATOM     13  O   UNL     1       1.046   8.305  21.667  0.00  0.00    +0.000 OA
ENDBRANCH   6  13
ENDBRANCH   4  11
ENDBRANCH   2   5
ENDBRANCH   1   2
BRANCH   1  14
ATOM     14  C   UNL     1       4.399   3.356  19.704  0.00  0.00    +0.000 C 
BRANCH  14  15
ATOM     15  C   UNL     1       5.384   4.375  19.139  0.00  0.00    +0.000 C 
ATOM     16  O   UNL     1       5.952   5.203  19.850  0.00  0.00    +0.000 OA
ATOM     17  N   UNL     1       5.598   4.287  17.775  0.00  0.00    +0.000 N 
ATOM     18  H   UNL     1       5.296   3.420  17.324  0.00  0.00    +0.000 HD
BRANCH  17  19
ATOM     19  C   UNL     1       6.560   5.169  17.119  0.00  0.00    +0.000 C 
ATOM     20  C   UNL     1       5.868   6.321  16.385  0.00  0.00    +0.000 C 
ATOM     21  C   UNL     1       5.416   5.779  15.040  0.00  0.00    +0.000 C 
ATOM     22  S   UNL     1       6.757   4.736  14.502  0.00  0.00    +0.000 S 
ATOM     23  O   UNL     1       7.685   5.554  13.748  0.00  0.00    +0.000 OA
ATOM     24  O   UNL     1       6.200   3.511  13.978  0.00  0.00    +0.000 OA
ATOM     25  C   UNL     1       7.458   4.434  16.119  0.00  0.00    +0.000 C 
ENDBRANCH  17  19
ENDBRANCH  14  15
ENDBRANCH   1  14
TORSDOF 7
ENDMDL
