MODEL 1
REMARK VINA RESULT:      -8.3      0.000      0.000
REMARK  Name = 
REMARK  5 active torsions:
REMARK  status: ('A' for Active; 'I' for Inactive)
REMARK    1  A    between atoms: C_1  and  C_2
REMARK    2  A    between atoms: C_6  and  C_7
REMARK    3  A    between atoms: C_11  and  C_12
REMARK    4  A    between atoms: C_12  and  O_14
REMARK    5  A    between atoms: C_15  and  C_16
REMARK                            x       y       z     vdW  Elec       q    Type
REMARK                         _______ _______ _______ _____ _____    ______ ____
ROOT
ATOM      1  C   UNL     1       1.320   5.846  20.827  0.00  0.00    +0.000 C 
ATOM      2  C   UNL     1       2.186   5.324  19.712  0.00  0.00    +0.000 A 
ATOM      3  C   UNL     1       3.188   6.142  19.183  0.00  0.00    +0.000 A 
ATOM      4  C   UNL     1       4.000   5.695  18.139  0.00  0.00    +0.000 A 
ATOM      5  C   UNL     1       3.842   4.409  17.600  0.00  0.00    +0.000 A 
ATOM      6  C   UNL     1       2.824   3.564  18.110  0.00  0.00    +0.000 A 
ATOM      7  C   UNL     1       2.546   2.186  17.553  0.00  0.00    +0.000 C 
ATOM      8  C   UNL     1       2.005   4.041  19.166  0.00  0.00    +0.000 A 
ATOM      9 CL   UNL     1       0.728   3.036  19.794  0.00  0.00    +0.000 Cl
ATOM     10  C   UNL     1       4.717   4.030  16.491  0.00  0.00    +0.000 C 
ATOM     11  C   UNL     1       5.659   4.886  16.071  0.00  0.00    +0.000 C 
ATOM     12  C   UNL     1       5.931   6.203  16.755  0.00  0.00    +0.000 C 
ATOM     13  O   UNL     1       4.886   6.626  17.668  0.00  0.00    +0.000 OA
ENDROOT
BRANCH  12  14
ATOM     14  C   UNL     1       7.311   6.294  17.456  0.00  0.00    +0.000 C 
ATOM     15  F   UNL     1       7.984   5.120  17.471  0.00  0.00    +0.000 F 
ATOM     16  F   UNL     1       8.099   7.218  16.856  0.00  0.00    +0.000 F 
ATOM     17  F   UNL     1       7.190   6.674  18.753  0.00  0.00    +0.000 F 
ENDBRANCH  12  14
BRANCH  11  18
ATOM     18  C   UNL     1       6.531   4.595  14.912  0.00  0.00    +0.000 C 
ATOM     19  O   UNL     1       7.323   5.413  14.475  0.00  0.00    +0.000 OA
BRANCH  18  20
ATOM     20  O   UNL     1       6.324   3.405  14.320  0.00  0.00    +0.000 OA
ATOM     21  H   UNL     1       6.696   3.300  13.427  0.00  0.00    +0.000 HD
ENDBRANCH  18  20
ENDBRANCH  11  18
TORSDOF 3
ENDMDL
MODEL 2
REMARK VINA RESULT:      -7.8      4.488      5.581
REMARK  Name = 
REMARK  5 active torsions:
REMARK  status: ('A' for Active; 'I' for Inactive)
REMARK    1  A    between atoms: C_1  and  C_2
REMARK    2  A    between atoms: C_6  and  C_7
REMARK    3  A    between atoms: C_11  and  C_12
REMARK    4  A    between atoms: C_12  and  O_14
REMARK    5  A    between atoms: C_15  and  C_16
REMARK                            x       y       z     vdW  Elec       q    Type
REMARK                         _______ _______ _______ _____ _____    ______ ____
ROOT
ATOM      1  C   UNL     1       0.648   9.624  20.477  0.00  0.00    +0.000 C 
ATOM      2  C   UNL     1       1.405   8.412  20.001  0.00  0.00    +0.000 A 
ATOM      3  C   UNL     1       1.407   7.255  20.786  0.00  0.00    +0.000 A 
ATOM      4  C   UNL     1       2.111   6.119  20.383  0.00  0.00    +0.000 A 
ATOM      5  C   UNL     1       2.822   6.100  19.174  0.00  0.00    +0.000 A 
ATOM      6  C   UNL     1       2.847   7.264  18.366  0.00  0.00    +0.000 A 
ATOM      7  C   UNL     1       3.633   7.353  17.078  0.00  0.00    +0.000 C 
ATOM      8  C   UNL     1       2.132   8.411  18.798  0.00  0.00    +0.000 A 
ATOM      9 CL   UNL     1       2.166   9.866  17.840  0.00  0.00    +0.000 Cl
ATOM     10  C   UNL     1       3.553   4.877  18.840  0.00  0.00    +0.000 C 
ATOM     11  C   UNL     1       3.473   3.817  19.656  0.00  0.00    +0.000 C 
ATOM     12  C   UNL     1       2.581   3.786  20.872  0.00  0.00    +0.000 C 
ATOM     13  O   UNL     1       2.090   5.087  21.283  0.00  0.00    +0.000 OA
ENDROOT
BRANCH  12  14
ATOM     14  C   UNL     1       1.402   2.782  20.782  0.00  0.00    +0.000 C 
ATOM     15  F   UNL     1       1.678   1.697  20.022  0.00  0.00    +0.000 F 
ATOM     16  F   UNL     1       1.040   2.349  22.013  0.00  0.00    +0.000 F 
ATOM     17  F   UNL     1       0.299   3.354  20.235  0.00  0.00    +0.000 F 
ENDBRANCH  12  14
BRANCH  11  18
ATOM     18  C   UNL     1       4.240   2.575  19.414  0.00  0.00    +0.000 C 
ATOM     19  O   UNL     1       4.914   2.050  20.285  0.00  0.00    +0.000 OA
BRANCH  18  20
ATOM     20  O   UNL     1       4.216   2.120  18.149  0.00  0.00    +0.000 OA
ATOM     21  H   UNL     1       4.045   1.169  18.038  0.00  0.00    +0.000 HD
ENDBRANCH  18  20
ENDBRANCH  11  18
TORSDOF 3
ENDMDL
MODEL 3
REMARK VINA RESULT:      -7.7      4.140      5.401
REMARK  Name = 
REMARK  5 active torsions:
REMARK  status: ('A' for Active; 'I' for Inactive)
REMARK    1  A    between atoms: C_1  and  C_2
REMARK    2  A    between atoms: C_6  and  C_7
REMARK    3  A    between atoms: C_11  and  C_12
REMARK    4  A    between atoms: C_12  and  O_14
REMARK    5  A    between atoms: C_15  and  C_16
REMARK                            x       y       z     vdW  Elec       q    Type
REMARK                         _______ _______ _______ _____ _____    ______ ____
ROOT
ATOM      1  C   UNL     1      -0.065   9.435  21.876  0.00  0.00    +0.000 C 
ATOM      2  C   UNL     1       0.762   8.573  20.960  0.00  0.00    +0.000 A 
ATOM      3  C   UNL     1       1.063   7.262  21.340  0.00  0.00    +0.000 A 
ATOM      4  C   UNL     1       1.840   6.440  20.522  0.00  0.00    +0.000 A 
ATOM      5  C   UNL     1       2.328   6.900  19.290  0.00  0.00    +0.000 A 
ATOM      6  C   UNL     1       2.049   8.230  18.886  0.00  0.00    +0.000 A 
ATOM      7  C   UNL     1       2.581   8.828  17.604  0.00  0.00    +0.000 C 
ATOM      8  C   UNL     1       1.264   9.052  19.737  0.00  0.00    +0.000 A 
ATOM      9 CL   UNL     1       0.928  10.699  19.281  0.00  0.00    +0.000 Cl
ATOM     10  C   UNL     1       3.155   5.982  18.506  0.00  0.00    +0.000 C 
ATOM     11  C   UNL     1       3.367   4.738  18.957  0.00  0.00    +0.000 C 
ATOM     12  C   UNL     1       2.711   4.195  20.201  0.00  0.00    +0.000 C 
ATOM     13  O   UNL     1       2.120   5.209  21.052  0.00  0.00    +0.000 OA
ENDROOT
BRANCH  12  14
ATOM     14  C   UNL     1       1.687   3.058  19.948  0.00  0.00    +0.000 C 
ATOM     15  F   UNL     1       2.264   1.851  19.748  0.00  0.00    +0.000 F 
ATOM     16  F   UNL     1       0.826   2.941  20.987  0.00  0.00    +0.000 F 
ATOM     17  F   UNL     1       0.932   3.300  18.846  0.00  0.00    +0.000 F 
ENDBRANCH  12  14
BRANCH  11  18
ATOM     18  C   UNL     1       4.248   3.782  18.249  0.00  0.00    +0.000 C 
ATOM     19  O   UNL     1       4.032   3.430  17.101  0.00  0.00    +0.000 OA
BRANCH  18  20
ATOM     20  O   UNL     1       5.244   3.261  18.988  0.00  0.00    +0.000 OA
ATOM     21  H   UNL     1       6.139   3.335  18.614  0.00  0.00    +0.000 HD
ENDBRANCH  18  20
ENDBRANCH  11  18
TORSDOF 3
ENDMDL
MODEL 4
REMARK VINA RESULT:      -7.5      1.955      3.224
REMARK  Name = 
REMARK  5 active torsions:
REMARK  status: ('A' for Active; 'I' for Inactive)
REMARK    1  A    between atoms: C_1  and  C_2
REMARK    2  A    between atoms: C_6  and  C_7
REMARK    3  A    between atoms: C_11  and  C_12
REMARK    4  A    between atoms: C_12  and  O_14
REMARK    5  A    between atoms: C_15  and  C_16
REMARK                            x       y       z     vdW  Elec       q    Type
REMARK                         _______ _______ _______ _____ _____    ______ ____
ROOT
ATOM      1  C   UNL     1       1.096   1.766  18.582  0.00  0.00    +0.000 C 
ATOM      2  C   UNL     1       2.068   2.915  18.568  0.00  0.00    +0.000 A 
ATOM      3  C   UNL     1       3.233   2.817  17.801  0.00  0.00    +0.000 A 
ATOM      4  C   UNL     1       4.163   3.859  17.776  0.00  0.00    +0.000 A 
ATOM      5  C   UNL     1       3.949   5.036  18.508  0.00  0.00    +0.000 A 
ATOM      6  C   UNL     1       2.783   5.156  19.305  0.00  0.00    +0.000 A 
ATOM      7  C   UNL     1       2.498   6.363  20.169  0.00  0.00    +0.000 C 
ATOM      8  C   UNL     1       1.854   4.083  19.322  0.00  0.00    +0.000 A 
ATOM      9 CL   UNL     1       0.425   4.188  20.312  0.00  0.00    +0.000 Cl
ATOM     10  C   UNL     1       4.986   6.067  18.447  0.00  0.00    +0.000 C 
ATOM     11  C   UNL     1       6.058   5.878  17.665  0.00  0.00    +0.000 C 
ATOM     12  C   UNL     1       6.208   4.684  16.757  0.00  0.00    +0.000 C 
ATOM     13  O   UNL     1       5.291   3.598  17.046  0.00  0.00    +0.000 OA
ENDROOT
BRANCH  12  14
ATOM     14  C   UNL     1       6.172   5.014  15.242  0.00  0.00    +0.000 C 
ATOM     15  F   UNL     1       5.759   3.978  14.476  0.00  0.00    +0.000 F 
ATOM     16  F   UNL     1       5.355   6.066  14.995  0.00  0.00    +0.000 F 
ATOM     17  F   UNL     1       7.398   5.361  14.775  0.00  0.00    +0.000 F 
ENDBRANCH  12  14
BRANCH  11  18
ATOM     18  C   UNL     1       7.175   6.848  17.608  0.00  0.00    +0.000 C 
ATOM     19  O   UNL     1       7.222   7.733  16.771  0.00  0.00    +0.000 OA
BRANCH  18  20
ATOM     20  O   UNL     1       8.173   6.627  18.482  0.00  0.00    +0.000 OA
ATOM     21  H   UNL     1       9.006   7.101  18.309  0.00  0.00    +0.000 HD
ENDBRANCH  18  20
ENDBRANCH  11  18
TORSDOF 3
ENDMDL
MODEL 5
REMARK VINA RESULT:      -7.4      1.954      3.259
REMARK  Name = 
REMARK  5 active torsions:
REMARK  status: ('A' for Active; 'I' for Inactive)
REMARK    1  A    between atoms: C_1  and  C_2
REMARK    2  A    between atoms: C_6  and  C_7
REMARK    3  A    between atoms: C_11  and  C_12
REMARK    4  A    between atoms: C_12  and  O_14
REMARK    5  A    between atoms: C_15  and  C_16
REMARK                            x       y       z     vdW  Elec       q    Type
REMARK                         _______ _______ _______ _____ _____    ______ ____
ROOT
ATOM      1  C   UNL     1       1.090   1.763  18.577  0.00  0.00    +0.000 C 
ATOM      2  C   UNL     1       2.074   2.903  18.566  0.00  0.00    +0.000 A 
ATOM      3  C   UNL     1       3.236   2.796  17.796  0.00  0.00    +0.000 A 
ATOM      4  C   UNL     1       4.177   3.827  17.774  0.00  0.00    +0.000 A 
ATOM      5  C   UNL     1       3.978   5.004  18.512  0.00  0.00    +0.000 A 
ATOM      6  C   UNL     1       2.815   5.131  19.312  0.00  0.00    +0.000 A 
ATOM      7  C   UNL     1       2.546   6.337  20.183  0.00  0.00    +0.000 C 
ATOM      8  C   UNL     1       1.875   4.068  19.326  0.00  0.00    +0.000 A 
ATOM      9 CL   UNL     1       0.449   4.184  20.321  0.00  0.00    +0.000 Cl
ATOM     10  C   UNL     1       5.025   6.023  18.453  0.00  0.00    +0.000 C 
ATOM     11  C   UNL     1       6.093   5.827  17.667  0.00  0.00    +0.000 C 
ATOM     12  C   UNL     1       6.228   4.635  16.753  0.00  0.00    +0.000 C 
ATOM     13  O   UNL     1       5.301   3.558  17.040  0.00  0.00    +0.000 OA
ENDROOT
BRANCH  12  14
ATOM     14  C   UNL     1       6.191   4.974  15.240  0.00  0.00    +0.000 C 
ATOM     15  F   UNL     1       7.396   5.338  14.742  0.00  0.00    +0.000 F 
ATOM     16  F   UNL     1       5.743   3.919  14.518  0.00  0.00    +0.000 F 
ATOM     17  F   UNL     1       5.349   6.005  14.978  0.00  0.00    +0.000 F 
ENDBRANCH  12  14
BRANCH  11  18
ATOM     18  C   UNL     1       7.220   6.785  17.613  0.00  0.00    +0.000 C 
ATOM     19  O   UNL     1       8.190   6.685  18.346  0.00  0.00    +0.000 OA
BRANCH  18  20
ATOM     20  O   UNL     1       7.057   7.819  16.769  0.00  0.00    +0.000 OA
ATOM     21  H   UNL     1       7.584   8.615  16.959  0.00  0.00    +0.000 HD
ENDBRANCH  18  20
ENDBRANCH  11  18
TORSDOF 3
ENDMDL
MODEL 6
REMARK VINA RESULT:      -7.3      0.866      1.325
REMARK  Name = 
REMARK  5 active torsions:
REMARK  status: ('A' for Active; 'I' for Inactive)
REMARK    1  A    between atoms: C_1  and  C_2
REMARK    2  A    between atoms: C_6  and  C_7
REMARK    3  A    between atoms: C_11  and  C_12
REMARK    4  A    between atoms: C_12  and  O_14
REMARK    5  A    between atoms: C_15  and  C_16
REMARK                            x       y       z     vdW  Elec       q    Type
REMARK                         _______ _______ _______ _____ _____    ______ ____
ROOT
ATOM      1  C   UNL     1       1.112   6.286  20.869  0.00  0.00    +0.000 C 
ATOM      2  C   UNL     1       2.101   5.707  19.893  0.00  0.00    +0.000 A 
ATOM      3  C   UNL     1       2.930   6.568  19.167  0.00  0.00    +0.000 A 
ATOM      4  C   UNL     1       3.848   6.067  18.242  0.00  0.00    +0.000 A 
ATOM      5  C   UNL     1       3.974   4.686  18.025  0.00  0.00    +0.000 A 
ATOM      6  C   UNL     1       3.136   3.792  18.737  0.00  0.00    +0.000 A 
ATOM      7  C   UNL     1       3.163   2.296  18.526  0.00  0.00    +0.000 C 
ATOM      8  C   UNL     1       2.204   4.323  19.667  0.00  0.00    +0.000 A 
ATOM      9 CL   UNL     1       1.141   3.252  20.538  0.00  0.00    +0.000 Cl
ATOM     10  C   UNL     1       4.942   4.247  17.020  0.00  0.00    +0.000 C 
ATOM     11  C   UNL     1       5.700   5.157  16.393  0.00  0.00    +0.000 C 
ATOM     12  C   UNL     1       5.676   6.624  16.743  0.00  0.00    +0.000 C 
ATOM     13  O   UNL     1       4.539   7.024  17.549  0.00  0.00    +0.000 OA
ENDROOT
BRANCH  12  14
ATOM     14  C   UNL     1       6.986   7.159  17.377  0.00  0.00    +0.000 C 
ATOM     15  F   UNL     1       6.848   8.381  17.941  0.00  0.00    +0.000 F 
ATOM     16  F   UNL     1       7.446   6.310  18.327  0.00  0.00    +0.000 F 
ATOM     17  F   UNL     1       7.975   7.280  16.456  0.00  0.00    +0.000 F 
ENDBRANCH  12  14
BRANCH  11  18
ATOM     18  C   UNL     1       6.650   4.789  15.319  0.00  0.00    +0.000 C 
ATOM     19  O   UNL     1       6.316   4.749  14.146  0.00  0.00    +0.000 OA
BRANCH  18  20
ATOM     20  O   UNL     1       7.872   4.413  15.734  0.00  0.00    +0.000 OA
ATOM     21  H   UNL     1       8.235   3.607  15.327  0.00  0.00    +0.000 HD
ENDBRANCH  18  20
ENDBRANCH  11  18
TORSDOF 3
ENDMDL
MODEL 7
REMARK VINA RESULT:      -7.2      4.061      5.417
REMARK  Name = 
REMARK  5 active torsions:
REMARK  status: ('A' for Active; 'I' for Inactive)
REMARK    1  A    between atoms: C_1  and  C_2
REMARK    2  A    between atoms: C_6  and  C_7
REMARK    3  A    between atoms: C_11  and  C_12
REMARK    4  A    between atoms: C_12  and  O_14
REMARK    5  A    between atoms: C_15  and  C_16
REMARK                            x       y       z     vdW  Elec       q    Type
REMARK                         _______ _______ _______ _____ _____    ______ ____
ROOT
ATOM      1  C   UNL     1      -0.080   9.646  22.044  0.00  0.00    +0.000 C 
ATOM      2  C   UNL     1       0.694   8.823  21.048  0.00  0.00    +0.000 A 
ATOM      3  C   UNL     1       1.044   7.509  21.372  0.00  0.00    +0.000 A 
ATOM      4  C   UNL     1       1.774   6.722  20.479  0.00  0.00    +0.000 A 
ATOM      5  C   UNL     1       2.164   7.222  19.227  0.00  0.00    +0.000 A 
ATOM      6  C   UNL     1       1.834   8.556  18.880  0.00  0.00    +0.000 A 
ATOM      7  C   UNL     1       2.261   9.196  17.578  0.00  0.00    +0.000 C 
ATOM      8  C   UNL     1       1.098   9.341  19.805  0.00  0.00    +0.000 A 
ATOM      9 CL   UNL     1       0.701  10.993  19.418  0.00  0.00    +0.000 Cl
ATOM     10  C   UNL     1       2.948   6.340  18.363  0.00  0.00    +0.000 C 
ATOM     11  C   UNL     1       3.215   5.090  18.764  0.00  0.00    +0.000 C 
ATOM     12  C   UNL     1       2.659   4.503  20.038  0.00  0.00    +0.000 C 
ATOM     13  O   UNL     1       2.113   5.485  20.956  0.00  0.00    +0.000 OA
ENDROOT
BRANCH  12  14
ATOM     14  C   UNL     1       1.640   3.353  19.829  0.00  0.00    +0.000 C 
ATOM     15  F   UNL     1       0.768   3.216  20.854  0.00  0.00    +0.000 F 
ATOM     16  F   UNL     1       0.924   3.540  18.695  0.00  0.00    +0.000 F 
ATOM     17  F   UNL     1       2.259   2.152  19.700  0.00  0.00    +0.000 F 
ENDBRANCH  12  14
BRANCH  11  18
ATOM     18  C   UNL     1       4.059   4.168  17.971  0.00  0.00    +0.000 C 
ATOM     19  O   UNL     1       5.227   3.957  18.252  0.00  0.00    +0.000 OA
BRANCH  18  20
ATOM     20  O   UNL     1       3.477   3.657  16.871  0.00  0.00    +0.000 OA
ATOM     21  H   UNL     1       3.732   4.062  16.024  0.00  0.00    +0.000 HD
ENDBRANCH  18  20
ENDBRANCH  11  18
TORSDOF 3
ENDMDL
MODEL 8
REMARK VINA RESULT:      -7.2      4.410      5.563
REMARK  Name = 
REMARK  5 active torsions:
REMARK  status: ('A' for Active; 'I' for Inactive)
REMARK    1  A    between atoms: C_1  and  C_2
REMARK    2  A    between atoms: C_6  and  C_7
REMARK    3  A    between atoms: C_11  and  C_12
REMARK    4  A    between atoms: C_12  and  O_14
REMARK    5  A    between atoms: C_15  and  C_16
REMARK                            x       y       z     vdW  Elec       q    Type
REMARK                         _______ _______ _______ _____ _____    ______ ____
ROOT
ATOM      1  C   UNL     1       2.684   8.553  17.563  0.00  0.00    +0.000 C 
ATOM      2  C   UNL     1       3.238   7.183  17.854  0.00  0.00    +0.000 A 
ATOM      3  C   UNL     1       2.855   6.525  19.026  0.00  0.00    +0.000 A 
ATOM      4  C   UNL     1       3.360   5.260  19.334  0.00  0.00    +0.000 A 
ATOM      5  C   UNL     1       4.255   4.609  18.472  0.00  0.00    +0.000 A 
ATOM      6  C   UNL     1       4.671   5.261  17.284  0.00  0.00    +0.000 A 
ATOM      7  C   UNL     1       5.674   4.660  16.326  0.00  0.00    +0.000 C 
ATOM      8  C   UNL     1       4.151   6.549  16.993  0.00  0.00    +0.000 A 
ATOM      9 CL   UNL     1       4.664   7.387  15.554  0.00  0.00    +0.000 Cl
ATOM     10  C   UNL     1       4.755   3.298  18.883  0.00  0.00    +0.000 C 
ATOM     11  C   UNL     1       4.308   2.748  20.021  0.00  0.00    +0.000 C 
ATOM     12  C   UNL     1       3.227   3.377  20.864  0.00  0.00    +0.000 C 
ATOM     13  O   UNL     1       2.960   4.767  20.547  0.00  0.00    +0.000 OA
ENDROOT
BRANCH  12  14
ATOM     14  C   UNL     1       1.897   2.582  20.909  0.00  0.00    +0.000 C 
ATOM     15  F   UNL     1       0.799   3.372  20.911  0.00  0.00    +0.000 F 
ATOM     16  F   UNL     1       1.801   1.738  19.853  0.00  0.00    +0.000 F 
ATOM     17  F   UNL     1       1.810   1.813  22.024  0.00  0.00    +0.000 F 
ENDBRANCH  12  14
BRANCH  11  18
ATOM     18  C   UNL     1       4.823   1.457  20.530  0.00  0.00    +0.000 C 
ATOM     19  O   UNL     1       5.169   1.311  21.690  0.00  0.00    +0.000 OA
BRANCH  18  20
ATOM     20  O   UNL     1       4.969   0.491  19.606  0.00  0.00    +0.000 OA
ATOM     21  H   UNL     1       5.843   0.067  19.563  0.00  0.00    +0.000 HD
ENDBRANCH  18  20
ENDBRANCH  11  18
TORSDOF 3
ENDMDL
MODEL 9
REMARK VINA RESULT:      -7.2      3.491      4.616
REMARK  Name = 
REMARK  5 active torsions:
REMARK  status: ('A' for Active; 'I' for Inactive)
REMARK    1  A    between atoms: C_1  and  C_2
REMARK    2  A    between atoms: C_6  and  C_7
REMARK    3  A    between atoms: C_11  and  C_12
REMARK    4  A    between atoms: C_12  and  O_14
REMARK    5  A    between atoms: C_15  and  C_16
REMARK                            x       y       z     vdW  Elec       q    Type
REMARK                         _______ _______ _______ _____ _____    ______ ____
ROOT
ATOM      1  C   UNL     1       0.190   8.342  21.984  0.00  0.00    +0.000 C 
ATOM      2  C   UNL     1       1.058   7.833  20.863  0.00  0.00    +0.000 A 
ATOM      3  C   UNL     1       1.583   6.540  20.937  0.00  0.00    +0.000 A 
ATOM      4  C   UNL     1       2.403   6.041  19.923  0.00  0.00    +0.000 A 
ATOM      5  C   UNL     1       2.712   6.818  18.796  0.00  0.00    +0.000 A 
ATOM      6  C   UNL     1       2.204   8.138  18.703  0.00  0.00    +0.000 A 
ATOM      7  C   UNL     1       2.531   9.065  17.555  0.00  0.00    +0.000 C 
ATOM      8  C   UNL     1       1.378   8.628  19.748  0.00  0.00    +0.000 A 
ATOM      9 CL   UNL     1       0.762  10.256  19.676  0.00  0.00    +0.000 Cl
ATOM     10  C   UNL     1       3.599   6.229  17.793  0.00  0.00    +0.000 C 
ATOM     11  C   UNL     1       4.033   4.971  17.954  0.00  0.00    +0.000 C 
ATOM     12  C   UNL     1       3.571   4.084  19.083  0.00  0.00    +0.000 C 
ATOM     13  O   UNL     1       2.908   4.791  20.161  0.00  0.00    +0.000 OA
ENDROOT
BRANCH  12  14
ATOM     14  C   UNL     1       2.712   2.871  18.642  0.00  0.00    +0.000 C 
ATOM     15  F   UNL     1       1.942   3.123  17.559  0.00  0.00    +0.000 F 
ATOM     16  F   UNL     1       3.494   1.801  18.358  0.00  0.00    +0.000 F 
ATOM     17  F   UNL     1       1.862   2.476  19.623  0.00  0.00    +0.000 F 
ENDBRANCH  12  14
BRANCH  11  18
ATOM     18  C   UNL     1       4.985   4.338  17.014  0.00  0.00    +0.000 C 
ATOM     19  O   UNL     1       4.694   4.114  15.850  0.00  0.00    +0.000 OA
BRANCH  18  20
ATOM     20  O   UNL     1       6.152   3.944  17.554  0.00  0.00    +0.000 OA
ATOM     21  H   UNL     1       6.570   4.569  18.172  0.00  0.00    +0.000 HD
ENDBRANCH  18  20
ENDBRANCH  11  18
TORSDOF 3
ENDMDL
