MODEL 1
REMARK VINA RESULT:     -10.3      0.000      0.000
REMARK  Name = 
REMARK  4 active torsions:
REMARK  status: ('A' for Active; 'I' for Inactive)
REMARK    1  A    between atoms: C_7  and  C_8
REMARK    2  A    between atoms: C_18  and  C_19
REMARK    3  A    between atoms: C_22  and  O_23
REMARK    4  A    between atoms: O_23  and  C_24
REMARK                            x       y       z     vdW  Elec       q    Type
REMARK                         _______ _______ _______ _____ _____    ______ ____
ROOT
ATOM      1  N   UNL     1       4.715   2.653  19.176  0.00  0.00    +0.000 N 
ATOM      2  C   UNL     1       3.774   3.467  19.737  0.00  0.00    +0.000 A 
ATOM      3  N   UNL     1       3.163   2.943  20.776  0.00  0.00    +0.000 NA
ATOM      4  C   UNL     1       2.204   3.686  21.426  0.00  0.00    +0.000 A 
ATOM      5  C   UNL     1       1.877   4.938  21.089  0.00  0.00    +0.000 A 
ATOM      6  N   UNL     1       2.535   5.540  20.026  0.00  0.00    +0.000 N 
ATOM      7  C   UNL     1       2.459   6.816  19.479  0.00  0.00    +0.000 A 
ATOM      8  N   UNL     1       3.209   6.874  18.386  0.00  0.00    +0.000 NA
ATOM      9  C   UNL     1       3.799   5.635  18.237  0.00  0.00    +0.000 A 
ATOM     10  C   UNL     1       3.453   4.811  19.292  0.00  0.00    +0.000 A 
ATOM     11  H   UNL     1       4.914   1.855  19.768  0.00  0.00    +0.000 HD
ATOM     12  H   UNL     1       5.545   3.114  18.821  0.00  0.00    +0.000 HD
ENDROOT
BRANCH   7  13
ATOM     13  C   UNL     1       1.619   7.921  19.988  0.00  0.00    +0.000 A 
ATOM     14  C   UNL     1       1.345   9.067  19.227  0.00  0.00    +0.000 A 
ATOM     15  C   UNL     1       0.652  10.165  19.757  0.00  0.00    +0.000 A 
ATOM     16  C   UNL     1       0.151  10.089  21.066  0.00  0.00    +0.000 A 
ATOM     17  C   UNL     1      -0.577  10.984  21.897  0.00  0.00    +0.000 A 
ATOM     18  C   UNL     1      -0.826  10.335  23.087  0.00  0.00    +0.000 A 
ATOM     19  N   UNL     1      -0.263   9.085  23.009  0.00  0.00    +0.000 N 
ATOM     20  C   UNL     1       0.354   8.917  21.793  0.00  0.00    +0.000 A 
ATOM     21  C   UNL     1       1.078   7.826  21.283  0.00  0.00    +0.000 A 
ATOM     22  H   UNL     1      -0.299   8.389  23.739  0.00  0.00    +0.000 HD
ENDBRANCH   7  13
BRANCH   9  23
ATOM     23  C   UNL     1       4.674   5.322  17.113  0.00  0.00    +0.000 A 
ATOM     24  C   UNL     1       4.874   3.995  16.711  0.00  0.00    +0.000 A 
ATOM     25  C   UNL     1       5.621   3.705  15.560  0.00  0.00    +0.000 A 
ATOM     26  C   UNL     1       6.161   4.738  14.790  0.00  0.00    +0.000 A 
ATOM     27  C   UNL     1       6.067   6.049  15.250  0.00  0.00    +0.000 A 
ATOM     28  C   UNL     1       5.343   6.332  16.411  0.00  0.00    +0.000 A 
BRANCH  26  29
ATOM     29  O   UNL     1       6.823   4.374  13.639  0.00  0.00    +0.000 OA
BRANCH  29  30
ATOM     30  C   UNL     1       6.193   3.570  12.711  0.00  0.00    +0.000 A 
ATOM     31  C   UNL     1       4.887   3.934  12.372  0.00  0.00    +0.000 A 
ATOM     32  C   UNL     1       4.168   3.187  11.437  0.00  0.00    +0.000 A 
ATOM     33  C   UNL     1       4.754   2.075  10.833  0.00  0.00    +0.000 A 
ATOM     34  C   UNL     1       6.067   1.726  11.144  0.00  0.00    +0.000 A 
ATOM     35  C   UNL     1       6.795   2.488  12.062  0.00  0.00    +0.000 A 
ENDBRANCH  29  30
ENDBRANCH  26  29
ENDBRANCH   9  23
TORSDOF 4
ENDMDL
MODEL 2
REMARK VINA RESULT:     -10.2      0.950      1.379
REMARK  Name = 
REMARK  4 active torsions:
REMARK  status: ('A' for Active; 'I' for Inactive)
REMARK    1  A    between atoms: C_7  and  C_8
REMARK    2  A    between atoms: C_18  and  C_19
REMARK    3  A    between atoms: C_22  and  O_23
REMARK    4  A    between atoms: O_23  and  C_24
REMARK                            x       y       z     vdW  Elec       q    Type
REMARK                         _______ _______ _______ _____ _____    ______ ____
ROOT
ATOM      1  N   UNL     1       4.730   2.619  19.170  0.00  0.00    +0.000 N 
ATOM      2  C   UNL     1       3.801   3.455  19.719  0.00  0.00    +0.000 A 
ATOM      3  N   UNL     1       3.181   2.954  20.765  0.00  0.00    +0.000 NA
ATOM      4  C   UNL     1       2.233   3.721  21.403  0.00  0.00    +0.000 A 
ATOM      5  C   UNL     1       1.925   4.973  21.048  0.00  0.00    +0.000 A 
ATOM      6  N   UNL     1       2.593   5.551  19.978  0.00  0.00    +0.000 N 
ATOM      7  C   UNL     1       2.537   6.819  19.414  0.00  0.00    +0.000 A 
ATOM      8  N   UNL     1       3.289   6.851  18.321  0.00  0.00    +0.000 NA
ATOM      9  C   UNL     1       3.861   5.601  18.189  0.00  0.00    +0.000 A 
ATOM     10  C   UNL     1       3.501   4.798  19.255  0.00  0.00    +0.000 A 
ATOM     11  H   UNL     1       4.916   1.827  19.773  0.00  0.00    +0.000 HD
ATOM     12  H   UNL     1       5.567   3.062  18.810  0.00  0.00    +0.000 HD
ENDROOT
BRANCH   7  13
ATOM     13  C   UNL     1       1.714   7.944  19.907  0.00  0.00    +0.000 A 
ATOM     14  C   UNL     1       1.224   7.996  21.220  0.00  0.00    +0.000 A 
ATOM     15  C   UNL     1       0.343   9.001  21.647  0.00  0.00    +0.000 A 
ATOM     16  C   UNL     1      -0.003  10.029  20.757  0.00  0.00    +0.000 A 
ATOM     17  C   UNL     1      -0.841  11.174  20.850  0.00  0.00    +0.000 A 
ATOM     18  C   UNL     1      -0.758  11.847  19.650  0.00  0.00    +0.000 A 
ATOM     19  N   UNL     1       0.089  11.143  18.831  0.00  0.00    +0.000 N 
ATOM     20  C   UNL     1       0.550  10.020  19.477  0.00  0.00    +0.000 A 
ATOM     21  C   UNL     1       1.404   8.999  19.029  0.00  0.00    +0.000 A 
ATOM     22  H   UNL     1       0.340  11.410  17.891  0.00  0.00    +0.000 HD
ENDBRANCH   7  13
BRANCH   9  23
ATOM     23  C   UNL     1       4.731   5.260  17.071  0.00  0.00    +0.000 A 
ATOM     24  C   UNL     1       4.782   3.949  16.579  0.00  0.00    +0.000 A 
ATOM     25  C   UNL     1       5.530   3.648  15.431  0.00  0.00    +0.000 A 
ATOM     26  C   UNL     1       6.221   4.656  14.755  0.00  0.00    +0.000 A 
ATOM     27  C   UNL     1       6.273   5.934  15.307  0.00  0.00    +0.000 A 
ATOM     28  C   UNL     1       5.546   6.224  16.464  0.00  0.00    +0.000 A 
BRANCH  26  29
ATOM     29  O   UNL     1       6.876   4.292  13.599  0.00  0.00    +0.000 OA
BRANCH  29  30
ATOM     30  C   UNL     1       6.232   3.505  12.666  0.00  0.00    +0.000 A 
ATOM     31  C   UNL     1       4.936   3.897  12.323  0.00  0.00    +0.000 A 
ATOM     32  C   UNL     1       4.206   3.170  11.382  0.00  0.00    +0.000 A 
ATOM     33  C   UNL     1       4.771   2.048  10.777  0.00  0.00    +0.000 A 
ATOM     34  C   UNL     1       6.075   1.670  11.091  0.00  0.00    +0.000 A 
ATOM     35  C   UNL     1       6.815   2.413  12.015  0.00  0.00    +0.000 A 
ENDBRANCH  29  30
ENDBRANCH  26  29
ENDBRANCH   9  23
TORSDOF 4
ENDMDL
MODEL 3
REMARK VINA RESULT:     -10.1      4.480      7.236
REMARK  Name = 
REMARK  4 active torsions:
REMARK  status: ('A' for Active; 'I' for Inactive)
REMARK    1  A    between atoms: C_7  and  C_8
REMARK    2  A    between atoms: C_18  and  C_19
REMARK    3  A    between atoms: C_22  and  O_23
REMARK    4  A    between atoms: O_23  and  C_24
REMARK                            x       y       z     vdW  Elec       q    Type
REMARK                         _______ _______ _______ _____ _____    ______ ____
ROOT
ATOM      1  N   UNL     1       2.718  11.922  17.704  0.00  0.00    +0.000 N 
ATOM      2  C   UNL     1       1.830  12.534  18.542  0.00  0.00    +0.000 A 
ATOM      3  N   UNL     1       1.918  13.845  18.551  0.00  0.00    +0.000 NA
ATOM      4  C   UNL     1       1.059  14.562  19.352  0.00  0.00    +0.000 A 
ATOM      5  C   UNL     1       0.102  14.006  20.102  0.00  0.00    +0.000 A 
ATOM      6  N   UNL     1      -0.051  12.627  20.082  0.00  0.00    +0.000 N 
ATOM      7  C   UNL     1      -0.962  11.776  20.696  0.00  0.00    +0.000 A 
ATOM      8  N   UNL     1      -0.619  10.516  20.461  0.00  0.00    +0.000 NA
ATOM      9  C   UNL     1       0.509  10.548  19.664  0.00  0.00    +0.000 A 
ATOM     10  C   UNL     1       0.835  11.854  19.353  0.00  0.00    +0.000 A 
ATOM     11  H   UNL     1       3.169  12.592  17.092  0.00  0.00    +0.000 HD
ATOM     12  H   UNL     1       2.378  11.096  17.226  0.00  0.00    +0.000 HD
ENDROOT
BRANCH   7  13
ATOM     13  C   UNL     1      -2.099  12.199  21.541  0.00  0.00    +0.000 A 
ATOM     14  C   UNL     1      -2.084  12.071  22.938  0.00  0.00    +0.000 A 
ATOM     15  C   UNL     1      -3.209  12.358  23.724  0.00  0.00    +0.000 A 
ATOM     16  C   UNL     1      -4.365  12.860  23.106  0.00  0.00    +0.000 A 
ATOM     17  C   UNL     1      -5.647  13.250  23.579  0.00  0.00    +0.000 A 
ATOM     18  C   UNL     1      -6.368  13.707  22.497  0.00  0.00    +0.000 A 
ATOM     19  N   UNL     1      -5.571  13.595  21.384  0.00  0.00    +0.000 N 
ATOM     20  C   UNL     1      -4.350  13.064  21.726  0.00  0.00    +0.000 A 
ATOM     21  C   UNL     1      -3.240  12.746  20.926  0.00  0.00    +0.000 A 
ATOM     22  H   UNL     1      -5.841  13.864  20.450  0.00  0.00    +0.000 HD
ENDBRANCH   7  13
BRANCH   9  23
ATOM     23  C   UNL     1       1.188   9.333  19.232  0.00  0.00    +0.000 A 
ATOM     24  C   UNL     1       1.482   9.122  17.879  0.00  0.00    +0.000 A 
ATOM     25  C   UNL     1       2.238   8.010  17.479  0.00  0.00    +0.000 A 
ATOM     26  C   UNL     1       2.720   7.107  18.430  0.00  0.00    +0.000 A 
ATOM     27  C   UNL     1       2.330   7.245  19.759  0.00  0.00    +0.000 A 
ATOM     28  C   UNL     1       1.556   8.341  20.149  0.00  0.00    +0.000 A 
BRANCH  26  29
ATOM     29  O   UNL     1       3.511   6.078  17.964  0.00  0.00    +0.000 OA
BRANCH  29  30
ATOM     30  C   UNL     1       4.883   6.164  18.078  0.00  0.00    +0.000 A 
ATOM     31  C   UNL     1       5.459   5.430  19.118  0.00  0.00    +0.000 A 
ATOM     32  C   UNL     1       6.842   5.446  19.310  0.00  0.00    +0.000 A 
ATOM     33  C   UNL     1       7.655   6.195  18.460  0.00  0.00    +0.000 A 
ATOM     34  C   UNL     1       7.089   6.905  17.402  0.00  0.00    +0.000 A 
ATOM     35  C   UNL     1       5.707   6.868  17.195  0.00  0.00    +0.000 A 
ENDBRANCH  29  30
ENDBRANCH  26  29
ENDBRANCH   9  23
TORSDOF 4
ENDMDL
MODEL 4
REMARK VINA RESULT:     -10.1      4.713      7.348
REMARK  Name = 
REMARK  4 active torsions:
REMARK  status: ('A' for Active; 'I' for Inactive)
REMARK    1  A    between atoms: C_7  and  C_8
REMARK    2  A    between atoms: C_18  and  C_19
REMARK    3  A    between atoms: C_22  and  O_23
REMARK    4  A    between atoms: O_23  and  C_24
REMARK                            x       y       z     vdW  Elec       q    Type
REMARK                         _______ _______ _______ _____ _____    ______ ____
ROOT
ATOM      1  N   UNL     1       2.601  12.018  17.740  0.00  0.00    +0.000 N 
ATOM      2  C   UNL     1       1.701  12.633  18.563  0.00  0.00    +0.000 A 
ATOM      3  N   UNL     1       1.772  13.945  18.549  0.00  0.00    +0.000 NA
ATOM      4  C   UNL     1       0.900  14.665  19.333  0.00  0.00    +0.000 A 
ATOM      5  C   UNL     1      -0.054  14.110  20.088  0.00  0.00    +0.000 A 
ATOM      6  N   UNL     1      -0.189  12.729  20.091  0.00  0.00    +0.000 N 
ATOM      7  C   UNL     1      -1.093  11.878  20.715  0.00  0.00    +0.000 A 
ATOM      8  N   UNL     1      -0.733  10.618  20.504  0.00  0.00    +0.000 NA
ATOM      9  C   UNL     1       0.399  10.650  19.713  0.00  0.00    +0.000 A 
ATOM     10  C   UNL     1       0.711  11.955  19.380  0.00  0.00    +0.000 A 
ATOM     11  H   UNL     1       3.047  12.682  17.119  0.00  0.00    +0.000 HD
ATOM     12  H   UNL     1       2.274  11.179  17.275  0.00  0.00    +0.000 HD
ENDROOT
BRANCH   7  13
ATOM     13  C   UNL     1      -2.239  12.301  21.547  0.00  0.00    +0.000 A 
ATOM     14  C   UNL     1      -2.229  12.200  22.946  0.00  0.00    +0.000 A 
ATOM     15  C   UNL     1      -3.362  12.487  23.722  0.00  0.00    +0.000 A 
ATOM     16  C   UNL     1      -4.522  12.961  23.089  0.00  0.00    +0.000 A 
ATOM     17  C   UNL     1      -5.811  13.342  23.549  0.00  0.00    +0.000 A 
ATOM     18  C   UNL     1      -6.533  13.768  22.454  0.00  0.00    +0.000 A 
ATOM     19  N   UNL     1      -5.729  13.646  21.348  0.00  0.00    +0.000 N 
ATOM     20  C   UNL     1      -4.503  13.139  21.706  0.00  0.00    +0.000 A 
ATOM     21  C   UNL     1      -3.385  12.820  20.916  0.00  0.00    +0.000 A 
ATOM     22  H   UNL     1      -5.999  13.894  20.408  0.00  0.00    +0.000 HD
ENDBRANCH   7  13
BRANCH   9  23
ATOM     23  C   UNL     1       1.095   9.436  19.306  0.00  0.00    +0.000 A 
ATOM     24  C   UNL     1       1.410   9.211  17.959  0.00  0.00    +0.000 A 
ATOM     25  C   UNL     1       2.182   8.101  17.585  0.00  0.00    +0.000 A 
ATOM     26  C   UNL     1       2.660   7.215  18.553  0.00  0.00    +0.000 A 
ATOM     27  C   UNL     1       2.251   7.366  19.876  0.00  0.00    +0.000 A 
ATOM     28  C   UNL     1       1.461   8.460  20.241  0.00  0.00    +0.000 A 
BRANCH  26  29
ATOM     29  O   UNL     1       3.466   6.189  18.112  0.00  0.00    +0.000 OA
BRANCH  29  30
ATOM     30  C   UNL     1       3.091   4.880  18.334  0.00  0.00    +0.000 A 
ATOM     31  C   UNL     1       3.961   4.117  19.118  0.00  0.00    +0.000 A 
ATOM     32  C   UNL     1       3.665   2.784  19.406  0.00  0.00    +0.000 A 
ATOM     33  C   UNL     1       2.494   2.208  18.914  0.00  0.00    +0.000 A 
ATOM     34  C   UNL     1       1.607   2.972  18.158  0.00  0.00    +0.000 A 
ATOM     35  C   UNL     1       1.892   4.314  17.891  0.00  0.00    +0.000 A 
ENDBRANCH  29  30
ENDBRANCH  26  29
ENDBRANCH   9  23
TORSDOF 4
ENDMDL
MODEL 5
REMARK VINA RESULT:     -10.1      5.086      7.912
REMARK  Name = 
REMARK  4 active torsions:
REMARK  status: ('A' for Active; 'I' for Inactive)
REMARK    1  A    between atoms: C_7  and  C_8
REMARK    2  A    between atoms: C_18  and  C_19
REMARK    3  A    between atoms: C_22  and  O_23
REMARK    4  A    between atoms: O_23  and  C_24
REMARK                            x       y       z     vdW  Elec       q    Type
REMARK                         _______ _______ _______ _____ _____    ______ ____
ROOT
ATOM      1  N   UNL     1       2.829  12.304  18.051  0.00  0.00    +0.000 N 
ATOM      2  C   UNL     1       1.661  12.882  18.457  0.00  0.00    +0.000 A 
ATOM      3  N   UNL     1       1.662  14.195  18.394  0.00  0.00    +0.000 NA
ATOM      4  C   UNL     1       0.528  14.878  18.769  0.00  0.00    +0.000 A 
ATOM      5  C   UNL     1      -0.605  14.283  19.160  0.00  0.00    +0.000 A 
ATOM      6  N   UNL     1      -0.658  12.897  19.193  0.00  0.00    +0.000 N 
ATOM      7  C   UNL     1      -1.681  12.006  19.497  0.00  0.00    +0.000 A 
ATOM      8  N   UNL     1      -1.202  10.769  19.502  0.00  0.00    +0.000 NA
ATOM      9  C   UNL     1       0.136  10.853  19.172  0.00  0.00    +0.000 A 
ATOM     10  C   UNL     1       0.478  12.165  18.900  0.00  0.00    +0.000 A 
ATOM     11  H   UNL     1       3.434  12.976  17.595  0.00  0.00    +0.000 HD
ATOM     12  H   UNL     1       2.739  11.429  17.549  0.00  0.00    +0.000 HD
ENDROOT
BRANCH   7  13
ATOM     13  C   UNL     1      -3.072  12.376  19.833  0.00  0.00    +0.000 A 
ATOM     14  C   UNL     1      -3.412  12.986  21.050  0.00  0.00    +0.000 A 
ATOM     15  C   UNL     1      -4.745  13.223  21.416  0.00  0.00    +0.000 A 
ATOM     16  C   UNL     1      -5.770  12.909  20.509  0.00  0.00    +0.000 A 
ATOM     17  C   UNL     1      -7.187  13.015  20.546  0.00  0.00    +0.000 A 
ATOM     18  C   UNL     1      -7.666  12.581  19.329  0.00  0.00    +0.000 A 
ATOM     19  N   UNL     1      -6.591  12.205  18.564  0.00  0.00    +0.000 N 
ATOM     20  C   UNL     1      -5.423  12.379  19.267  0.00  0.00    +0.000 A 
ATOM     21  C   UNL     1      -4.093  12.105  18.905  0.00  0.00    +0.000 A 
ATOM     22  H   UNL     1      -6.648  11.852  17.620  0.00  0.00    +0.000 HD
ENDBRANCH   7  13
BRANCH   9  23
ATOM     23  C   UNL     1       0.997   9.678  19.114  0.00  0.00    +0.000 A 
ATOM     24  C   UNL     1       1.265   8.931  20.268  0.00  0.00    +0.000 A 
ATOM     25  C   UNL     1       1.996   7.736  20.188  0.00  0.00    +0.000 A 
ATOM     26  C   UNL     1       2.452   7.269  18.953  0.00  0.00    +0.000 A 
ATOM     27  C   UNL     1       2.293   8.066  17.823  0.00  0.00    +0.000 A 
ATOM     28  C   UNL     1       1.585   9.268  17.911  0.00  0.00    +0.000 A 
BRANCH  26  29
ATOM     29  O   UNL     1       3.103   6.055  18.951  0.00  0.00    +0.000 OA
BRANCH  29  30
ATOM     30  C   UNL     1       2.417   4.909  19.297  0.00  0.00    +0.000 A 
ATOM     31  C   UNL     1       1.781   4.236  18.251  0.00  0.00    +0.000 A 
ATOM     32  C   UNL     1       1.067   3.062  18.499  0.00  0.00    +0.000 A 
ATOM     33  C   UNL     1       0.990   2.553  19.795  0.00  0.00    +0.000 A 
ATOM     34  C   UNL     1       1.650   3.203  20.838  0.00  0.00    +0.000 A 
ATOM     35  C   UNL     1       2.385   4.365  20.584  0.00  0.00    +0.000 A 
ENDBRANCH  29  30
ENDBRANCH  26  29
ENDBRANCH   9  23
TORSDOF 4
ENDMDL
MODEL 6
REMARK VINA RESULT:     -10.0      5.010      7.942
REMARK  Name = 
REMARK  4 active torsions:
REMARK  status: ('A' for Active; 'I' for Inactive)
REMARK    1  A    between atoms: C_7  and  C_8
REMARK    2  A    between atoms: C_18  and  C_19
REMARK    3  A    between atoms: C_22  and  O_23
REMARK    4  A    between atoms: O_23  and  C_24
REMARK                            x       y       z     vdW  Elec       q    Type
REMARK                         _______ _______ _______ _____ _____    ______ ____
ROOT
ATOM      1  N   UNL     1       2.582  12.459  18.510  0.00  0.00    +0.000 N 
ATOM      2  C   UNL     1       1.329  12.950  18.741  0.00  0.00    +0.000 A 
ATOM      3  N   UNL     1       1.260  14.263  18.740  0.00  0.00    +0.000 NA
ATOM      4  C   UNL     1       0.039  14.862  18.951  0.00  0.00    +0.000 A 
ATOM      5  C   UNL     1      -1.103  14.187  19.118  0.00  0.00    +0.000 A 
ATOM      6  N   UNL     1      -1.075  12.800  19.078  0.00  0.00    +0.000 N 
ATOM      7  C   UNL     1      -2.077  11.841  19.165  0.00  0.00    +0.000 A 
ATOM      8  N   UNL     1      -1.530  10.632  19.193  0.00  0.00    +0.000 NA
ATOM      9  C   UNL     1      -0.163  10.806  19.096  0.00  0.00    +0.000 A 
ATOM     10  C   UNL     1       0.137  12.147  18.946  0.00  0.00    +0.000 A 
ATOM     11  H   UNL     1       3.211  13.187  18.194  0.00  0.00    +0.000 HD
ATOM     12  H   UNL     1       2.630  11.611  17.960  0.00  0.00    +0.000 HD
ENDROOT
BRANCH   7  13
ATOM     13  C   UNL     1      -3.524  12.116  19.280  0.00  0.00    +0.000 A 
ATOM     14  C   UNL     1      -4.420  11.880  18.226  0.00  0.00    +0.000 A 
ATOM     15  C   UNL     1      -5.769  12.257  18.297  0.00  0.00    +0.000 A 
ATOM     16  C   UNL     1      -6.259  12.821  19.485  0.00  0.00    +0.000 A 
ATOM     17  C   UNL     1      -7.532  13.303  19.897  0.00  0.00    +0.000 A 
ATOM     18  C   UNL     1      -7.417  13.711  21.208  0.00  0.00    +0.000 A 
ATOM     19  N   UNL     1      -6.117  13.505  21.599  0.00  0.00    +0.000 N 
ATOM     20  C   UNL     1      -5.386  12.980  20.560  0.00  0.00    +0.000 A 
ATOM     21  C   UNL     1      -4.025  12.639  20.487  0.00  0.00    +0.000 A 
ATOM     22  H   UNL     1      -5.750  13.709  22.517  0.00  0.00    +0.000 HD
ENDBRANCH   7  13
BRANCH   9  23
ATOM     23  C   UNL     1       0.767   9.684  19.128  0.00  0.00    +0.000 A 
ATOM     24  C   UNL     1       1.031   9.009  20.327  0.00  0.00    +0.000 A 
ATOM     25  C   UNL     1       1.833   7.858  20.334  0.00  0.00    +0.000 A 
ATOM     26  C   UNL     1       2.366   7.362  19.142  0.00  0.00    +0.000 A 
ATOM     27  C   UNL     1       2.206   8.095  17.968  0.00  0.00    +0.000 A 
ATOM     28  C   UNL     1       1.426   9.254  17.970  0.00  0.00    +0.000 A 
BRANCH  26  29
ATOM     29  O   UNL     1       3.087   6.191  19.224  0.00  0.00    +0.000 OA
BRANCH  29  30
ATOM     30  C   UNL     1       2.426   4.980  19.231  0.00  0.00    +0.000 A 
ATOM     31  C   UNL     1       1.964   4.541  20.474  0.00  0.00    +0.000 A 
ATOM     32  C   UNL     1       1.276   3.331  20.583  0.00  0.00    +0.000 A 
ATOM     33  C   UNL     1       1.045   2.555  19.447  0.00  0.00    +0.000 A 
ATOM     34  C   UNL     1       1.477   3.003  18.200  0.00  0.00    +0.000 A 
ATOM     35  C   UNL     1       2.143   4.227  18.088  0.00  0.00    +0.000 A 
ENDBRANCH  29  30
ENDBRANCH  26  29
ENDBRANCH   9  23
TORSDOF 4
ENDMDL
MODEL 7
REMARK VINA RESULT:      -9.9      5.109      7.839
REMARK  Name = 
REMARK  4 active torsions:
REMARK  status: ('A' for Active; 'I' for Inactive)
REMARK    1  A    between atoms: C_7  and  C_8
REMARK    2  A    between atoms: C_18  and  C_19
REMARK    3  A    between atoms: C_22  and  O_23
REMARK    4  A    between atoms: O_23  and  C_24
REMARK                            x       y       z     vdW  Elec       q    Type
REMARK                         _______ _______ _______ _____ _____    ______ ____
ROOT
ATOM      1  N   UNL     1       2.634  12.358  17.990  0.00  0.00    +0.000 N 
ATOM      2  C   UNL     1       1.517  12.942  18.514  0.00  0.00    +0.000 A 
ATOM      3  N   UNL     1       1.515  14.254  18.444  0.00  0.00    +0.000 NA
ATOM      4  C   UNL     1       0.429  14.943  18.933  0.00  0.00    +0.000 A 
ATOM      5  C   UNL     1      -0.657  14.354  19.445  0.00  0.00    +0.000 A 
ATOM      6  N   UNL     1      -0.710  12.968  19.492  0.00  0.00    +0.000 N 
ATOM      7  C   UNL     1      -1.698  12.083  19.907  0.00  0.00    +0.000 A 
ATOM      8  N   UNL     1      -1.224  10.843  19.869  0.00  0.00    +0.000 NA
ATOM      9  C   UNL     1       0.072  10.922  19.398  0.00  0.00    +0.000 A 
ATOM     10  C   UNL     1       0.386  12.231  19.084  0.00  0.00    +0.000 A 
ATOM     11  H   UNL     1       3.189  13.025  17.468  0.00  0.00    +0.000 HD
ATOM     12  H   UNL     1       2.489  11.481  17.504  0.00  0.00    +0.000 HD
ENDROOT
BRANCH   7  13
ATOM     13  C   UNL     1      -3.044  12.459  20.387  0.00  0.00    +0.000 A 
ATOM     14  C   UNL     1      -4.169  12.451  19.549  0.00  0.00    +0.000 A 
ATOM     15  C   UNL     1      -5.418  12.925  19.975  0.00  0.00    +0.000 A 
ATOM     16  C   UNL     1      -5.570  13.354  21.303  0.00  0.00    +0.000 A 
ATOM     17  C   UNL     1      -6.659  13.877  22.053  0.00  0.00    +0.000 A 
ATOM     18  C   UNL     1      -6.214  14.084  23.341  0.00  0.00    +0.000 A 
ATOM     19  N   UNL     1      -4.892  13.717  23.392  0.00  0.00    +0.000 N 
ATOM     20  C   UNL     1      -4.470  13.285  22.157  0.00  0.00    +0.000 A 
ATOM     21  C   UNL     1      -3.206  12.845  21.730  0.00  0.00    +0.000 A 
ATOM     22  H   UNL     1      -4.313  13.757  24.218  0.00  0.00    +0.000 HD
ENDBRANCH   7  13
BRANCH   9  23
ATOM     23  C   UNL     1       0.918   9.743  19.255  0.00  0.00    +0.000 A 
ATOM     24  C   UNL     1       1.256   8.967  20.371  0.00  0.00    +0.000 A 
ATOM     25  C   UNL     1       1.971   7.770  20.215  0.00  0.00    +0.000 A 
ATOM     26  C   UNL     1       2.341   7.330  18.942  0.00  0.00    +0.000 A 
ATOM     27  C   UNL     1       2.114   8.156  17.844  0.00  0.00    +0.000 A 
ATOM     28  C   UNL     1       1.422   9.359  18.007  0.00  0.00    +0.000 A 
BRANCH  26  29
ATOM     29  O   UNL     1       2.983   6.113  18.868  0.00  0.00    +0.000 OA
BRANCH  29  30
ATOM     30  C   UNL     1       2.323   4.967  19.262  0.00  0.00    +0.000 A 
ATOM     31  C   UNL     1       1.710   4.232  18.244  0.00  0.00    +0.000 A 
ATOM     32  C   UNL     1       1.025   3.052  18.541  0.00  0.00    +0.000 A 
ATOM     33  C   UNL     1       0.952   2.601  19.858  0.00  0.00    +0.000 A 
ATOM     34  C   UNL     1       1.588   3.313  20.874  0.00  0.00    +0.000 A 
ATOM     35  C   UNL     1       2.295   4.481  20.572  0.00  0.00    +0.000 A 
ENDBRANCH  29  30
ENDBRANCH  26  29
ENDBRANCH   9  23
TORSDOF 4
ENDMDL
MODEL 8
REMARK VINA RESULT:      -9.9      5.060      7.747
REMARK  Name = 
REMARK  4 active torsions:
REMARK  status: ('A' for Active; 'I' for Inactive)
REMARK    1  A    between atoms: C_7  and  C_8
REMARK    2  A    between atoms: C_18  and  C_19
REMARK    3  A    between atoms: C_22  and  O_23
REMARK    4  A    between atoms: O_23  and  C_24
REMARK                            x       y       z     vdW  Elec       q    Type
REMARK                         _______ _______ _______ _____ _____    ______ ____
ROOT
ATOM      1  N   UNL     1       2.673  12.166  17.754  0.00  0.00    +0.000 N 
ATOM      2  C   UNL     1       1.667  12.784  18.439  0.00  0.00    +0.000 A 
ATOM      3  N   UNL     1       1.687  14.095  18.354  0.00  0.00    +0.000 NA
ATOM      4  C   UNL     1       0.707  14.817  18.999  0.00  0.00    +0.000 A 
ATOM      5  C   UNL     1      -0.299  14.261  19.681  0.00  0.00    +0.000 A 
ATOM      6  N   UNL     1      -0.379  12.878  19.753  0.00  0.00    +0.000 N 
ATOM      7  C   UNL     1      -1.310  12.022  20.328  0.00  0.00    +0.000 A 
ATOM      8  N   UNL     1      -0.880  10.770  20.232  0.00  0.00    +0.000 NA
ATOM      9  C   UNL     1       0.328  10.810  19.563  0.00  0.00    +0.000 A 
ATOM     10  C   UNL     1       0.622  12.108  19.188  0.00  0.00    +0.000 A 
ATOM     11  H   UNL     1       3.156  12.815  17.144  0.00  0.00    +0.000 HD
ATOM     12  H   UNL     1       2.432  11.290  17.308  0.00  0.00    +0.000 HD
ENDROOT
BRANCH   7  13
ATOM     13  C   UNL     1      -2.555  12.438  21.008  0.00  0.00    +0.000 A 
ATOM     14  C   UNL     1      -2.660  12.505  22.406  0.00  0.00    +0.000 A 
ATOM     15  C   UNL     1      -3.876  12.780  23.048  0.00  0.00    +0.000 A 
ATOM     16  C   UNL     1      -5.009  13.070  22.272  0.00  0.00    +0.000 A 
ATOM     17  C   UNL     1      -6.361  13.387  22.579  0.00  0.00    +0.000 A 
ATOM     18  C   UNL     1      -7.014  13.613  21.387  0.00  0.00    +0.000 A 
ATOM     19  N   UNL     1      -6.109  13.432  20.371  0.00  0.00    +0.000 N 
ATOM     20  C   UNL     1      -4.883  13.083  20.883  0.00  0.00    +0.000 A 
ATOM     21  C   UNL     1      -3.678  12.773  20.230  0.00  0.00    +0.000 A 
ATOM     22  H   UNL     1      -6.314  13.541  19.388  0.00  0.00    +0.000 HD
ENDBRANCH   7  13
BRANCH   9  23
ATOM     23  C   UNL     1       1.112   9.609  19.305  0.00  0.00    +0.000 A 
ATOM     24  C   UNL     1       1.466   8.748  20.351  0.00  0.00    +0.000 A 
ATOM     25  C   UNL     1       2.118   7.534  20.085  0.00  0.00    +0.000 A 
ATOM     26  C   UNL     1       2.408   7.163  18.770  0.00  0.00    +0.000 A 
ATOM     27  C   UNL     1       2.167   8.068  17.738  0.00  0.00    +0.000 A 
ATOM     28  C   UNL     1       1.540   9.286  18.011  0.00  0.00    +0.000 A 
BRANCH  26  29
ATOM     29  O   UNL     1       2.989   5.927  18.587  0.00  0.00    +0.000 OA
BRANCH  29  30
ATOM     30  C   UNL     1       2.417   4.811  19.162  0.00  0.00    +0.000 A 
ATOM     31  C   UNL     1       1.561   4.070  18.342  0.00  0.00    +0.000 A 
ATOM     32  C   UNL     1       0.940   2.919  18.830  0.00  0.00    +0.000 A 
ATOM     33  C   UNL     1       1.175   2.501  20.140  0.00  0.00    +0.000 A 
ATOM     34  C   UNL     1       2.053   3.218  20.952  0.00  0.00    +0.000 A 
ATOM     35  C   UNL     1       2.694   4.356  20.455  0.00  0.00    +0.000 A 
ENDBRANCH  29  30
ENDBRANCH  26  29
ENDBRANCH   9  23
TORSDOF 4
ENDMDL
MODEL 9
REMARK VINA RESULT:      -9.8      4.403      7.333
REMARK  Name = 
REMARK  4 active torsions:
REMARK  status: ('A' for Active; 'I' for Inactive)
REMARK    1  A    between atoms: C_7  and  C_8
REMARK    2  A    between atoms: C_18  and  C_19
REMARK    3  A    between atoms: C_22  and  O_23
REMARK    4  A    between atoms: O_23  and  C_24
REMARK                            x       y       z     vdW  Elec       q    Type
REMARK                         _______ _______ _______ _____ _____    ______ ____
ROOT
ATOM      1  N   UNL     1       2.503  12.301  17.750  0.00  0.00    +0.000 N 
ATOM      2  C   UNL     1       1.575  12.852  18.586  0.00  0.00    +0.000 A 
ATOM      3  N   UNL     1       1.568  14.167  18.587  0.00  0.00    +0.000 NA
ATOM      4  C   UNL     1       0.661  14.824  19.387  0.00  0.00    +0.000 A 
ATOM      5  C   UNL     1      -0.253  14.205  20.141  0.00  0.00    +0.000 A 
ATOM      6  N   UNL     1      -0.307  12.819  20.128  0.00  0.00    +0.000 N 
ATOM      7  C   UNL     1      -1.155  11.909  20.747  0.00  0.00    +0.000 A 
ATOM      8  N   UNL     1      -0.723  10.675  20.518  0.00  0.00    +0.000 NA
ATOM      9  C   UNL     1       0.399  10.783  19.720  0.00  0.00    +0.000 A 
ATOM     10  C   UNL     1       0.632  12.108  19.401  0.00  0.00    +0.000 A 
ATOM     11  H   UNL     1       2.904  12.998  17.134  0.00  0.00    +0.000 HD
ATOM     12  H   UNL     1       2.223  11.451  17.277  0.00  0.00    +0.000 HD
ENDROOT
BRANCH   7  13
ATOM     13  C   UNL     1      -2.318  12.254  21.591  0.00  0.00    +0.000 A 
ATOM     14  C   UNL     1      -2.265  12.215  22.993  0.00  0.00    +0.000 A 
ATOM     15  C   UNL     1      -3.403  12.424  23.786  0.00  0.00    +0.000 A 
ATOM     16  C   UNL     1      -4.618  12.754  23.166  0.00  0.00    +0.000 A 
ATOM     17  C   UNL     1      -5.928  13.027  23.645  0.00  0.00    +0.000 A 
ATOM     18  C   UNL     1      -6.713  13.332  22.554  0.00  0.00    +0.000 A 
ATOM     19  N   UNL     1      -5.927  13.241  21.432  0.00  0.00    +0.000 N 
ATOM     20  C   UNL     1      -4.649  12.872  21.777  0.00  0.00    +0.000 A 
ATOM     21  C   UNL     1      -3.523  12.630  20.971  0.00  0.00    +0.000 A 
ATOM     22  H   UNL     1      -6.241  13.419  20.490  0.00  0.00    +0.000 HD
ENDBRANCH   7  13
BRANCH   9  23
ATOM     23  C   UNL     1       1.163   9.617  19.293  0.00  0.00    +0.000 A 
ATOM     24  C   UNL     1       1.576   8.654  20.223  0.00  0.00    +0.000 A 
ATOM     25  C   UNL     1       2.208   7.477  19.795  0.00  0.00    +0.000 A 
ATOM     26  C   UNL     1       2.418   7.243  18.433  0.00  0.00    +0.000 A 
ATOM     27  C   UNL     1       2.119   8.248  17.517  0.00  0.00    +0.000 A 
ATOM     28  C   UNL     1       1.512   9.429  17.950  0.00  0.00    +0.000 A 
BRANCH  26  29
ATOM     29  O   UNL     1       2.983   6.034  18.091  0.00  0.00    +0.000 OA
BRANCH  29  30
ATOM     30  C   UNL     1       4.353   5.879  18.148  0.00  0.00    +0.000 A 
ATOM     31  C   UNL     1       5.080   6.464  17.108  0.00  0.00    +0.000 A 
ATOM     32  C   UNL     1       6.473   6.368  17.082  0.00  0.00    +0.000 A 
ATOM     33  C   UNL     1       7.144   5.689  18.098  0.00  0.00    +0.000 A 
ATOM     34  C   UNL     1       6.427   5.131  19.154  0.00  0.00    +0.000 A 
ATOM     35  C   UNL     1       5.035   5.249  19.194  0.00  0.00    +0.000 A 
ENDBRANCH  29  30
ENDBRANCH  26  29
ENDBRANCH   9  23
TORSDOF 4
ENDMDL
