MODEL 1
REMARK VINA RESULT:      -8.7      0.000      0.000
REMARK  Name = 
REMARK  4 active torsions:
REMARK  status: ('A' for Active; 'I' for Inactive)
REMARK    1  A    between atoms: C_1  and  N_2
REMARK    2  A    between atoms: C_9  and  O_10
REMARK    3  A    between atoms: O_10  and  C_11
REMARK    4  A    between atoms: C_11  and  C_13
REMARK                            x       y       z     vdW  Elec       q    Type
REMARK                         _______ _______ _______ _____ _____    ______ ____
ROOT
ATOM      1  C   UNL     1       2.402   4.673  21.139  0.00  0.00    +0.000 C 
ATOM      2  N   UNL     1       2.752   5.169  19.817  0.00  0.00    +0.000 N 
ATOM      3  C   UNL     1       2.559   6.499  19.547  0.00  0.00    +0.000 C 
ATOM      4  O   UNL     1       1.881   7.254  20.242  0.00  0.00    +0.000 OA
ATOM      5  N   UNL     1       3.241   7.014  18.487  0.00  0.00    +0.000 N 
ATOM      6  C   UNL     1       4.143   6.305  17.705  0.00  0.00    +0.000 A 
ATOM      7  C   UNL     1       4.971   6.999  16.819  0.00  0.00    +0.000 A 
ATOM      8  C   UNL     1       5.846   6.300  15.996  0.00  0.00    +0.000 A 
ATOM      9  C   UNL     1       5.853   4.906  16.026  0.00  0.00    +0.000 A 
ATOM     10  C   UNL     1       5.046   4.214  16.938  0.00  0.00    +0.000 A 
ATOM     11  C   UNL     1       4.197   4.916  17.812  0.00  0.00    +0.000 A 
ATOM     12  C   UNL     1       3.254   4.247  18.800  0.00  0.00    +0.000 C 
ATOM     13  N   UNL     1       2.162   3.642  18.078  0.00  0.00    +0.000 N 
ATOM     14  C   UNL     1       2.230   2.274  18.058  0.00  0.00    +0.000 C 
ATOM     15  O   UNL     1       1.529   1.548  17.378  0.00  0.00    +0.000 OA
ATOM     16  N   UNL     1       3.214   1.867  18.890  0.00  0.00    +0.000 N 
ATOM     17  C   UNL     1       3.890   2.940  19.393  0.00  0.00    +0.000 C 
ATOM     18  O   UNL     1       4.831   2.852  20.170  0.00  0.00    +0.000 OA
ATOM     19  H   UNL     1       3.157   8.018  18.386  0.00  0.00    +0.000 HD
ATOM     20  H   UNL     1       1.557   4.146  17.448  0.00  0.00    +0.000 HD
ATOM     21  H   UNL     1       3.445   0.904  19.064  0.00  0.00    +0.000 HD
ENDROOT
BRANCH   9  22
ATOM     22  O   UNL     1       6.690   4.124  15.203  0.00  0.00    +0.000 OA
BRANCH  22  23
ATOM     23  C   UNL     1       7.030   4.561  13.929  0.00  0.00    +0.000 C 
ATOM     24  O   UNL     1       7.782   5.479  13.637  0.00  0.00    +0.000 OA
BRANCH  23  25
ATOM     25  C   UNL     1       6.274   3.789  12.910  0.00  0.00    +0.000 A 
ATOM     26  C   UNL     1       4.914   4.008  12.660  0.00  0.00    +0.000 A 
ATOM     27  C   UNL     1       4.252   3.244  11.695  0.00  0.00    +0.000 A 
ATOM     28  C   UNL     1       4.943   2.264  10.979  0.00  0.00    +0.000 A 
ATOM     29  C   UNL     1       6.294   2.038  11.230  0.00  0.00    +0.000 A 
ATOM     30  C   UNL     1       6.959   2.795  12.197  0.00  0.00    +0.000 A 
ENDBRANCH  23  25
ENDBRANCH  22  23
ENDBRANCH   9  22
TORSDOF 3
ENDMDL
MODEL 2
REMARK VINA RESULT:      -8.6      4.696      7.402
REMARK  Name = 
REMARK  4 active torsions:
REMARK  status: ('A' for Active; 'I' for Inactive)
REMARK    1  A    between atoms: C_1  and  N_2
REMARK    2  A    between atoms: C_9  and  O_10
REMARK    3  A    between atoms: O_10  and  C_11
REMARK    4  A    between atoms: C_11  and  C_13
REMARK                            x       y       z     vdW  Elec       q    Type
REMARK                         _______ _______ _______ _____ _____    ______ ____
ROOT
ATOM      1  C   UNL     1      -1.574  11.893  20.995  0.00  0.00    +0.000 C 
ATOM      2  N   UNL     1      -0.469  10.953  21.114  0.00  0.00    +0.000 N 
ATOM      3  C   UNL     1      -0.315  10.275  22.296  0.00  0.00    +0.000 C 
ATOM      4  O   UNL     1      -0.876  10.579  23.346  0.00  0.00    +0.000 OA
ATOM      5  N   UNL     1       0.445   9.145  22.258  0.00  0.00    +0.000 N 
ATOM      6  C   UNL     1       1.021   8.615  21.111  0.00  0.00    +0.000 A 
ATOM      7  C   UNL     1       1.553   7.324  21.149  0.00  0.00    +0.000 A 
ATOM      8  C   UNL     1       2.176   6.798  20.023  0.00  0.00    +0.000 A 
ATOM      9  C   UNL     1       2.309   7.585  18.880  0.00  0.00    +0.000 A 
ATOM     10  C   UNL     1       1.746   8.867  18.834  0.00  0.00    +0.000 A 
ATOM     11  C   UNL     1       1.068   9.386  19.951  0.00  0.00    +0.000 A 
ATOM     12  C   UNL     1       0.468  10.782  20.006  0.00  0.00    +0.000 C 
ATOM     13  N   UNL     1       1.532  11.753  20.086  0.00  0.00    +0.000 N 
ATOM     14  C   UNL     1       1.693  12.464  18.926  0.00  0.00    +0.000 C 
ATOM     15  O   UNL     1       2.622  13.211  18.687  0.00  0.00    +0.000 OA
ATOM     16  N   UNL     1       0.673  12.178  18.087  0.00  0.00    +0.000 N 
ATOM     17  C   UNL     1      -0.121  11.202  18.612  0.00  0.00    +0.000 C 
ATOM     18  O   UNL     1      -1.113  10.753  18.055  0.00  0.00    +0.000 OA
ATOM     19  H   UNL     1       0.446   8.616  23.122  0.00  0.00    +0.000 HD
ATOM     20  H   UNL     1       2.243  11.750  20.802  0.00  0.00    +0.000 HD
ATOM     21  H   UNL     1       0.556  12.592  17.178  0.00  0.00    +0.000 HD
ENDROOT
BRANCH   9  22
ATOM     22  O   UNL     1       2.952   7.135  17.708  0.00  0.00    +0.000 OA
BRANCH  22  23
ATOM     23  C   UNL     1       3.562   5.887  17.676  0.00  0.00    +0.000 C 
ATOM     24  O   UNL     1       3.028   4.804  17.493  0.00  0.00    +0.000 OA
BRANCH  23  25
ATOM     25  C   UNL     1       5.010   6.025  17.982  0.00  0.00    +0.000 A 
ATOM     26  C   UNL     1       5.617   5.361  19.055  0.00  0.00    +0.000 A 
ATOM     27  C   UNL     1       6.981   5.536  19.300  0.00  0.00    +0.000 A 
ATOM     28  C   UNL     1       7.741   6.370  18.479  0.00  0.00    +0.000 A 
ATOM     29  C   UNL     1       7.141   7.038  17.414  0.00  0.00    +0.000 A 
ATOM     30  C   UNL     1       5.776   6.871  17.168  0.00  0.00    +0.000 A 
ENDBRANCH  23  25
ENDBRANCH  22  23
ENDBRANCH   9  22
TORSDOF 3
ENDMDL
MODEL 3
REMARK VINA RESULT:      -8.4      3.524      8.365
REMARK  Name = 
REMARK  4 active torsions:
REMARK  status: ('A' for Active; 'I' for Inactive)
REMARK    1  A    between atoms: C_1  and  N_2
REMARK    2  A    between atoms: C_9  and  O_10
REMARK    3  A    between atoms: O_10  and  C_11
REMARK    4  A    between atoms: C_11  and  C_13
REMARK                            x       y       z     vdW  Elec       q    Type
REMARK                         _______ _______ _______ _____ _____    ______ ____
ROOT
ATOM      1  C   UNL     1       2.695   2.148  17.300  0.00  0.00    +0.000 C 
ATOM      2  N   UNL     1       3.019   3.456  17.847  0.00  0.00    +0.000 N 
ATOM      3  C   UNL     1       3.877   4.262  17.145  0.00  0.00    +0.000 C 
ATOM      4  O   UNL     1       4.592   3.875  16.223  0.00  0.00    +0.000 OA
ATOM      5  N   UNL     1       3.856   5.590  17.449  0.00  0.00    +0.000 N 
ATOM      6  C   UNL     1       3.000   6.179  18.370  0.00  0.00    +0.000 A 
ATOM      7  C   UNL     1       2.889   7.571  18.406  0.00  0.00    +0.000 A 
ATOM      8  C   UNL     1       2.073   8.178  19.353  0.00  0.00    +0.000 A 
ATOM      9  C   UNL     1       1.411   7.391  20.294  0.00  0.00    +0.000 A 
ATOM     10  C   UNL     1       1.497   5.994  20.236  0.00  0.00    +0.000 A 
ATOM     11  C   UNL     1       2.278   5.370  19.247  0.00  0.00    +0.000 A 
ATOM     12  C   UNL     1       2.467   3.866  19.137  0.00  0.00    +0.000 C 
ATOM     13  N   UNL     1       3.310   3.414  20.217  0.00  0.00    +0.000 N 
ATOM     14  C   UNL     1       2.623   2.705  21.167  0.00  0.00    +0.000 C 
ATOM     15  O   UNL     1       3.070   2.368  22.248  0.00  0.00    +0.000 OA
ATOM     16  N   UNL     1       1.369   2.470  20.724  0.00  0.00    +0.000 N 
ATOM     17  C   UNL     1       1.155   3.099  19.533  0.00  0.00    +0.000 C 
ATOM     18  O   UNL     1       0.101   3.053  18.914  0.00  0.00    +0.000 OA
ATOM     19  H   UNL     1       4.422   6.165  16.837  0.00  0.00    +0.000 HD
ATOM     20  H   UNL     1       4.234   3.775  20.398  0.00  0.00    +0.000 HD
ATOM     21  H   UNL     1       0.677   1.948  21.235  0.00  0.00    +0.000 HD
ENDROOT
BRANCH   9  22
ATOM     22  O   UNL     1       0.588   7.931  21.305  0.00  0.00    +0.000 OA
BRANCH  22  23
ATOM     23  C   UNL     1       0.993   9.053  22.016  0.00  0.00    +0.000 C 
ATOM     24  O   UNL     1       1.998   9.174  22.700  0.00  0.00    +0.000 OA
BRANCH  23  25
ATOM     25  C   UNL     1      -0.034  10.121  21.904  0.00  0.00    +0.000 A 
ATOM     26  C   UNL     1      -0.287  10.794  20.702  0.00  0.00    +0.000 A 
ATOM     27  C   UNL     1      -1.259  11.797  20.658  0.00  0.00    +0.000 A 
ATOM     28  C   UNL     1      -1.978  12.130  21.807  0.00  0.00    +0.000 A 
ATOM     29  C   UNL     1      -1.725  11.467  23.006  0.00  0.00    +0.000 A 
ATOM     30  C   UNL     1      -0.751  10.468  23.057  0.00  0.00    +0.000 A 
ENDBRANCH  23  25
ENDBRANCH  22  23
ENDBRANCH   9  22
TORSDOF 3
ENDMDL
MODEL 4
REMARK VINA RESULT:      -8.4      4.968      7.848
REMARK  Name = 
REMARK  4 active torsions:
REMARK  status: ('A' for Active; 'I' for Inactive)
REMARK    1  A    between atoms: C_1  and  N_2
REMARK    2  A    between atoms: C_9  and  O_10
REMARK    3  A    between atoms: O_10  and  C_11
REMARK    4  A    between atoms: C_11  and  C_13
REMARK                            x       y       z     vdW  Elec       q    Type
REMARK                         _______ _______ _______ _____ _____    ______ ____
ROOT
ATOM      1  C   UNL     1      -2.095  12.461  20.946  0.00  0.00    +0.000 C 
ATOM      2  N   UNL     1      -0.923  11.613  21.100  0.00  0.00    +0.000 N 
ATOM      3  C   UNL     1      -0.650  11.097  22.340  0.00  0.00    +0.000 C 
ATOM      4  O   UNL     1      -1.166  11.494  23.383  0.00  0.00    +0.000 OA
ATOM      5  N   UNL     1       0.182  10.019  22.386  0.00  0.00    +0.000 N 
ATOM      6  C   UNL     1       0.722   9.388  21.274  0.00  0.00    +0.000 A 
ATOM      7  C   UNL     1       1.344   8.147  21.428  0.00  0.00    +0.000 A 
ATOM      8  C   UNL     1       1.931   7.524  20.333  0.00  0.00    +0.000 A 
ATOM      9  C   UNL     1       1.939   8.170  19.098  0.00  0.00    +0.000 A 
ATOM     10  C   UNL     1       1.287   9.399  18.938  0.00  0.00    +0.000 A 
ATOM     11  C   UNL     1       0.644  10.011  20.028  0.00  0.00    +0.000 A 
ATOM     12  C   UNL     1      -0.046  11.364  19.958  0.00  0.00    +0.000 C 
ATOM     13  N   UNL     1       0.952  12.400  19.847  0.00  0.00    +0.000 N 
ATOM     14  C   UNL     1       0.991  12.970  18.603  0.00  0.00    +0.000 C 
ATOM     15  O   UNL     1       1.850  13.738  18.211  0.00  0.00    +0.000 OA
ATOM     16  N   UNL     1      -0.056  12.520  17.876  0.00  0.00    +0.000 N 
ATOM     17  C   UNL     1      -0.747  11.570  18.568  0.00  0.00    +0.000 C 
ATOM     18  O   UNL     1      -1.738  10.996  18.138  0.00  0.00    +0.000 OA
ATOM     19  H   UNL     1       0.273   9.603  23.304  0.00  0.00    +0.000 HD
ATOM     20  H   UNL     1       1.703  12.529  20.508  0.00  0.00    +0.000 HD
ATOM     21  H   UNL     1      -0.257  12.811  16.934  0.00  0.00    +0.000 HD
ENDROOT
BRANCH   9  22
ATOM     22  O   UNL     1       2.538   7.618  17.946  0.00  0.00    +0.000 OA
BRANCH  22  23
ATOM     23  C   UNL     1       2.930   6.286  17.928  0.00  0.00    +0.000 C 
ATOM     24  O   UNL     1       2.208   5.300  17.888  0.00  0.00    +0.000 OA
BRANCH  23  25
ATOM     25  C   UNL     1       4.408   6.192  18.045  0.00  0.00    +0.000 A 
ATOM     26  C   UNL     1       5.274   6.823  17.143  0.00  0.00    +0.000 A 
ATOM     27  C   UNL     1       6.657   6.691  17.297  0.00  0.00    +0.000 A 
ATOM     28  C   UNL     1       7.178   5.934  18.348  0.00  0.00    +0.000 A 
ATOM     29  C   UNL     1       6.320   5.300  19.244  0.00  0.00    +0.000 A 
ATOM     30  C   UNL     1       4.938   5.423  19.091  0.00  0.00    +0.000 A 
ENDBRANCH  23  25
ENDBRANCH  22  23
ENDBRANCH   9  22
TORSDOF 3
ENDMDL
MODEL 5
REMARK VINA RESULT:      -8.2      4.751      7.631
REMARK  Name = 
REMARK  4 active torsions:
REMARK  status: ('A' for Active; 'I' for Inactive)
REMARK    1  A    between atoms: C_1  and  N_2
REMARK    2  A    between atoms: C_9  and  O_10
REMARK    3  A    between atoms: O_10  and  C_11
REMARK    4  A    between atoms: C_11  and  C_13
REMARK                            x       y       z     vdW  Elec       q    Type
REMARK                         _______ _______ _______ _____ _____    ______ ____
ROOT
ATOM      1  C   UNL     1      -1.968  12.537  20.977  0.00  0.00    +0.000 C 
ATOM      2  N   UNL     1      -0.814  11.657  21.077  0.00  0.00    +0.000 N 
ATOM      3  C   UNL     1      -0.517  11.105  22.296  0.00  0.00    +0.000 C 
ATOM      4  O   UNL     1      -0.993  11.490  23.363  0.00  0.00    +0.000 OA
ATOM      5  N   UNL     1       0.289  10.008  22.292  0.00  0.00    +0.000 N 
ATOM      6  C   UNL     1       0.781   9.391  21.150  0.00  0.00    +0.000 A 
ATOM      7  C   UNL     1       1.376   8.131  21.257  0.00  0.00    +0.000 A 
ATOM      8  C   UNL     1       1.916   7.521  20.131  0.00  0.00    +0.000 A 
ATOM      9  C   UNL     1       1.904   8.196  18.912  0.00  0.00    +0.000 A 
ATOM     10  C   UNL     1       1.278   9.444  18.799  0.00  0.00    +0.000 A 
ATOM     11  C   UNL     1       0.682  10.044  19.922  0.00  0.00    +0.000 A 
ATOM     12  C   UNL     1       0.024  11.415  19.904  0.00  0.00    +0.000 C 
ATOM     13  N   UNL     1       1.043  12.429  19.788  0.00  0.00    +0.000 N 
ATOM     14  C   UNL     1       1.060  13.028  18.556  0.00  0.00    +0.000 C 
ATOM     15  O   UNL     1       1.926  13.784  18.157  0.00  0.00    +0.000 OA
ATOM     16  N   UNL     1      -0.018  12.621  17.850  0.00  0.00    +0.000 N 
ATOM     17  C   UNL     1      -0.712  11.671  18.541  0.00  0.00    +0.000 C 
ATOM     18  O   UNL     1      -1.729  11.132  18.127  0.00  0.00    +0.000 OA
ATOM     19  H   UNL     1       0.396   9.568  23.197  0.00  0.00    +0.000 HD
ATOM     20  H   UNL     1       1.816  12.525  20.429  0.00  0.00    +0.000 HD
ATOM     21  H   UNL     1      -0.239  12.939  16.922  0.00  0.00    +0.000 HD
ENDROOT
BRANCH   9  22
ATOM     22  O   UNL     1       2.456   7.658  17.730  0.00  0.00    +0.000 OA
BRANCH  22  23
ATOM     23  C   UNL     1       3.603   6.877  17.783  0.00  0.00    +0.000 C 
ATOM     24  O   UNL     1       4.763   7.262  17.794  0.00  0.00    +0.000 OA
BRANCH  23  25
ATOM     25  C   UNL     1       3.238   5.437  17.746  0.00  0.00    +0.000 A 
ATOM     26  C   UNL     1       1.913   4.996  17.859  0.00  0.00    +0.000 A 
ATOM     27  C   UNL     1       1.630   3.628  17.827  0.00  0.00    +0.000 A 
ATOM     28  C   UNL     1       2.662   2.700  17.682  0.00  0.00    +0.000 A 
ATOM     29  C   UNL     1       3.982   3.134  17.576  0.00  0.00    +0.000 A 
ATOM     30  C   UNL     1       4.271   4.499  17.613  0.00  0.00    +0.000 A 
ENDBRANCH  23  25
ENDBRANCH  22  23
ENDBRANCH   9  22
TORSDOF 3
ENDMDL
MODEL 6
REMARK VINA RESULT:      -8.0      4.107      7.072
REMARK  Name = 
REMARK  4 active torsions:
REMARK  status: ('A' for Active; 'I' for Inactive)
REMARK    1  A    between atoms: C_1  and  N_2
REMARK    2  A    between atoms: C_9  and  O_10
REMARK    3  A    between atoms: O_10  and  C_11
REMARK    4  A    between atoms: C_11  and  C_13
REMARK                            x       y       z     vdW  Elec       q    Type
REMARK                         _______ _______ _______ _____ _____    ______ ____
ROOT
ATOM      1  C   UNL     1      -1.525  11.855  21.029  0.00  0.00    +0.000 C 
ATOM      2  N   UNL     1      -0.424  10.913  21.157  0.00  0.00    +0.000 N 
ATOM      3  C   UNL     1      -0.257  10.264  22.353  0.00  0.00    +0.000 C 
ATOM      4  O   UNL     1      -0.802  10.598  23.403  0.00  0.00    +0.000 OA
ATOM      5  N   UNL     1       0.497   9.130  22.334  0.00  0.00    +0.000 N 
ATOM      6  C   UNL     1       1.055   8.568  21.194  0.00  0.00    +0.000 A 
ATOM      7  C   UNL     1       1.581   7.276  21.257  0.00  0.00    +0.000 A 
ATOM      8  C   UNL     1       2.186   6.717  20.137  0.00  0.00    +0.000 A 
ATOM      9  C   UNL     1       2.307   7.475  18.973  0.00  0.00    +0.000 A 
ATOM     10  C   UNL     1       1.750   8.758  18.901  0.00  0.00    +0.000 A 
ATOM     11  C   UNL     1       1.089   9.309  20.013  0.00  0.00    +0.000 A 
ATOM     12  C   UNL     1       0.498  10.709  20.042  0.00  0.00    +0.000 C 
ATOM     13  N   UNL     1       1.567  11.676  20.082  0.00  0.00    +0.000 N 
ATOM     14  C   UNL     1       1.715  12.356  18.902  0.00  0.00    +0.000 C 
ATOM     15  O   UNL     1       2.645  13.093  18.631  0.00  0.00    +0.000 OA
ATOM     16  N   UNL     1       0.683  12.054  18.084  0.00  0.00    +0.000 N 
ATOM     17  C   UNL     1      -0.109  11.096  18.645  0.00  0.00    +0.000 C 
ATOM     18  O   UNL     1      -1.111  10.639  18.113  0.00  0.00    +0.000 OA
ATOM     19  H   UNL     1       0.507   8.623  23.211  0.00  0.00    +0.000 HD
ATOM     20  H   UNL     1       2.287  11.688  20.788  0.00  0.00    +0.000 HD
ATOM     21  H   UNL     1       0.556  12.446  17.167  0.00  0.00    +0.000 HD
ENDROOT
BRANCH   9  22
ATOM     22  O   UNL     1       2.932   6.991  17.804  0.00  0.00    +0.000 OA
BRANCH  22  23
ATOM     23  C   UNL     1       3.091   5.626  17.605  0.00  0.00    +0.000 C 
ATOM     24  O   UNL     1       2.227   4.763  17.655  0.00  0.00    +0.000 OA
BRANCH  23  25
ATOM     25  C   UNL     1       4.527   5.311  17.387  0.00  0.00    +0.000 A 
ATOM     26  C   UNL     1       5.551   5.946  18.100  0.00  0.00    +0.000 A 
ATOM     27  C   UNL     1       6.885   5.615  17.846  0.00  0.00    +0.000 A 
ATOM     28  C   UNL     1       7.199   4.654  16.883  0.00  0.00    +0.000 A 
ATOM     29  C   UNL     1       6.184   4.024  16.167  0.00  0.00    +0.000 A 
ATOM     30  C   UNL     1       4.850   4.355  16.413  0.00  0.00    +0.000 A 
ENDBRANCH  23  25
ENDBRANCH  22  23
ENDBRANCH   9  22
TORSDOF 3
ENDMDL
MODEL 7
REMARK VINA RESULT:      -8.0      4.269      7.327
REMARK  Name = 
REMARK  4 active torsions:
REMARK  status: ('A' for Active; 'I' for Inactive)
REMARK    1  A    between atoms: C_1  and  N_2
REMARK    2  A    between atoms: C_9  and  O_10
REMARK    3  A    between atoms: O_10  and  C_11
REMARK    4  A    between atoms: C_11  and  C_13
REMARK                            x       y       z     vdW  Elec       q    Type
REMARK                         _______ _______ _______ _____ _____    ______ ____
ROOT
ATOM      1  C   UNL     1      -1.729  12.212  20.982  0.00  0.00    +0.000 C 
ATOM      2  N   UNL     1      -0.618  11.285  21.130  0.00  0.00    +0.000 N 
ATOM      3  C   UNL     1      -0.444  10.662  22.339  0.00  0.00    +0.000 C 
ATOM      4  O   UNL     1      -0.994  11.011  23.382  0.00  0.00    +0.000 OA
ATOM      5  N   UNL     1       0.323   9.537  22.344  0.00  0.00    +0.000 N 
ATOM      6  C   UNL     1       0.888   8.958  21.216  0.00  0.00    +0.000 A 
ATOM      7  C   UNL     1       1.429   7.673  21.306  0.00  0.00    +0.000 A 
ATOM      8  C   UNL     1       2.041   7.099  20.197  0.00  0.00    +0.000 A 
ATOM      9  C   UNL     1       2.154   7.834  19.018  0.00  0.00    +0.000 A 
ATOM     10  C   UNL     1       1.583   9.109  18.920  0.00  0.00    +0.000 A 
ATOM     11  C   UNL     1       0.915   9.675  20.020  0.00  0.00    +0.000 A 
ATOM     12  C   UNL     1       0.307  11.069  20.020  0.00  0.00    +0.000 C 
ATOM     13  N   UNL     1       1.366  12.048  20.041  0.00  0.00    +0.000 N 
ATOM     14  C   UNL     1       1.507  12.706  18.848  0.00  0.00    +0.000 C 
ATOM     15  O   UNL     1       2.429  13.448  18.563  0.00  0.00    +0.000 OA
ATOM     16  N   UNL     1       0.479  12.376  18.036  0.00  0.00    +0.000 N 
ATOM     17  C   UNL     1      -0.302  11.420  18.616  0.00  0.00    +0.000 C 
ATOM     18  O   UNL     1      -1.299  10.941  18.092  0.00  0.00    +0.000 OA
ATOM     19  H   UNL     1       0.338   9.048  23.231  0.00  0.00    +0.000 HD
ATOM     20  H   UNL     1       2.085  12.083  20.748  0.00  0.00    +0.000 HD
ATOM     21  H   UNL     1       0.348  12.748  17.110  0.00  0.00    +0.000 HD
ENDROOT
BRANCH   9  22
ATOM     22  O   UNL     1       2.785   7.334  17.859  0.00  0.00    +0.000 OA
BRANCH  22  23
ATOM     23  C   UNL     1       2.915   5.965  17.665  0.00  0.00    +0.000 C 
ATOM     24  O   UNL     1       2.073   5.104  17.871  0.00  0.00    +0.000 OA
BRANCH  23  25
ATOM     25  C   UNL     1       4.297   5.646  17.224  0.00  0.00    +0.000 A 
ATOM     26  C   UNL     1       4.640   4.407  16.668  0.00  0.00    +0.000 A 
ATOM     27  C   UNL     1       5.960   4.160  16.280  0.00  0.00    +0.000 A 
ATOM     28  C   UNL     1       6.936   5.143  16.443  0.00  0.00    +0.000 A 
ATOM     29  C   UNL     1       6.601   6.375  17.002  0.00  0.00    +0.000 A 
ATOM     30  C   UNL     1       5.285   6.625  17.397  0.00  0.00    +0.000 A 
ENDBRANCH  23  25
ENDBRANCH  22  23
ENDBRANCH   9  22
TORSDOF 3
ENDMDL
MODEL 8
REMARK VINA RESULT:      -7.9      3.342      8.101
REMARK  Name = 
REMARK  4 active torsions:
REMARK  status: ('A' for Active; 'I' for Inactive)
REMARK    1  A    between atoms: C_1  and  N_2
REMARK    2  A    between atoms: C_9  and  O_10
REMARK    3  A    between atoms: O_10  and  C_11
REMARK    4  A    between atoms: C_11  and  C_13
REMARK                            x       y       z     vdW  Elec       q    Type
REMARK                         _______ _______ _______ _____ _____    ______ ____
ROOT
ATOM      1  C   UNL     1       3.183   1.968  17.514  0.00  0.00    +0.000 C 
ATOM      2  N   UNL     1       3.526   3.341  17.850  0.00  0.00    +0.000 N 
ATOM      3  C   UNL     1       4.599   3.918  17.221  0.00  0.00    +0.000 C 
ATOM      4  O   UNL     1       5.446   3.293  16.586  0.00  0.00    +0.000 OA
ATOM      5  N   UNL     1       4.661   5.278  17.240  0.00  0.00    +0.000 N 
ATOM      6  C   UNL     1       3.700   6.108  17.801  0.00  0.00    +0.000 A 
ATOM      7  C   UNL     1       3.740   7.478  17.532  0.00  0.00    +0.000 A 
ATOM      8  C   UNL     1       2.813   8.328  18.124  0.00  0.00    +0.000 A 
ATOM      9  C   UNL     1       1.882   7.810  19.023  0.00  0.00    +0.000 A 
ATOM     10  C   UNL     1       1.823   6.432  19.266  0.00  0.00    +0.000 A 
ATOM     11  C   UNL     1       2.722   5.559  18.630  0.00  0.00    +0.000 A 
ATOM     12  C   UNL     1       2.762   4.058  18.869  0.00  0.00    +0.000 C 
ATOM     13  N   UNL     1       3.299   3.801  20.183  0.00  0.00    +0.000 N 
ATOM     14  C   UNL     1       2.350   3.363  21.069  0.00  0.00    +0.000 C 
ATOM     15  O   UNL     1       2.516   3.243  22.269  0.00  0.00    +0.000 OA
ATOM     16  N   UNL     1       1.201   3.116  20.402  0.00  0.00    +0.000 N 
ATOM     17  C   UNL     1       1.318   3.482  19.094  0.00  0.00    +0.000 C 
ATOM     18  O   UNL     1       0.422   3.368  18.269  0.00  0.00    +0.000 OA
ATOM     19  H   UNL     1       5.406   5.668  16.675  0.00  0.00    +0.000 HD
ATOM     20  H   UNL     1       4.197   4.134  20.498  0.00  0.00    +0.000 HD
ATOM     21  H   UNL     1       0.363   2.764  20.832  0.00  0.00    +0.000 HD
ENDROOT
BRANCH   9  22
ATOM     22  O   UNL     1       0.927   8.610  19.686  0.00  0.00    +0.000 OA
BRANCH  22  23
ATOM     23  C   UNL     1       1.060   8.884  21.041  0.00  0.00    +0.000 C 
ATOM     24  O   UNL     1       1.798   8.329  21.842  0.00  0.00    +0.000 OA
BRANCH  23  25
ATOM     25  C   UNL     1       0.093   9.939  21.441  0.00  0.00    +0.000 A 
ATOM     26  C   UNL     1      -0.381  10.065  22.753  0.00  0.00    +0.000 A 
ATOM     27  C   UNL     1      -1.297  11.072  23.068  0.00  0.00    +0.000 A 
ATOM     28  C   UNL     1      -1.741  11.952  22.081  0.00  0.00    +0.000 A 
ATOM     29  C   UNL     1      -1.277  11.827  20.773  0.00  0.00    +0.000 A 
ATOM     30  C   UNL     1      -0.366  10.819  20.451  0.00  0.00    +0.000 A 
ENDBRANCH  23  25
ENDBRANCH  22  23
ENDBRANCH   9  22
TORSDOF 3
ENDMDL
MODEL 9
REMARK VINA RESULT:      -7.9      1.113      1.621
REMARK  Name = 
REMARK  4 active torsions:
REMARK  status: ('A' for Active; 'I' for Inactive)
REMARK    1  A    between atoms: C_1  and  N_2
REMARK    2  A    between atoms: C_9  and  O_10
REMARK    3  A    between atoms: O_10  and  C_11
REMARK    4  A    between atoms: C_11  and  C_13
REMARK                            x       y       z     vdW  Elec       q    Type
REMARK                         _______ _______ _______ _____ _____    ______ ____
ROOT
ATOM      1  C   UNL     1       2.479   3.835  21.360  0.00  0.00    +0.000 C 
ATOM      2  N   UNL     1       2.498   4.741  20.221  0.00  0.00    +0.000 N 
ATOM      3  C   UNL     1       1.860   5.949  20.337  0.00  0.00    +0.000 C 
ATOM      4  O   UNL     1       1.061   6.226  21.229  0.00  0.00    +0.000 OA
ATOM      5  N   UNL     1       2.216   6.917  19.448  0.00  0.00    +0.000 N 
ATOM      6  C   UNL     1       3.202   6.781  18.480  0.00  0.00    +0.000 A 
ATOM      7  C   UNL     1       3.657   7.916  17.805  0.00  0.00    +0.000 A 
ATOM      8  C   UNL     1       4.609   7.789  16.800  0.00  0.00    +0.000 A 
ATOM      9  C   UNL     1       5.065   6.522  16.440  0.00  0.00    +0.000 A 
ATOM     10  C   UNL     1       4.631   5.389  17.140  0.00  0.00    +0.000 A 
ATOM     11  C   UNL     1       3.708   5.514  18.194  0.00  0.00    +0.000 A 
ATOM     12  C   UNL     1       3.148   4.337  18.976  0.00  0.00    +0.000 C 
ATOM     13  N   UNL     1       2.232   3.603  18.138  0.00  0.00    +0.000 N 
ATOM     14  C   UNL     1       2.730   2.392  17.736  0.00  0.00    +0.000 C 
ATOM     15  O   UNL     1       2.225   1.671  16.896  0.00  0.00    +0.000 OA
ATOM     16  N   UNL     1       3.881   2.145  18.400  0.00  0.00    +0.000 N 
ATOM     17  C   UNL     1       4.232   3.216  19.167  0.00  0.00    +0.000 C 
ATOM     18  O   UNL     1       5.234   3.257  19.867  0.00  0.00    +0.000 OA
ATOM     19  H   UNL     1       1.804   7.823  19.634  0.00  0.00    +0.000 HD
ATOM     20  H   UNL     1       1.430   4.016  17.687  0.00  0.00    +0.000 HD
ATOM     21  H   UNL     1       4.426   1.306  18.293  0.00  0.00    +0.000 HD
ENDROOT
BRANCH   9  22
ATOM     22  O   UNL     1       6.008   6.307  15.413  0.00  0.00    +0.000 OA
BRANCH  22  23
ATOM     23  C   UNL     1       6.703   5.108  15.337  0.00  0.00    +0.000 C 
ATOM     24  O   UNL     1       7.474   4.643  16.164  0.00  0.00    +0.000 OA
BRANCH  23  25
ATOM     25  C   UNL     1       6.444   4.455  14.028  0.00  0.00    +0.000 A 
ATOM     26  C   UNL     1       7.395   4.431  13.000  0.00  0.00    +0.000 A 
ATOM     27  C   UNL     1       7.091   3.810  11.785  0.00  0.00    +0.000 A 
ATOM     28  C   UNL     1       5.844   3.213  11.594  0.00  0.00    +0.000 A 
ATOM     29  C   UNL     1       4.893   3.239  12.612  0.00  0.00    +0.000 A 
ATOM     30  C   UNL     1       5.189   3.864  13.825  0.00  0.00    +0.000 A 
ENDBRANCH  23  25
ENDBRANCH  22  23
ENDBRANCH   9  22
TORSDOF 3
ENDMDL
