MODEL 1
REMARK VINA RESULT:      -6.2      0.000      0.000
REMARK  Name = 
REMARK  7 active torsions:
REMARK  status: ('A' for Active; 'I' for Inactive)
REMARK    1  A    between atoms: C_1  and  C_2
REMARK    2  A    between atoms: C_2  and  C_3
REMARK    3  A    between atoms: C_2  and  N_4
REMARK    4  A    between atoms: C_8  and  C_9
REMARK    5  A    between atoms: C_14  and  N_15
REMARK    6  A    between atoms: C_18  and  N_19
REMARK    7  A    between atoms: N_22  and  C_23
REMARK                            x       y       z     vdW  Elec       q    Type
REMARK                         _______ _______ _______ _____ _____    ______ ____
ROOT
ATOM      1  N   UNL     1       1.601   8.677  19.791  0.00  0.00    +0.000 NA
ATOM      2  C   UNL     1       2.292   7.760  19.211  0.00  0.00    +0.000 C 
ATOM      3  C   UNL     1       2.472   6.342  19.468  0.00  0.00    +0.000 A 
ATOM      4  C   UNL     1       1.992   5.484  20.457  0.00  0.00    +0.000 A 
ATOM      5  C   UNL     1       2.364   4.143  20.349  0.00  0.00    +0.000 A 
ATOM      6  N   UNL     1       3.155   3.611  19.364  0.00  0.00    +0.000 NA
ATOM      7  C   UNL     1       3.619   4.469  18.419  0.00  0.00    +0.000 A 
ATOM      8  C   UNL     1       4.409   4.081  17.329  0.00  0.00    +0.000 A 
ATOM      9  C   UNL     1       4.845   5.069  16.405  0.00  0.00    +0.000 A 
ATOM     10 CL   UNL     1       5.869   4.553  15.079  0.00  0.00    +0.000 Cl
ATOM     11  C   UNL     1       4.496   6.462  16.489  0.00  0.00    +0.000 A 
ATOM     12  C   UNL     1       3.681   6.782  17.585  0.00  0.00    +0.000 A 
ATOM     13  C   UNL     1       3.289   5.797  18.478  0.00  0.00    +0.000 A 
ATOM     14  N   UNL     1       3.087   7.974  18.057  0.00  0.00    +0.000 N 
ATOM     15  C   UNL     1       3.152   9.314  17.514  0.00  0.00    +0.000 C 
ENDROOT
BRANCH   5  16
ATOM     16  C   UNL     1       1.822   3.192  21.373  0.00  0.00    +0.000 C 
ATOM     17  N   UNL     1       0.573   2.695  21.126  0.00  0.00    +0.000 N 
ATOM     18  O   UNL     1       2.445   2.883  22.382  0.00  0.00    +0.000 OA
ATOM     19  H   UNL     1       0.077   2.966  20.286  0.00  0.00    +0.000 HD
ATOM     20  H   UNL     1       0.151   2.073  21.797  0.00  0.00    +0.000 HD
ENDBRANCH   5  16
BRANCH   1  22
ATOM     21  C   UNL     1       1.501   8.883  22.202  0.00  0.00    +0.000 C 
ATOM     22  C   UNL     1       0.756   8.428  20.951  0.00  0.00    +0.000 C 
ATOM     23  C   UNL     1      -0.552   9.204  20.806  0.00  0.00    +0.000 C 
ENDBRANCH   1  22
BRANCH   8  24
ATOM     24  N   UNL     1       4.924   2.755  17.282  0.00  0.00    +0.000 N 
ATOM     25  H   UNL     1       4.690   2.234  18.124  0.00  0.00    +0.000 HD
ATOM     26  H   UNL     1       4.699   2.272  16.415  0.00  0.00    +0.000 HD
ENDBRANCH   8  24
BRANCH  11  27
ATOM     27  N   UNL     1       4.880   7.327  15.451  0.00  0.00    +0.000 N 
ATOM     28  H   UNL     1       5.057   8.280  15.765  0.00  0.00    +0.000 HD
ATOM     29  H   UNL     1       4.368   7.283  14.588  0.00  0.00    +0.000 HD
ENDBRANCH  11  27
TORSDOF 4
ENDMDL
MODEL 2
REMARK VINA RESULT:      -6.0      7.923     10.014
REMARK  Name = 
REMARK  7 active torsions:
REMARK  status: ('A' for Active; 'I' for Inactive)
REMARK    1  A    between atoms: C_1  and  C_2
REMARK    2  A    between atoms: C_2  and  C_3
REMARK    3  A    between atoms: C_2  and  N_4
REMARK    4  A    between atoms: C_8  and  C_9
REMARK    5  A    between atoms: C_14  and  N_15
REMARK    6  A    between atoms: C_18  and  N_19
REMARK    7  A    between atoms: N_22  and  C_23
REMARK                            x       y       z     vdW  Elec       q    Type
REMARK                         _______ _______ _______ _____ _____    ______ ____
ROOT
ATOM      1  N   UNL     1      -6.717  13.195  21.642  0.00  0.00    +0.000 NA
ATOM      2  C   UNL     1      -5.794  12.868  20.808  0.00  0.00    +0.000 C 
ATOM      3  C   UNL     1      -4.361  12.674  20.940  0.00  0.00    +0.000 A 
ATOM      4  C   UNL     1      -3.474  12.813  22.007  0.00  0.00    +0.000 A 
ATOM      5  C   UNL     1      -2.140  12.494  21.752  0.00  0.00    +0.000 A 
ATOM      6  N   UNL     1      -1.639  12.064  20.550  0.00  0.00    +0.000 NA
ATOM      7  C   UNL     1      -2.519  11.948  19.524  0.00  0.00    +0.000 A 
ATOM      8  C   UNL     1      -2.175  11.490  18.244  0.00  0.00    +0.000 A 
ATOM      9  C   UNL     1      -3.182  11.418  17.243  0.00  0.00    +0.000 A 
ATOM     10 CL   UNL     1      -2.705  10.884  15.642  0.00  0.00    +0.000 Cl
ATOM     11  C   UNL     1      -4.564  11.751  17.462  0.00  0.00    +0.000 A 
ATOM     12  C   UNL     1      -4.850  12.174  18.769  0.00  0.00    +0.000 A 
ATOM     13  C   UNL     1      -3.841  12.252  19.717  0.00  0.00    +0.000 A 
ATOM     14  N   UNL     1      -6.026  12.575  19.440  0.00  0.00    +0.000 N 
ATOM     15  C   UNL     1      -7.382  12.679  18.942  0.00  0.00    +0.000 C 
ENDROOT
BRANCH   5  16
ATOM     16  C   UNL     1      -1.176  12.589  22.895  0.00  0.00    +0.000 C 
ATOM     17  N   UNL     1      -1.037  13.826  23.459  0.00  0.00    +0.000 N 
ATOM     18  O   UNL     1      -0.533  11.627  23.298  0.00  0.00    +0.000 OA
ATOM     19  H   UNL     1      -1.578  14.607  23.108  0.00  0.00    +0.000 HD
ATOM     20  H   UNL     1      -0.380  13.951  24.214  0.00  0.00    +0.000 HD
ENDBRANCH   5  16
BRANCH   1  22
ATOM     21  C   UNL     1      -7.023  14.826  23.406  0.00  0.00    +0.000 C 
ATOM     22  C   UNL     1      -6.464  13.451  23.054  0.00  0.00    +0.000 C 
ATOM     23  C   UNL     1      -7.143  12.375  23.897  0.00  0.00    +0.000 C 
ENDBRANCH   1  22
BRANCH   8  24
ATOM     24  N   UNL     1      -0.803  11.306  17.919  0.00  0.00    +0.000 N 
ATOM     25  H   UNL     1      -0.665  10.488  17.329  0.00  0.00    +0.000 HD
ATOM     26  H   UNL     1      -0.360  12.152  17.568  0.00  0.00    +0.000 HD
ENDBRANCH   8  24
BRANCH  11  27
ATOM     27  N   UNL     1      -5.494  11.522  16.435  0.00  0.00    +0.000 N 
ATOM     28  H   UNL     1      -5.242  10.743  15.829  0.00  0.00    +0.000 HD
ATOM     29  H   UNL     1      -5.845  12.318  15.932  0.00  0.00    +0.000 HD
ENDBRANCH  11  27
TORSDOF 4
ENDMDL
MODEL 3
REMARK VINA RESULT:      -5.9      6.942     10.243
REMARK  Name = 
REMARK  7 active torsions:
REMARK  status: ('A' for Active; 'I' for Inactive)
REMARK    1  A    between atoms: C_1  and  C_2
REMARK    2  A    between atoms: C_2  and  C_3
REMARK    3  A    between atoms: C_2  and  N_4
REMARK    4  A    between atoms: C_8  and  C_9
REMARK    5  A    between atoms: C_14  and  N_15
REMARK    6  A    between atoms: C_18  and  N_19
REMARK    7  A    between atoms: N_22  and  C_23
REMARK                            x       y       z     vdW  Elec       q    Type
REMARK                         _______ _______ _______ _____ _____    ______ ____
ROOT
ATOM      1  N   UNL     1      -0.313  11.401  19.567  0.00  0.00    +0.000 NA
ATOM      2  C   UNL     1      -1.557  11.666  19.379  0.00  0.00    +0.000 C 
ATOM      3  C   UNL     1      -2.460  11.449  18.262  0.00  0.00    +0.000 A 
ATOM      4  C   UNL     1      -2.286  10.915  16.986  0.00  0.00    +0.000 A 
ATOM      5  C   UNL     1      -3.426  10.836  16.185  0.00  0.00    +0.000 A 
ATOM      6  N   UNL     1      -4.685  11.240  16.548  0.00  0.00    +0.000 NA
ATOM      7  C   UNL     1      -4.827  11.767  17.791  0.00  0.00    +0.000 A 
ATOM      8  C   UNL     1      -6.049  12.194  18.327  0.00  0.00    +0.000 A 
ATOM      9  C   UNL     1      -6.076  12.739  19.639  0.00  0.00    +0.000 A 
ATOM     10 CL   UNL     1      -7.615  13.305  20.259  0.00  0.00    +0.000 Cl
ATOM     11  C   UNL     1      -4.921  12.851  20.490  0.00  0.00    +0.000 A 
ATOM     12  C   UNL     1      -3.734  12.380  19.908  0.00  0.00    +0.000 A 
ATOM     13  C   UNL     1      -3.739  11.872  18.619  0.00  0.00    +0.000 A 
ATOM     14  N   UNL     1      -2.397  12.270  20.348  0.00  0.00    +0.000 N 
ATOM     15  C   UNL     1      -1.811  12.642  21.619  0.00  0.00    +0.000 C 
ENDROOT
BRANCH   5  16
ATOM     16  C   UNL     1      -3.275  10.222  14.827  0.00  0.00    +0.000 C 
ATOM     17  N   UNL     1      -4.435   9.994  14.141  0.00  0.00    +0.000 N 
ATOM     18  O   UNL     1      -2.184   9.922  14.355  0.00  0.00    +0.000 OA
ATOM     19  H   UNL     1      -5.326  10.248  14.552  0.00  0.00    +0.000 HD
ATOM     20  H   UNL     1      -4.391   9.556  13.234  0.00  0.00    +0.000 HD
ENDBRANCH   5  16
BRANCH   1  22
ATOM     21  C   UNL     1       1.758  11.602  18.326  0.00  0.00    +0.000 C 
ATOM     22  C   UNL     1       0.523  10.741  18.573  0.00  0.00    +0.000 C 
ATOM     23  C   UNL     1       0.936   9.364  19.088  0.00  0.00    +0.000 C 
ENDBRANCH   1  22
BRANCH   8  24
ATOM     24  N   UNL     1      -7.191  12.265  17.480  0.00  0.00    +0.000 N 
ATOM     25  H   UNL     1      -6.926  12.278  16.498  0.00  0.00    +0.000 HD
ATOM     26  H   UNL     1      -7.901  11.575  17.713  0.00  0.00    +0.000 HD
ENDBRANCH   8  24
BRANCH  11  27
ATOM     27  N   UNL     1      -5.087  13.289  21.814  0.00  0.00    +0.000 N 
ATOM     28  H   UNL     1      -4.505  12.786  22.482  0.00  0.00    +0.000 HD
ATOM     29  H   UNL     1      -6.022  13.446  22.144  0.00  0.00    +0.000 HD
ENDBRANCH  11  27
TORSDOF 4
ENDMDL
MODEL 4
REMARK VINA RESULT:      -5.8      7.914     11.350
REMARK  Name = 
REMARK  7 active torsions:
REMARK  status: ('A' for Active; 'I' for Inactive)
REMARK    1  A    between atoms: C_1  and  C_2
REMARK    2  A    between atoms: C_2  and  C_3
REMARK    3  A    between atoms: C_2  and  N_4
REMARK    4  A    between atoms: C_8  and  C_9
REMARK    5  A    between atoms: C_14  and  N_15
REMARK    6  A    between atoms: C_18  and  N_19
REMARK    7  A    between atoms: N_22  and  C_23
REMARK                            x       y       z     vdW  Elec       q    Type
REMARK                         _______ _______ _______ _____ _____    ______ ____
ROOT
ATOM      1  N   UNL     1      -0.751  12.327  20.646  0.00  0.00    +0.000 NA
ATOM      2  C   UNL     1      -1.976  12.489  21.003  0.00  0.00    +0.000 C 
ATOM      3  C   UNL     1      -3.237  12.395  20.289  0.00  0.00    +0.000 A 
ATOM      4  C   UNL     1      -3.562  12.137  18.957  0.00  0.00    +0.000 A 
ATOM      5  C   UNL     1      -4.923  12.092  18.648  0.00  0.00    +0.000 A 
ATOM      6  N   UNL     1      -5.949  12.282  19.537  0.00  0.00    +0.000 NA
ATOM      7  C   UNL     1      -5.607  12.543  20.824  0.00  0.00    +0.000 A 
ATOM      8  C   UNL     1      -6.534  12.728  21.859  0.00  0.00    +0.000 A 
ATOM      9  C   UNL     1      -6.059  13.005  23.170  0.00  0.00    +0.000 A 
ATOM     10 CL   UNL     1      -7.248  13.275  24.430  0.00  0.00    +0.000 Cl
ATOM     11  C   UNL     1      -4.667  13.075  23.527  0.00  0.00    +0.000 A 
ATOM     12  C   UNL     1      -3.791  12.853  22.454  0.00  0.00    +0.000 A 
ATOM     13  C   UNL     1      -4.286  12.604  21.183  0.00  0.00    +0.000 A 
ATOM     14  N   UNL     1      -2.385  12.804  22.323  0.00  0.00    +0.000 N 
ATOM     15  C   UNL     1      -1.359  12.985  23.328  0.00  0.00    +0.000 C 
ENDROOT
BRANCH   5  16
ATOM     16  C   UNL     1      -5.299  11.768  17.234  0.00  0.00    +0.000 C 
ATOM     17  N   UNL     1      -6.534  12.192  16.832  0.00  0.00    +0.000 N 
ATOM     18  O   UNL     1      -4.559  11.147  16.480  0.00  0.00    +0.000 OA
ATOM     19  H   UNL     1      -7.130  12.701  17.474  0.00  0.00    +0.000 HD
ATOM     20  H   UNL     1      -6.848  11.975  15.899  0.00  0.00    +0.000 HD
ENDBRANCH   5  16
BRANCH   1  22
ATOM     21  C   UNL     1       0.587  13.036  18.756  0.00  0.00    +0.000 C 
ATOM     22  C   UNL     1      -0.353  11.962  19.293  0.00  0.00    +0.000 C 
ATOM     23  C   UNL     1       0.352  10.608  19.317  0.00  0.00    +0.000 C 
ENDBRANCH   1  22
BRANCH   8  24
ATOM     24  N   UNL     1      -7.917  12.837  21.542  0.00  0.00    +0.000 N 
ATOM     25  H   UNL     1      -8.488  12.909  22.381  0.00  0.00    +0.000 HD
ATOM     26  H   UNL     1      -8.108  13.552  20.844  0.00  0.00    +0.000 HD
ENDBRANCH   8  24
BRANCH  11  27
ATOM     27  N   UNL     1      -4.314  13.231  24.877  0.00  0.00    +0.000 N 
ATOM     28  H   UNL     1      -3.472  12.719  25.135  0.00  0.00    +0.000 HD
ATOM     29  H   UNL     1      -5.043  13.166  25.564  0.00  0.00    +0.000 HD
ENDBRANCH  11  27
TORSDOF 4
ENDMDL
MODEL 5
REMARK VINA RESULT:      -5.8      7.555      9.590
REMARK  Name = 
REMARK  7 active torsions:
REMARK  status: ('A' for Active; 'I' for Inactive)
REMARK    1  A    between atoms: C_1  and  C_2
REMARK    2  A    between atoms: C_2  and  C_3
REMARK    3  A    between atoms: C_2  and  N_4
REMARK    4  A    between atoms: C_8  and  C_9
REMARK    5  A    between atoms: C_14  and  N_15
REMARK    6  A    between atoms: C_18  and  N_19
REMARK    7  A    between atoms: N_22  and  C_23
REMARK                            x       y       z     vdW  Elec       q    Type
REMARK                         _______ _______ _______ _____ _____    ______ ____
ROOT
ATOM      1  N   UNL     1      -5.376  13.774  22.011  0.00  0.00    +0.000 NA
ATOM      2  C   UNL     1      -4.866  13.221  20.968  0.00  0.00    +0.000 C 
ATOM      3  C   UNL     1      -3.567  12.634  20.692  0.00  0.00    +0.000 A 
ATOM      4  C   UNL     1      -2.402  12.499  21.447  0.00  0.00    +0.000 A 
ATOM      5  C   UNL     1      -1.341  11.827  20.837  0.00  0.00    +0.000 A 
ATOM      6  N   UNL     1      -1.354  11.299  19.572  0.00  0.00    +0.000 NA
ATOM      7  C   UNL     1      -2.495  11.453  18.853  0.00  0.00    +0.000 A 
ATOM      8  C   UNL     1      -2.682  10.944  17.560  0.00  0.00    +0.000 A 
ATOM      9  C   UNL     1      -3.919  11.175  16.899  0.00  0.00    +0.000 A 
ATOM     10 CL   UNL     1      -4.100  10.563  15.267  0.00  0.00    +0.000 Cl
ATOM     11  C   UNL     1      -5.030  11.875  17.487  0.00  0.00    +0.000 A 
ATOM     12  C   UNL     1      -4.791  12.334  18.792  0.00  0.00    +0.000 A 
ATOM     13  C   UNL     1      -3.567  12.109  19.401  0.00  0.00    +0.000 A 
ATOM     14  N   UNL     1      -5.562  13.032  19.748  0.00  0.00    +0.000 N 
ATOM     15  C   UNL     1      -6.922  13.519  19.657  0.00  0.00    +0.000 C 
ENDROOT
BRANCH   5  16
ATOM     16  C   UNL     1      -0.095  11.627  21.644  0.00  0.00    +0.000 C 
ATOM     17  N   UNL     1       1.080  11.648  20.946  0.00  0.00    +0.000 N 
ATOM     18  O   UNL     1      -0.116  11.438  22.855  0.00  0.00    +0.000 OA
ATOM     19  H   UNL     1       1.072  11.804  19.945  0.00  0.00    +0.000 HD
ATOM     20  H   UNL     1       1.946  11.490  21.438  0.00  0.00    +0.000 HD
ENDBRANCH   5  16
BRANCH   1  22
ATOM     21  C   UNL     1      -5.031  15.266  23.888  0.00  0.00    +0.000 C 
ATOM     22  C   UNL     1      -4.658  13.921  23.270  0.00  0.00    +0.000 C 
ATOM     23  C   UNL     1      -5.044  12.784  24.213  0.00  0.00    +0.000 C 
ENDBRANCH   1  22
BRANCH   8  24
ATOM     24  N   UNL     1      -1.571  10.393  16.864  0.00  0.00    +0.000 N 
ATOM     25  H   UNL     1      -1.870   9.817  16.080  0.00  0.00    +0.000 HD
ATOM     26  H   UNL     1      -0.865  11.086  16.628  0.00  0.00    +0.000 HD
ENDBRANCH   8  24
BRANCH  11  27
ATOM     27  N   UNL     1      -6.248  11.935  16.790  0.00  0.00    +0.000 N 
ATOM     28  H   UNL     1      -6.920  12.577  17.205  0.00  0.00    +0.000 HD
ATOM     29  H   UNL     1      -6.660  11.070  16.489  0.00  0.00    +0.000 HD
ENDBRANCH  11  27
TORSDOF 4
ENDMDL
MODEL 6
REMARK VINA RESULT:      -5.7      8.793     11.251
REMARK  Name = 
REMARK  7 active torsions:
REMARK  status: ('A' for Active; 'I' for Inactive)
REMARK    1  A    between atoms: C_1  and  C_2
REMARK    2  A    between atoms: C_2  and  C_3
REMARK    3  A    between atoms: C_2  and  N_4
REMARK    4  A    between atoms: C_8  and  C_9
REMARK    5  A    between atoms: C_14  and  N_15
REMARK    6  A    between atoms: C_18  and  N_19
REMARK    7  A    between atoms: N_22  and  C_23
REMARK                            x       y       z     vdW  Elec       q    Type
REMARK                         _______ _______ _______ _____ _____    ______ ____
ROOT
ATOM      1  N   UNL     1      -6.418  12.038  21.289  0.00  0.00    +0.000 NA
ATOM      2  C   UNL     1      -5.300  12.538  21.681  0.00  0.00    +0.000 C 
ATOM      3  C   UNL     1      -3.988  12.638  21.067  0.00  0.00    +0.000 A 
ATOM      4  C   UNL     1      -3.468  12.192  19.852  0.00  0.00    +0.000 A 
ATOM      5  C   UNL     1      -2.137  12.518  19.589  0.00  0.00    +0.000 A 
ATOM      6  N   UNL     1      -1.311  13.230  20.421  0.00  0.00    +0.000 NA
ATOM      7  C   UNL     1      -1.837  13.643  21.602  0.00  0.00    +0.000 A 
ATOM      8  C   UNL     1      -1.138  14.407  22.547  0.00  0.00    +0.000 A 
ATOM      9  C   UNL     1      -1.789  14.776  23.755  0.00  0.00    +0.000 A 
ATOM     10 CL   UNL     1      -0.869  15.693  24.932  0.00  0.00    +0.000 Cl
ATOM     11  C   UNL     1      -3.154  14.447  24.070  0.00  0.00    +0.000 A 
ATOM     12  C   UNL     1      -3.808  13.707  23.073  0.00  0.00    +0.000 A 
ATOM     13  C   UNL     1      -3.138  13.347  21.914  0.00  0.00    +0.000 A 
ATOM     14  N   UNL     1      -5.113  13.188  22.927  0.00  0.00    +0.000 N 
ATOM     15  C   UNL     1      -6.243  13.266  23.830  0.00  0.00    +0.000 C 
ENDROOT
BRANCH   5  16
ATOM     16  C   UNL     1      -1.568  12.092  18.270  0.00  0.00    +0.000 C 
ATOM     17  N   UNL     1      -0.833  13.031  17.604  0.00  0.00    +0.000 N 
ATOM     18  O   UNL     1      -1.759  10.976  17.799  0.00  0.00    +0.000 OA
ATOM     19  H   UNL     1      -0.691  13.947  18.012  0.00  0.00    +0.000 HD
ATOM     20  H   UNL     1      -0.452  12.805  16.698  0.00  0.00    +0.000 HD
ENDBRANCH   5  16
BRANCH   1  22
ATOM     21  C   UNL     1      -7.332  10.087  20.182  0.00  0.00    +0.000 C 
ATOM     22  C   UNL     1      -6.601  11.411  19.986  0.00  0.00    +0.000 C 
ATOM     23  C   UNL     1      -7.417  12.335  19.086  0.00  0.00    +0.000 C 
ENDBRANCH   1  22
BRANCH   8  24
ATOM     24  N   UNL     1       0.258  14.620  22.371  0.00  0.00    +0.000 N 
ATOM     25  H   UNL     1       0.772  14.457  23.235  0.00  0.00    +0.000 HD
ATOM     26  H   UNL     1       0.635  14.133  21.562  0.00  0.00    +0.000 HD
ENDBRANCH   8  24
BRANCH  11  27
ATOM     27  N   UNL     1      -3.732  14.971  25.237  0.00  0.00    +0.000 N 
ATOM     28  H   UNL     1      -3.145  14.863  26.062  0.00  0.00    +0.000 HD
ATOM     29  H   UNL     1      -4.701  14.773  25.412  0.00  0.00    +0.000 HD
ENDBRANCH  11  27
TORSDOF 4
ENDMDL
MODEL 7
REMARK VINA RESULT:      -5.6      8.105     10.985
REMARK  Name = 
REMARK  7 active torsions:
REMARK  status: ('A' for Active; 'I' for Inactive)
REMARK    1  A    between atoms: C_1  and  C_2
REMARK    2  A    between atoms: C_2  and  C_3
REMARK    3  A    between atoms: C_2  and  N_4
REMARK    4  A    between atoms: C_8  and  C_9
REMARK    5  A    between atoms: C_14  and  N_15
REMARK    6  A    between atoms: C_18  and  N_19
REMARK    7  A    between atoms: N_22  and  C_23
REMARK                            x       y       z     vdW  Elec       q    Type
REMARK                         _______ _______ _______ _____ _____    ______ ____
ROOT
ATOM      1  N   UNL     1      -0.456  13.059  21.574  0.00  0.00    +0.000 NA
ATOM      2  C   UNL     1      -1.739  12.997  21.498  0.00  0.00    +0.000 C 
ATOM      3  C   UNL     1      -2.651  12.592  20.443  0.00  0.00    +0.000 A 
ATOM      4  C   UNL     1      -2.459  12.167  19.128  0.00  0.00    +0.000 A 
ATOM      5  C   UNL     1      -3.608  11.822  18.414  0.00  0.00    +0.000 A 
ATOM      6  N   UNL     1      -4.891  11.870  18.895  0.00  0.00    +0.000 NA
ATOM      7  C   UNL     1      -5.052  12.299  20.173  0.00  0.00    +0.000 A 
ATOM      8  C   UNL     1      -6.291  12.374  20.824  0.00  0.00    +0.000 A 
ATOM      9  C   UNL     1      -6.340  12.846  22.164  0.00  0.00    +0.000 A 
ATOM     10 CL   UNL     1      -7.912  12.969  22.930  0.00  0.00    +0.000 Cl
ATOM     11  C   UNL     1      -5.182  13.225  22.929  0.00  0.00    +0.000 A 
ATOM     12  C   UNL     1      -3.970  13.100  22.232  0.00  0.00    +0.000 A 
ATOM     13  C   UNL     1      -3.959  12.654  20.919  0.00  0.00    +0.000 A 
ATOM     14  N   UNL     1      -2.616  13.328  22.561  0.00  0.00    +0.000 N 
ATOM     15  C   UNL     1      -2.035  13.794  23.802  0.00  0.00    +0.000 C 
ENDROOT
BRANCH   5  16
ATOM     16  C   UNL     1      -3.425  11.316  17.015  0.00  0.00    +0.000 C 
ATOM     17  N   UNL     1      -2.180  11.480  16.478  0.00  0.00    +0.000 N 
ATOM     18  O   UNL     1      -4.335  10.800  16.376  0.00  0.00    +0.000 OA
ATOM     19  H   UNL     1      -1.444  11.911  17.024  0.00  0.00    +0.000 HD
ATOM     20  H   UNL     1      -2.011  11.183  15.529  0.00  0.00    +0.000 HD
ENDBRANCH   5  16
BRANCH   1  22
ATOM     21  C   UNL     1       1.629  13.617  20.477  0.00  0.00    +0.000 C 
ATOM     22  C   UNL     1       0.430  12.675  20.483  0.00  0.00    +0.000 C 
ATOM     23  C   UNL     1       0.892  11.234  20.686  0.00  0.00    +0.000 C 
ENDBRANCH   1  22
BRANCH   8  24
ATOM     24  N   UNL     1      -7.483  12.174  20.073  0.00  0.00    +0.000 N 
ATOM     25  H   UNL     1      -8.307  12.193  20.670  0.00  0.00    +0.000 HD
ATOM     26  H   UNL     1      -7.544  12.778  19.257  0.00  0.00    +0.000 HD
ENDBRANCH   8  24
BRANCH  11  27
ATOM     27  N   UNL     1      -5.336  13.558  24.284  0.00  0.00    +0.000 N 
ATOM     28  H   UNL     1      -4.452  13.669  24.776  0.00  0.00    +0.000 HD
ATOM     29  H   UNL     1      -6.025  13.056  24.816  0.00  0.00    +0.000 HD
ENDBRANCH  11  27
TORSDOF 4
ENDMDL
MODEL 8
REMARK VINA RESULT:      -5.6      7.134      9.561
REMARK  Name = 
REMARK  7 active torsions:
REMARK  status: ('A' for Active; 'I' for Inactive)
REMARK    1  A    between atoms: C_1  and  C_2
REMARK    2  A    between atoms: C_2  and  C_3
REMARK    3  A    between atoms: C_2  and  N_4
REMARK    4  A    between atoms: C_8  and  C_9
REMARK    5  A    between atoms: C_14  and  N_15
REMARK    6  A    between atoms: C_18  and  N_19
REMARK    7  A    between atoms: N_22  and  C_23
REMARK                            x       y       z     vdW  Elec       q    Type
REMARK                         _______ _______ _______ _____ _____    ______ ____
ROOT
ATOM      1  N   UNL     1      -3.772  13.972  22.743  0.00  0.00    +0.000 NA
ATOM      2  C   UNL     1      -3.204  13.269  21.828  0.00  0.00    +0.000 C 
ATOM      3  C   UNL     1      -3.652  12.766  20.542  0.00  0.00    +0.000 A 
ATOM      4  C   UNL     1      -4.870  12.832  19.865  0.00  0.00    +0.000 A 
ATOM      5  C   UNL     1      -4.909  12.244  18.599  0.00  0.00    +0.000 A 
ATOM      6  N   UNL     1      -3.861  11.613  17.980  0.00  0.00    +0.000 NA
ATOM      7  C   UNL     1      -2.690  11.551  18.665  0.00  0.00    +0.000 A 
ATOM      8  C   UNL     1      -1.517  10.973  18.161  0.00  0.00    +0.000 A 
ATOM      9  C   UNL     1      -0.350  10.958  18.973  0.00  0.00    +0.000 A 
ATOM     10 CL   UNL     1       1.085  10.185  18.327  0.00  0.00    +0.000 Cl
ATOM     11  C   UNL     1      -0.273  11.539  20.287  0.00  0.00    +0.000 A 
ATOM     12  C   UNL     1      -1.471  12.128  20.722  0.00  0.00    +0.000 A 
ATOM     13  C   UNL     1      -2.596  12.108  19.914  0.00  0.00    +0.000 A 
ATOM     14  N   UNL     1      -1.862  12.815  21.892  0.00  0.00    +0.000 N 
ATOM     15  C   UNL     1      -1.091  13.136  23.075  0.00  0.00    +0.000 C 
ENDROOT
BRANCH   5  16
ATOM     16  C   UNL     1      -6.191  12.344  17.830  0.00  0.00    +0.000 C 
ATOM     17  N   UNL     1      -6.309  13.423  17.001  0.00  0.00    +0.000 N 
ATOM     18  O   UNL     1      -7.094  11.523  17.943  0.00  0.00    +0.000 OA
ATOM     19  H   UNL     1      -5.550  14.090  16.925  0.00  0.00    +0.000 HD
ATOM     20  H   UNL     1      -7.163  13.553  16.482  0.00  0.00    +0.000 HD
ENDBRANCH   5  16
BRANCH   1  22
ATOM     21  C   UNL     1      -6.025  13.639  23.568  0.00  0.00    +0.000 C 
ATOM     22  C   UNL     1      -5.139  14.465  22.640  0.00  0.00    +0.000 C 
ATOM     23  C   UNL     1      -5.182  15.937  23.042  0.00  0.00    +0.000 C 
ENDBRANCH   1  22
BRANCH   8  24
ATOM     24  N   UNL     1      -1.573  10.237  16.945  0.00  0.00    +0.000 N 
ATOM     25  H   UNL     1      -0.822   9.552  16.888  0.00  0.00    +0.000 HD
ATOM     26  H   UNL     1      -2.498   9.861  16.750  0.00  0.00    +0.000 HD
ENDBRANCH   8  24
BRANCH  11  27
ATOM     27  N   UNL     1       0.965  11.577  20.947  0.00  0.00    +0.000 N 
ATOM     28  H   UNL     1       1.739  11.838  20.339  0.00  0.00    +0.000 HD
ATOM     29  H   UNL     1       1.190  10.821  21.570  0.00  0.00    +0.000 HD
ENDBRANCH  11  27
TORSDOF 4
ENDMDL
MODEL 9
REMARK VINA RESULT:      -5.6      6.488     10.047
REMARK  Name = 
REMARK  7 active torsions:
REMARK  status: ('A' for Active; 'I' for Inactive)
REMARK    1  A    between atoms: C_1  and  C_2
REMARK    2  A    between atoms: C_2  and  C_3
REMARK    3  A    between atoms: C_2  and  N_4
REMARK    4  A    between atoms: C_8  and  C_9
REMARK    5  A    between atoms: C_14  and  N_15
REMARK    6  A    between atoms: C_18  and  N_19
REMARK    7  A    between atoms: N_22  and  C_23
REMARK                            x       y       z     vdW  Elec       q    Type
REMARK                         _______ _______ _______ _____ _____    ______ ____
ROOT
ATOM      1  N   UNL     1      -0.476  10.160  18.294  0.00  0.00    +0.000 NA
ATOM      2  C   UNL     1      -1.524  10.809  18.663  0.00  0.00    +0.000 C 
ATOM      3  C   UNL     1      -1.775  11.762  19.729  0.00  0.00    +0.000 A 
ATOM      4  C   UNL     1      -0.980  12.280  20.753  0.00  0.00    +0.000 A 
ATOM      5  C   UNL     1      -1.578  13.228  21.584  0.00  0.00    +0.000 A 
ATOM      6  N   UNL     1      -2.867  13.682  21.478  0.00  0.00    +0.000 NA
ATOM      7  C   UNL     1      -3.624  13.155  20.482  0.00  0.00    +0.000 A 
ATOM      8  C   UNL     1      -4.947  13.536  20.217  0.00  0.00    +0.000 A 
ATOM      9  C   UNL     1      -5.646  12.908  19.150  0.00  0.00    +0.000 A 
ATOM     10 CL   UNL     1      -7.313  13.377  18.878  0.00  0.00    +0.000 Cl
ATOM     11  C   UNL     1      -5.071  11.917  18.280  0.00  0.00    +0.000 A 
ATOM     12  C   UNL     1      -3.737  11.600  18.578  0.00  0.00    +0.000 A 
ATOM     13  C   UNL     1      -3.089  12.217  19.638  0.00  0.00    +0.000 A 
ATOM     14  N   UNL     1      -2.780  10.730  18.011  0.00  0.00    +0.000 N 
ATOM     15  C   UNL     1      -2.902   9.839  16.876  0.00  0.00    +0.000 C 
ENDROOT
BRANCH   5  16
ATOM     16  C   UNL     1      -0.731  13.835  22.661  0.00  0.00    +0.000 C 
ATOM     17  N   UNL     1      -1.376  14.148  23.824  0.00  0.00    +0.000 N 
ATOM     18  O   UNL     1       0.466  14.056  22.513  0.00  0.00    +0.000 OA
ATOM     19  H   UNL     1      -2.366  13.957  23.922  0.00  0.00    +0.000 HD
ATOM     20  H   UNL     1      -0.857  14.584  24.571  0.00  0.00    +0.000 HD
ENDBRANCH   5  16
BRANCH   1  22
ATOM     21  C   UNL     1       0.885   9.273  20.090  0.00  0.00    +0.000 C 
ATOM     22  C   UNL     1       0.817  10.287  18.952  0.00  0.00    +0.000 C 
ATOM     23  C   UNL     1       1.931  10.022  17.942  0.00  0.00    +0.000 C 
ENDBRANCH   1  22
BRANCH   8  24
ATOM     24  N   UNL     1      -5.623  14.383  21.139  0.00  0.00    +0.000 N 
ATOM     25  H   UNL     1      -5.892  13.878  21.981  0.00  0.00    +0.000 HD
ATOM     26  H   UNL     1      -5.129  15.254  21.314  0.00  0.00    +0.000 HD
ENDBRANCH   8  24
BRANCH  11  27
ATOM     27  N   UNL     1      -5.814  11.457  17.182  0.00  0.00    +0.000 N 
ATOM     28  H   UNL     1      -6.653  10.945  17.448  0.00  0.00    +0.000 HD
ATOM     29  H   UNL     1      -5.315  11.030  16.421  0.00  0.00    +0.000 HD
ENDBRANCH  11  27
TORSDOF 4
ENDMDL
