MODEL 1
REMARK VINA RESULT:      -8.8      0.000      0.000
REMARK  Name = 
REMARK  4 active torsions:
REMARK  status: ('A' for Active; 'I' for Inactive)
REMARK    1  A    between atoms: C_4  and  C_5
REMARK    2  A    between atoms: C_5  and  N_6
REMARK    3  A    between atoms: C_9  and  C_10
REMARK    4  A    between atoms: C_13  and  C_14
REMARK                            x       y       z     vdW  Elec       q    Type
REMARK                         _______ _______ _______ _____ _____    ______ ____
ROOT
ATOM      1  C   UNL     1       3.748   5.534  18.163  0.00  0.00    +0.000 A 
ATOM      2  N   UNL     1       3.185   4.645  18.950  0.00  0.00    +0.000 NA
ATOM      3  C   UNL     1       2.312   5.386  19.708  0.00  0.00    +0.000 A 
ATOM      4  C   UNL     1       2.373   6.717  19.351  0.00  0.00    +0.000 A 
ATOM      5  O   UNL     1       3.305   6.818  18.346  0.00  0.00    +0.000 OA
ENDROOT
BRANCH   4   6
ATOM      6  C   UNL     1       1.732   7.941  19.821  0.00  0.00    +0.000 A 
ATOM      7  C   UNL     1       1.567   9.019  18.942  0.00  0.00    +0.000 A 
ATOM      8  C   UNL     1       0.840  10.151  19.321  0.00  0.00    +0.000 A 
ATOM      9  C   UNL     1       0.264  10.238  20.593  0.00  0.00    +0.000 A 
ATOM     10  C   UNL     1      -0.545  11.328  20.949  0.00  0.00    +0.000 A 
ATOM     11  C   UNL     1      -1.115  11.408  22.219  0.00  0.00    +0.000 A 
ATOM     12  C   UNL     1      -0.850  10.416  23.160  0.00  0.00    +0.000 A 
ATOM     13  C   UNL     1      -0.053   9.322  22.816  0.00  0.00    +0.000 A 
ATOM     14  C   UNL     1       0.488   9.200  21.523  0.00  0.00    +0.000 A 
ATOM     15  C   UNL     1       1.221   8.063  21.123  0.00  0.00    +0.000 A 
ENDBRANCH   4   6
BRANCH   1  19
ATOM     16  N   UNL     1       6.309   4.770  14.880  0.00  0.00    +0.000 N 
ATOM     17  C   UNL     1       5.937   3.761  15.700  0.00  0.00    +0.000 A 
ATOM     18  C   UNL     1       5.135   4.008  16.808  0.00  0.00    +0.000 A 
ATOM     19  C   UNL     1       4.709   5.309  17.088  0.00  0.00    +0.000 A 
ATOM     20  C   UNL     1       5.181   6.342  16.278  0.00  0.00    +0.000 A 
ATOM     21  C   UNL     1       5.983   6.049  15.177  0.00  0.00    +0.000 A 
BRANCH  16  22
ATOM     22  C   UNL     1       6.960   4.462  13.583  0.00  0.00    +0.000 C 
BRANCH  22  26
ATOM     23  C   UNL     1       4.546   2.134  10.879  0.00  0.00    +0.000 A 
ATOM     24  C   UNL     1       4.034   3.299  11.441  0.00  0.00    +0.000 A 
ATOM     25  C   UNL     1       4.804   4.040  12.341  0.00  0.00    +0.000 A 
ATOM     26  C   UNL     1       6.099   3.623  12.681  0.00  0.00    +0.000 A 
ATOM     27  C   UNL     1       6.597   2.435  12.119  0.00  0.00    +0.000 A 
ATOM     28  C   UNL     1       5.823   1.699  11.220  0.00  0.00    +0.000 A 
ENDBRANCH  22  26
ENDBRANCH  16  22
ENDBRANCH   1  19
TORSDOF 4
ENDMDL
MODEL 2
REMARK VINA RESULT:      -8.6      1.262      2.098
REMARK  Name = 
REMARK  4 active torsions:
REMARK  status: ('A' for Active; 'I' for Inactive)
REMARK    1  A    between atoms: C_4  and  C_5
REMARK    2  A    between atoms: C_5  and  N_6
REMARK    3  A    between atoms: C_9  and  C_10
REMARK    4  A    between atoms: C_13  and  C_14
REMARK                            x       y       z     vdW  Elec       q    Type
REMARK                         _______ _______ _______ _____ _____    ______ ____
ROOT
ATOM      1  C   UNL     1       3.015   6.195  19.323  0.00  0.00    +0.000 A 
ATOM      2  N   UNL     1       2.471   5.441  20.252  0.00  0.00    +0.000 NA
ATOM      3  C   UNL     1       1.578   6.279  20.871  0.00  0.00    +0.000 A 
ATOM      4  C   UNL     1       1.606   7.530  20.290  0.00  0.00    +0.000 A 
ATOM      5  O   UNL     1       2.540   7.479  19.283  0.00  0.00    +0.000 OA
ENDROOT
BRANCH   4   6
ATOM      6  C   UNL     1       0.934   8.800  20.542  0.00  0.00    +0.000 A 
ATOM      7  C   UNL     1       0.837   9.749  19.517  0.00  0.00    +0.000 A 
ATOM      8  C   UNL     1       0.086  10.915  19.685  0.00  0.00    +0.000 A 
ATOM      9  C   UNL     1      -0.585  11.166  20.888  0.00  0.00    +0.000 A 
ATOM     10  C   UNL     1      -1.417  12.287  21.033  0.00  0.00    +0.000 A 
ATOM     11  C   UNL     1      -2.080  12.531  22.235  0.00  0.00    +0.000 A 
ATOM     12  C   UNL     1      -1.889  11.677  23.317  0.00  0.00    +0.000 A 
ATOM     13  C   UNL     1      -1.069  10.554  23.183  0.00  0.00    +0.000 A 
ATOM     14  C   UNL     1      -0.433  10.264  21.963  0.00  0.00    +0.000 A 
ATOM     15  C   UNL     1       0.327   9.090  21.775  0.00  0.00    +0.000 A 
ENDBRANCH   4   6
BRANCH   1  19
ATOM     16  N   UNL     1       6.038   5.237  16.518  0.00  0.00    +0.000 N 
ATOM     17  C   UNL     1       5.454   6.457  16.498  0.00  0.00    +0.000 A 
ATOM     18  C   UNL     1       4.427   6.766  17.383  0.00  0.00    +0.000 A 
ATOM     19  C   UNL     1       3.986   5.812  18.302  0.00  0.00    +0.000 A 
ATOM     20  C   UNL     1       4.544   4.535  18.242  0.00  0.00    +0.000 A 
ATOM     21  C   UNL     1       5.570   4.268  17.339  0.00  0.00    +0.000 A 
BRANCH  16  22
ATOM     22  C   UNL     1       7.278   5.002  15.739  0.00  0.00    +0.000 C 
BRANCH  22  26
ATOM     23  C   UNL     1       6.608   3.918  11.623  0.00  0.00    +0.000 A 
ATOM     24  C   UNL     1       7.582   4.859  11.945  0.00  0.00    +0.000 A 
ATOM     25  C   UNL     1       7.781   5.233  13.276  0.00  0.00    +0.000 A 
ATOM     26  C   UNL     1       7.009   4.663  14.299  0.00  0.00    +0.000 A 
ATOM     27  C   UNL     1       6.017   3.728  13.958  0.00  0.00    +0.000 A 
ATOM     28  C   UNL     1       5.824   3.357  12.626  0.00  0.00    +0.000 A 
ENDBRANCH  22  26
ENDBRANCH  16  22
ENDBRANCH   1  19
TORSDOF 4
ENDMDL
MODEL 3
REMARK VINA RESULT:      -8.5      4.681     10.933
REMARK  Name = 
REMARK  4 active torsions:
REMARK  status: ('A' for Active; 'I' for Inactive)
REMARK    1  A    between atoms: C_4  and  C_5
REMARK    2  A    between atoms: C_5  and  N_6
REMARK    3  A    between atoms: C_9  and  C_10
REMARK    4  A    between atoms: C_13  and  C_14
REMARK                            x       y       z     vdW  Elec       q    Type
REMARK                         _______ _______ _______ _____ _____    ______ ____
ROOT
ATOM      1  C   UNL     1      -0.506  11.138  18.515  0.00  0.00    +0.000 A 
ATOM      2  N   UNL     1       0.465  12.006  18.686  0.00  0.00    +0.000 NA
ATOM      3  C   UNL     1       1.588  11.223  18.788  0.00  0.00    +0.000 A 
ATOM      4  C   UNL     1       1.259   9.888  18.673  0.00  0.00    +0.000 A 
ATOM      5  O   UNL     1      -0.103   9.829  18.495  0.00  0.00    +0.000 OA
ENDROOT
BRANCH   4   6
ATOM      6  C   UNL     1       2.000   8.633  18.744  0.00  0.00    +0.000 A 
ATOM      7  C   UNL     1       1.769   7.751  19.807  0.00  0.00    +0.000 A 
ATOM      8  C   UNL     1       2.362   6.485  19.832  0.00  0.00    +0.000 A 
ATOM      9  C   UNL     1       3.207   6.071  18.796  0.00  0.00    +0.000 A 
ATOM     10  C   UNL     1       3.732   4.769  18.766  0.00  0.00    +0.000 A 
ATOM     11  C   UNL     1       4.574   4.365  17.732  0.00  0.00    +0.000 A 
ATOM     12  C   UNL     1       4.932   5.270  16.736  0.00  0.00    +0.000 A 
ATOM     13  C   UNL     1       4.411   6.566  16.751  0.00  0.00    +0.000 A 
ATOM     14  C   UNL     1       3.520   6.975  17.759  0.00  0.00    +0.000 A 
ATOM     15  C   UNL     1       2.909   8.248  17.747  0.00  0.00    +0.000 A 
ENDBRANCH   4   6
BRANCH   1  19
ATOM     16  N   UNL     1      -4.658  11.607  17.833  0.00  0.00    +0.000 N 
ATOM     17  C   UNL     1      -3.851  11.173  16.838  0.00  0.00    +0.000 A 
ATOM     18  C   UNL     1      -2.480  11.061  17.036  0.00  0.00    +0.000 A 
ATOM     19  C   UNL     1      -1.921  11.402  18.270  0.00  0.00    +0.000 A 
ATOM     20  C   UNL     1      -2.763  11.930  19.248  0.00  0.00    +0.000 A 
ATOM     21  C   UNL     1      -4.132  12.025  19.007  0.00  0.00    +0.000 A 
BRANCH  16  22
ATOM     22  C   UNL     1      -6.130  11.497  17.687  0.00  0.00    +0.000 C 
BRANCH  22  26
ATOM     23  C   UNL     1      -7.889   9.660  21.164  0.00  0.00    +0.000 A 
ATOM     24  C   UNL     1      -7.328   8.867  20.167  0.00  0.00    +0.000 A 
ATOM     25  C   UNL     1      -6.784   9.460  19.025  0.00  0.00    +0.000 A 
ATOM     26  C   UNL     1      -6.790  10.854  18.874  0.00  0.00    +0.000 A 
ATOM     27  C   UNL     1      -7.375  11.641  19.880  0.00  0.00    +0.000 A 
ATOM     28  C   UNL     1      -7.917  11.044  21.020  0.00  0.00    +0.000 A 
ENDBRANCH  22  26
ENDBRANCH  16  22
ENDBRANCH   1  19
TORSDOF 4
ENDMDL
MODEL 4
REMARK VINA RESULT:      -8.4      4.554     10.728
REMARK  Name = 
REMARK  4 active torsions:
REMARK  status: ('A' for Active; 'I' for Inactive)
REMARK    1  A    between atoms: C_4  and  C_5
REMARK    2  A    between atoms: C_5  and  N_6
REMARK    3  A    between atoms: C_9  and  C_10
REMARK    4  A    between atoms: C_13  and  C_14
REMARK                            x       y       z     vdW  Elec       q    Type
REMARK                         _______ _______ _______ _____ _____    ______ ____
ROOT
ATOM      1  C   UNL     1      -0.239  10.278  18.387  0.00  0.00    +0.000 A 
ATOM      2  N   UNL     1       0.708  10.957  18.992  0.00  0.00    +0.000 NA
ATOM      3  C   UNL     1       1.801  10.131  18.918  0.00  0.00    +0.000 A 
ATOM      4  C   UNL     1       1.479   8.962  18.261  0.00  0.00    +0.000 A 
ATOM      5  O   UNL     1       0.152   9.054  17.913  0.00  0.00    +0.000 OA
ENDROOT
BRANCH   4   6
ATOM      6  C   UNL     1       2.193   7.733  17.931  0.00  0.00    +0.000 A 
ATOM      7  C   UNL     1       3.535   7.795  17.534  0.00  0.00    +0.000 A 
ATOM      8  C   UNL     1       4.283   6.631  17.342  0.00  0.00    +0.000 A 
ATOM      9  C   UNL     1       3.706   5.370  17.534  0.00  0.00    +0.000 A 
ATOM     10  C   UNL     1       4.473   4.199  17.434  0.00  0.00    +0.000 A 
ATOM     11  C   UNL     1       3.890   2.947  17.626  0.00  0.00    +0.000 A 
ATOM     12  C   UNL     1       2.525   2.851  17.882  0.00  0.00    +0.000 A 
ATOM     13  C   UNL     1       1.752   4.009  17.991  0.00  0.00    +0.000 A 
ATOM     14  C   UNL     1       2.333   5.282  17.851  0.00  0.00    +0.000 A 
ATOM     15  C   UNL     1       1.594   6.469  18.046  0.00  0.00    +0.000 A 
ENDBRANCH   4   6
BRANCH   1  19
ATOM     16  N   UNL     1      -4.300  11.225  17.651  0.00  0.00    +0.000 N 
ATOM     17  C   UNL     1      -3.623  10.424  16.796  0.00  0.00    +0.000 A 
ATOM     18  C   UNL     1      -2.277  10.145  17.001  0.00  0.00    +0.000 A 
ATOM     19  C   UNL     1      -1.608  10.697  18.097  0.00  0.00    +0.000 A 
ATOM     20  C   UNL     1      -2.306  11.589  18.911  0.00  0.00    +0.000 A 
ATOM     21  C   UNL     1      -3.654  11.840  18.668  0.00  0.00    +0.000 A 
BRANCH  16  22
ATOM     22  C   UNL     1      -5.777  11.323  17.554  0.00  0.00    +0.000 C 
BRANCH  22  26
ATOM     23  C   UNL     1      -7.917   9.943  21.029  0.00  0.00    +0.000 A 
ATOM     24  C   UNL     1      -7.727  11.306  20.825  0.00  0.00    +0.000 A 
ATOM     25  C   UNL     1      -7.009  11.754  19.715  0.00  0.00    +0.000 A 
ATOM     26  C   UNL     1      -6.478  10.840  18.793  0.00  0.00    +0.000 A 
ATOM     27  C   UNL     1      -6.661   9.466  19.021  0.00  0.00    +0.000 A 
ATOM     28  C   UNL     1      -7.381   9.023  20.132  0.00  0.00    +0.000 A 
ENDBRANCH  22  26
ENDBRANCH  16  22
ENDBRANCH   1  19
TORSDOF 4
ENDMDL
MODEL 5
REMARK VINA RESULT:      -8.4      4.099      6.683
REMARK  Name = 
REMARK  4 active torsions:
REMARK  status: ('A' for Active; 'I' for Inactive)
REMARK    1  A    between atoms: C_4  and  C_5
REMARK    2  A    between atoms: C_5  and  N_6
REMARK    3  A    between atoms: C_9  and  C_10
REMARK    4  A    between atoms: C_13  and  C_14
REMARK                            x       y       z     vdW  Elec       q    Type
REMARK                         _______ _______ _______ _____ _____    ______ ____
ROOT
ATOM      1  C   UNL     1       0.507  10.163  19.527  0.00  0.00    +0.000 A 
ATOM      2  N   UNL     1       0.622  11.033  20.505  0.00  0.00    +0.000 NA
ATOM      3  C   UNL     1      -0.560  11.729  20.463  0.00  0.00    +0.000 A 
ATOM      4  C   UNL     1      -1.365  11.254  19.449  0.00  0.00    +0.000 A 
ATOM      5  O   UNL     1      -0.675  10.235  18.838  0.00  0.00    +0.000 OA
ENDROOT
BRANCH   4   6
ATOM      6  C   UNL     1      -2.673  11.619  18.913  0.00  0.00    +0.000 A 
ATOM      7  C   UNL     1      -3.014  11.249  17.606  0.00  0.00    +0.000 A 
ATOM      8  C   UNL     1      -4.303  11.465  17.111  0.00  0.00    +0.000 A 
ATOM      9  C   UNL     1      -5.285  12.063  17.909  0.00  0.00    +0.000 A 
ATOM     10  C   UNL     1      -6.606  12.198  17.454  0.00  0.00    +0.000 A 
ATOM     11  C   UNL     1      -7.577  12.796  18.256  0.00  0.00    +0.000 A 
ATOM     12  C   UNL     1      -7.229  13.299  19.506  0.00  0.00    +0.000 A 
ATOM     13  C   UNL     1      -5.920  13.165  19.974  0.00  0.00    +0.000 A 
ATOM     14  C   UNL     1      -4.939  12.519  19.200  0.00  0.00    +0.000 A 
ATOM     15  C   UNL     1      -3.634  12.289  19.685  0.00  0.00    +0.000 A 
ENDBRANCH   4   6
BRANCH   1  19
ATOM     16  N   UNL     1       2.961   6.908  18.386  0.00  0.00    +0.000 N 
ATOM     17  C   UNL     1       2.453   6.969  19.638  0.00  0.00    +0.000 A 
ATOM     18  C   UNL     1       1.686   8.057  20.038  0.00  0.00    +0.000 A 
ATOM     19  C   UNL     1       1.436   9.103  19.147  0.00  0.00    +0.000 A 
ATOM     20  C   UNL     1       2.045   9.056  17.893  0.00  0.00    +0.000 A 
ATOM     21  C   UNL     1       2.807   7.947  17.533  0.00  0.00    +0.000 A 
BRANCH  16  22
ATOM     22  C   UNL     1       3.572   5.646  17.901  0.00  0.00    +0.000 C 
BRANCH  22  26
ATOM     23  C   UNL     1       1.551   2.220  19.554  0.00  0.00    +0.000 A 
ATOM     24  C   UNL     1       2.819   2.567  20.011  0.00  0.00    +0.000 A 
ATOM     25  C   UNL     1       3.488   3.660  19.456  0.00  0.00    +0.000 A 
ATOM     26  C   UNL     1       2.890   4.420  18.440  0.00  0.00    +0.000 A 
ATOM     27  C   UNL     1       1.617   4.048  17.977  0.00  0.00    +0.000 A 
ATOM     28  C   UNL     1       0.952   2.956  18.536  0.00  0.00    +0.000 A 
ENDBRANCH  22  26
ENDBRANCH  16  22
ENDBRANCH   1  19
TORSDOF 4
ENDMDL
MODEL 6
REMARK VINA RESULT:      -8.3      4.259      6.442
REMARK  Name = 
REMARK  4 active torsions:
REMARK  status: ('A' for Active; 'I' for Inactive)
REMARK    1  A    between atoms: C_4  and  C_5
REMARK    2  A    between atoms: C_5  and  N_6
REMARK    3  A    between atoms: C_9  and  C_10
REMARK    4  A    between atoms: C_13  and  C_14
REMARK                            x       y       z     vdW  Elec       q    Type
REMARK                         _______ _______ _______ _____ _____    ______ ____
ROOT
ATOM      1  C   UNL     1       0.737  10.682  19.384  0.00  0.00    +0.000 A 
ATOM      2  N   UNL     1       1.237  11.875  19.154  0.00  0.00    +0.000 NA
ATOM      3  C   UNL     1       0.299  12.729  19.676  0.00  0.00    +0.000 A 
ATOM      4  C   UNL     1      -0.755  12.019  20.214  0.00  0.00    +0.000 A 
ATOM      5  O   UNL     1      -0.473  10.687  20.026  0.00  0.00    +0.000 OA
ENDROOT
BRANCH   4   6
ATOM      6  C   UNL     1      -2.021  12.373  20.846  0.00  0.00    +0.000 A 
ATOM      7  C   UNL     1      -3.108  12.762  20.053  0.00  0.00    +0.000 A 
ATOM      8  C   UNL     1      -4.369  12.976  20.616  0.00  0.00    +0.000 A 
ATOM      9  C   UNL     1      -4.575  12.814  21.991  0.00  0.00    +0.000 A 
ATOM     10  C   UNL     1      -5.856  12.936  22.552  0.00  0.00    +0.000 A 
ATOM     11  C   UNL     1      -6.052  12.774  23.922  0.00  0.00    +0.000 A 
ATOM     12  C   UNL     1      -4.963  12.526  24.753  0.00  0.00    +0.000 A 
ATOM     13  C   UNL     1      -3.684  12.395  24.207  0.00  0.00    +0.000 A 
ATOM     14  C   UNL     1      -3.475  12.505  22.821  0.00  0.00    +0.000 A 
ATOM     15  C   UNL     1      -2.210  12.288  22.235  0.00  0.00    +0.000 A 
ENDBRANCH   4   6
BRANCH   1  19
ATOM     16  N   UNL     1       2.757   7.043  18.609  0.00  0.00    +0.000 N 
ATOM     17  C   UNL     1       2.578   7.945  17.618  0.00  0.00    +0.000 A 
ATOM     18  C   UNL     1       1.875   9.122  17.848  0.00  0.00    +0.000 A 
ATOM     19  C   UNL     1       1.340   9.380  19.113  0.00  0.00    +0.000 A 
ATOM     20  C   UNL     1       1.463   8.394  20.092  0.00  0.00    +0.000 A 
ATOM     21  C   UNL     1       2.176   7.230  19.817  0.00  0.00    +0.000 A 
BRANCH  16  22
ATOM     22  C   UNL     1       3.702   5.915  18.416  0.00  0.00    +0.000 C 
BRANCH  22  26
ATOM     23  C   UNL     1       1.839   2.147  19.358  0.00  0.00    +0.000 A 
ATOM     24  C   UNL     1       2.980   2.551  20.046  0.00  0.00    +0.000 A 
ATOM     25  C   UNL     1       3.602   3.758  19.723  0.00  0.00    +0.000 A 
ATOM     26  C   UNL     1       3.083   4.577  18.709  0.00  0.00    +0.000 A 
ATOM     27  C   UNL     1       1.942   4.149  18.010  0.00  0.00    +0.000 A 
ATOM     28  C   UNL     1       1.323   2.942  18.339  0.00  0.00    +0.000 A 
ENDBRANCH  22  26
ENDBRANCH  16  22
ENDBRANCH   1  19
TORSDOF 4
ENDMDL
MODEL 7
REMARK VINA RESULT:      -8.3      4.315     10.939
REMARK  Name = 
REMARK  4 active torsions:
REMARK  status: ('A' for Active; 'I' for Inactive)
REMARK    1  A    between atoms: C_4  and  C_5
REMARK    2  A    between atoms: C_5  and  N_6
REMARK    3  A    between atoms: C_9  and  C_10
REMARK    4  A    between atoms: C_13  and  C_14
REMARK                            x       y       z     vdW  Elec       q    Type
REMARK                         _______ _______ _______ _____ _____    ______ ____
ROOT
ATOM      1  C   UNL     1       0.165  10.077  18.242  0.00  0.00    +0.000 A 
ATOM      2  N   UNL     1       1.214  10.860  18.356  0.00  0.00    +0.000 NA
ATOM      3  C   UNL     1       2.276  10.009  18.181  0.00  0.00    +0.000 A 
ATOM      4  C   UNL     1       1.833   8.721  17.962  0.00  0.00    +0.000 A 
ATOM      5  O   UNL     1       0.460   8.761  18.001  0.00  0.00    +0.000 OA
ENDROOT
BRANCH   4   6
ATOM      6  C   UNL     1       2.478   7.428  17.761  0.00  0.00    +0.000 A 
ATOM      7  C   UNL     1       3.850   7.372  17.482  0.00  0.00    +0.000 A 
ATOM      8  C   UNL     1       4.522   6.149  17.418  0.00  0.00    +0.000 A 
ATOM      9  C   UNL     1       3.837   4.945  17.623  0.00  0.00    +0.000 A 
ATOM     10  C   UNL     1       4.520   3.719  17.653  0.00  0.00    +0.000 A 
ATOM     11  C   UNL     1       3.830   2.525  17.856  0.00  0.00    +0.000 A 
ATOM     12  C   UNL     1       2.445   2.541  17.995  0.00  0.00    +0.000 A 
ATOM     13  C   UNL     1       1.755   3.754  17.975  0.00  0.00    +0.000 A 
ATOM     14  C   UNL     1       2.440   4.973  17.821  0.00  0.00    +0.000 A 
ATOM     15  C   UNL     1       1.778   6.218  17.888  0.00  0.00    +0.000 A 
ENDBRANCH   4   6
BRANCH   1  19
ATOM     16  N   UNL     1      -3.853  11.408  18.158  0.00  0.00    +0.000 N 
ATOM     17  C   UNL     1      -2.988  11.918  19.064  0.00  0.00    +0.000 A 
ATOM     18  C   UNL     1      -1.679  11.455  19.132  0.00  0.00    +0.000 A 
ATOM     19  C   UNL     1      -1.247  10.449  18.264  0.00  0.00    +0.000 A 
ATOM     20  C   UNL     1      -2.184   9.879  17.402  0.00  0.00    +0.000 A 
ATOM     21  C   UNL     1      -3.485  10.374  17.367  0.00  0.00    +0.000 A 
BRANCH  16  22
ATOM     22  C   UNL     1      -5.163  12.070  17.939  0.00  0.00    +0.000 C 
BRANCH  22  26
ATOM     23  C   UNL     1      -7.815  11.387  21.264  0.00  0.00    +0.000 A 
ATOM     24  C   UNL     1      -7.505  10.344  20.396  0.00  0.00    +0.000 A 
ATOM     25  C   UNL     1      -6.670  10.571  19.300  0.00  0.00    +0.000 A 
ATOM     26  C   UNL     1      -6.129  11.844  19.068  0.00  0.00    +0.000 A 
ATOM     27  C   UNL     1      -6.465  12.891  19.942  0.00  0.00    +0.000 A 
ATOM     28  C   UNL     1      -7.300  12.659  21.037  0.00  0.00    +0.000 A 
ENDBRANCH  22  26
ENDBRANCH  16  22
ENDBRANCH   1  19
TORSDOF 4
ENDMDL
MODEL 8
REMARK VINA RESULT:      -8.3      3.770      6.223
REMARK  Name = 
REMARK  4 active torsions:
REMARK  status: ('A' for Active; 'I' for Inactive)
REMARK    1  A    between atoms: C_4  and  C_5
REMARK    2  A    between atoms: C_5  and  N_6
REMARK    3  A    between atoms: C_9  and  C_10
REMARK    4  A    between atoms: C_13  and  C_14
REMARK                            x       y       z     vdW  Elec       q    Type
REMARK                         _______ _______ _______ _____ _____    ______ ____
ROOT
ATOM      1  C   UNL     1       0.761  10.159  19.204  0.00  0.00    +0.000 A 
ATOM      2  N   UNL     1       1.104  11.303  19.752  0.00  0.00    +0.000 NA
ATOM      3  C   UNL     1      -0.043  12.053  19.686  0.00  0.00    +0.000 A 
ATOM      4  C   UNL     1      -1.059  11.332  19.094  0.00  0.00    +0.000 A 
ATOM      5  O   UNL     1      -0.539  10.099  18.779  0.00  0.00    +0.000 OA
ENDROOT
BRANCH   4   6
ATOM      6  C   UNL     1      -2.443  11.611  18.724  0.00  0.00    +0.000 A 
ATOM      7  C   UNL     1      -2.909  11.245  17.456  0.00  0.00    +0.000 A 
ATOM      8  C   UNL     1      -4.260  11.376  17.121  0.00  0.00    +0.000 A 
ATOM      9  C   UNL     1      -5.180  11.884  18.046  0.00  0.00    +0.000 A 
ATOM     10  C   UNL     1      -6.551  11.932  17.752  0.00  0.00    +0.000 A 
ATOM     11  C   UNL     1      -7.461  12.441  18.678  0.00  0.00    +0.000 A 
ATOM     12  C   UNL     1      -7.004  12.942  19.893  0.00  0.00    +0.000 A 
ATOM     13  C   UNL     1      -5.642  12.894  20.201  0.00  0.00    +0.000 A 
ATOM     14  C   UNL     1      -4.717  12.338  19.300  0.00  0.00    +0.000 A 
ATOM     15  C   UNL     1      -3.350  12.194  19.623  0.00  0.00    +0.000 A 
ENDBRANCH   4   6
BRANCH   1  19
ATOM     16  N   UNL     1       2.825   6.486  18.789  0.00  0.00    +0.000 N 
ATOM     17  C   UNL     1       2.272   6.824  19.976  0.00  0.00    +0.000 A 
ATOM     18  C   UNL     1       1.634   8.048  20.137  0.00  0.00    +0.000 A 
ATOM     19  C   UNL     1       1.562   8.946  19.069  0.00  0.00    +0.000 A 
ATOM     20  C   UNL     1       2.217   8.610  17.884  0.00  0.00    +0.000 A 
ATOM     21  C   UNL     1       2.845   7.372  17.766  0.00  0.00    +0.000 A 
BRANCH  16  22
ATOM     22  C   UNL     1       3.290   5.095  18.563  0.00  0.00    +0.000 C 
BRANCH  22  26
ATOM     23  C   UNL     1       7.398   4.746  17.314  0.00  0.00    +0.000 A 
ATOM     24  C   UNL     1       7.095   5.241  18.579  0.00  0.00    +0.000 A 
ATOM     25  C   UNL     1       5.764   5.383  18.974  0.00  0.00    +0.000 A 
ATOM     26  C   UNL     1       4.721   5.023  18.108  0.00  0.00    +0.000 A 
ATOM     27  C   UNL     1       5.040   4.541  16.828  0.00  0.00    +0.000 A 
ATOM     28  C   UNL     1       6.374   4.400  16.438  0.00  0.00    +0.000 A 
ENDBRANCH  22  26
ENDBRANCH  16  22
ENDBRANCH   1  19
TORSDOF 4
ENDMDL
MODEL 9
REMARK VINA RESULT:      -8.3      4.492      6.851
REMARK  Name = 
REMARK  4 active torsions:
REMARK  status: ('A' for Active; 'I' for Inactive)
REMARK    1  A    between atoms: C_4  and  C_5
REMARK    2  A    between atoms: C_5  and  N_6
REMARK    3  A    between atoms: C_9  and  C_10
REMARK    4  A    between atoms: C_13  and  C_14
REMARK                            x       y       z     vdW  Elec       q    Type
REMARK                         _______ _______ _______ _____ _____    ______ ____
ROOT
ATOM      1  C   UNL     1       0.756  10.472  18.726  0.00  0.00    +0.000 A 
ATOM      2  N   UNL     1       1.112  11.725  18.899  0.00  0.00    +0.000 NA
ATOM      3  C   UNL     1      -0.076  12.410  18.856  0.00  0.00    +0.000 A 
ATOM      4  C   UNL     1      -1.128  11.541  18.656  0.00  0.00    +0.000 A 
ATOM      5  O   UNL     1      -0.591  10.279  18.572  0.00  0.00    +0.000 OA
ENDROOT
BRANCH   4   6
ATOM      6  C   UNL     1      -2.570  11.688  18.486  0.00  0.00    +0.000 A 
ATOM      7  C   UNL     1      -3.185  11.203  17.325  0.00  0.00    +0.000 A 
ATOM      8  C   UNL     1      -4.575  11.208  17.191  0.00  0.00    +0.000 A 
ATOM      9  C   UNL     1      -5.390  11.706  18.215  0.00  0.00    +0.000 A 
ATOM     10  C   UNL     1      -6.789  11.630  18.129  0.00  0.00    +0.000 A 
ATOM     11  C   UNL     1      -7.593  12.129  19.153  0.00  0.00    +0.000 A 
ATOM     12  C   UNL     1      -7.008  12.745  20.255  0.00  0.00    +0.000 A 
ATOM     13  C   UNL     1      -5.617  12.821  20.356  0.00  0.00    +0.000 A 
ATOM     14  C   UNL     1      -4.789  12.277  19.357  0.00  0.00    +0.000 A 
ATOM     15  C   UNL     1      -3.383  12.260  19.477  0.00  0.00    +0.000 A 
ENDBRANCH   4   6
BRANCH   1  19
ATOM     16  N   UNL     1       2.954   6.853  18.767  0.00  0.00    +0.000 N 
ATOM     17  C   UNL     1       2.251   7.233  19.858  0.00  0.00    +0.000 A 
ATOM     18  C   UNL     1       1.565   8.442  19.873  0.00  0.00    +0.000 A 
ATOM     19  C   UNL     1       1.600   9.280  18.756  0.00  0.00    +0.000 A 
ATOM     20  C   UNL     1       2.404   8.905  17.679  0.00  0.00    +0.000 A 
ATOM     21  C   UNL     1       3.075   7.685  17.707  0.00  0.00    +0.000 A 
BRANCH  16  22
ATOM     22  C   UNL     1       3.480   5.469  18.677  0.00  0.00    +0.000 C 
BRANCH  22  26
ATOM     23  C   UNL     1       0.787   2.408  20.069  0.00  0.00    +0.000 A 
ATOM     24  C   UNL     1       0.777   2.787  18.730  0.00  0.00    +0.000 A 
ATOM     25  C   UNL     1       1.628   3.799  18.283  0.00  0.00    +0.000 A 
ATOM     26  C   UNL     1       2.504   4.439  19.172  0.00  0.00    +0.000 A 
ATOM     27  C   UNL     1       2.492   4.058  20.525  0.00  0.00    +0.000 A 
ATOM     28  C   UNL     1       1.640   3.044  20.967  0.00  0.00    +0.000 A 
ENDBRANCH  22  26
ENDBRANCH  16  22
ENDBRANCH   1  19
TORSDOF 4
ENDMDL
