MODEL 1
REMARK VINA RESULT:      -8.4      0.000      0.000
REMARK  Name = 
REMARK  3 active torsions:
REMARK  status: ('A' for Active; 'I' for Inactive)
REMARK    1  A    between atoms: C_1  and  C_2
REMARK    2  A    between atoms: C_2  and  C_3
REMARK    3  A    between atoms: C_16  and  C_17
REMARK                            x       y       z     vdW  Elec       q    Type
REMARK                         _______ _______ _______ _____ _____    ______ ____
ROOT
ATOM      1  C   UNL     1       1.510   3.691  21.011  0.00  0.00    +0.000 C 
ATOM      2  C   UNL     1       2.426   4.532  20.103  0.00  0.00    +0.000 C 
ATOM      3  C   UNL     1       3.829   3.867  20.142  0.00  0.00    +0.000 C 
ATOM      4  C   UNL     1       1.915   4.532  18.639  0.00  0.00    +0.000 C 
ATOM      5  C   UNL     1       2.885   5.424  17.872  0.00  0.00    +0.000 A 
ATOM      6  C   UNL     1       2.979   6.745  18.366  0.00  0.00    +0.000 A 
ATOM      7  C   UNL     1       3.885   7.656  17.813  0.00  0.00    +0.000 A 
ATOM      8  C   UNL     1       4.804   7.219  16.865  0.00  0.00    +0.000 A 
ATOM      9  C   UNL     1       4.878   5.858  16.536  0.00  0.00    +0.000 A 
ATOM     10  C   UNL     1       6.009   5.388  15.860  0.00  0.00    +0.000 A 
ATOM     11  C   UNL     1       6.208   4.024  15.686  0.00  0.00    +0.000 A 
ATOM     12  C   UNL     1       5.223   3.138  16.069  0.00  0.00    +0.000 A 
ATOM     13  C   UNL     1       4.050   3.591  16.676  0.00  0.00    +0.000 A 
ATOM     14  C   UNL     1       3.884   4.954  16.986  0.00  0.00    +0.000 A 
ATOM     15  C   UNL     1       2.300   7.031  19.670  0.00  0.00    +0.000 C 
ATOM     16  C   UNL     1       1.679   8.224  19.720  0.00  0.00    +0.000 C 
ATOM     17  N   UNL     1       2.417   5.965  20.593  0.00  0.00    +0.000 N 
ATOM     18  H   UNL     1       3.255   6.128  21.155  0.00  0.00    +0.000 HD
ENDROOT
BRANCH  16  19
ATOM     19  C   UNL     1       0.889   8.955  20.751  0.00  0.00    +0.000 C 
ATOM     20  O   UNL     1       0.786   8.520  21.894  0.00  0.00    +0.000 OA
ATOM     21  N   UNL     1       0.355  10.207  20.355  0.00  0.00    +0.000 N 
ATOM     22  C   UNL     1      -0.166  11.105  21.391  0.00  0.00    +0.000 C 
ATOM     23  C   UNL     1      -1.446  11.818  20.948  0.00  0.00    +0.000 C 
ATOM     24  C   UNL     1      -1.274  12.530  19.609  0.00  0.00    +0.000 C 
ATOM     25  C   UNL     1      -0.725  11.572  18.565  0.00  0.00    +0.000 C 
ATOM     26  C   UNL     1       0.535  10.859  19.045  0.00  0.00    +0.000 C 
ENDBRANCH  16  19
TORSDOF 1
ENDMDL
MODEL 2
REMARK VINA RESULT:      -8.1      3.593      7.754
REMARK  Name = 
REMARK  3 active torsions:
REMARK  status: ('A' for Active; 'I' for Inactive)
REMARK    1  A    between atoms: C_1  and  C_2
REMARK    2  A    between atoms: C_2  and  C_3
REMARK    3  A    between atoms: C_16  and  C_17
REMARK                            x       y       z     vdW  Elec       q    Type
REMARK                         _______ _______ _______ _____ _____    ______ ____
ROOT
ATOM      1  C   UNL     1       2.434   7.832  17.468  0.00  0.00    +0.000 C 
ATOM      2  C   UNL     1       2.972   6.582  18.189  0.00  0.00    +0.000 C 
ATOM      3  C   UNL     1       2.690   6.781  19.703  0.00  0.00    +0.000 C 
ATOM      4  C   UNL     1       2.241   5.301  17.710  0.00  0.00    +0.000 C 
ATOM      5  C   UNL     1       2.895   4.153  18.470  0.00  0.00    +0.000 A 
ATOM      6  C   UNL     1       4.289   4.037  18.265  0.00  0.00    +0.000 A 
ATOM      7  C   UNL     1       5.038   3.079  18.956  0.00  0.00    +0.000 A 
ATOM      8  C   UNL     1       4.435   2.330  19.961  0.00  0.00    +0.000 A 
ATOM      9  C   UNL     1       3.111   2.599  20.336  0.00  0.00    +0.000 A 
ATOM     10  C   UNL     1       2.640   2.092  21.552  0.00  0.00    +0.000 A 
ATOM     11  C   UNL     1       1.404   2.493  22.047  0.00  0.00    +0.000 A 
ATOM     12  C   UNL     1       0.588   3.293  21.277  0.00  0.00    +0.000 A 
ATOM     13  C   UNL     1       1.007   3.747  20.025  0.00  0.00    +0.000 A 
ATOM     14  C   UNL     1       2.306   3.468  19.559  0.00  0.00    +0.000 A 
ATOM     15  C   UNL     1       4.960   5.150  17.523  0.00  0.00    +0.000 C 
ATOM     16  C   UNL     1       5.906   4.746  16.654  0.00  0.00    +0.000 C 
ATOM     17  N   UNL     1       4.442   6.423  17.858  0.00  0.00    +0.000 N 
ATOM     18  H   UNL     1       4.997   6.793  18.633  0.00  0.00    +0.000 HD
ENDROOT
BRANCH  16  19
ATOM     19  C   UNL     1       6.830   5.435  15.709  0.00  0.00    +0.000 C 
ATOM     20  O   UNL     1       7.477   6.417  16.062  0.00  0.00    +0.000 OA
ATOM     21  N   UNL     1       6.977   4.835  14.433  0.00  0.00    +0.000 N 
ATOM     22  C   UNL     1       8.081   5.280  13.575  0.00  0.00    +0.000 C 
ATOM     23  C   UNL     1       7.665   5.384  12.106  0.00  0.00    +0.000 C 
ATOM     24  C   UNL     1       7.028   4.094  11.595  0.00  0.00    +0.000 C 
ATOM     25  C   UNL     1       5.896   3.662  12.514  0.00  0.00    +0.000 C 
ATOM     26  C   UNL     1       6.334   3.592  13.973  0.00  0.00    +0.000 C 
ENDBRANCH  16  19
TORSDOF 1
ENDMDL
MODEL 3
REMARK VINA RESULT:      -7.2      2.950      5.856
REMARK  Name = 
REMARK  3 active torsions:
REMARK  status: ('A' for Active; 'I' for Inactive)
REMARK    1  A    between atoms: C_1  and  C_2
REMARK    2  A    between atoms: C_2  and  C_3
REMARK    3  A    between atoms: C_16  and  C_17
REMARK                            x       y       z     vdW  Elec       q    Type
REMARK                         _______ _______ _______ _____ _____    ______ ____
ROOT
ATOM      1  C   UNL     1      -1.329  12.456  17.854  0.00  0.00    +0.000 C 
ATOM      2  C   UNL     1      -0.830  11.237  18.654  0.00  0.00    +0.000 C 
ATOM      3  C   UNL     1      -1.015   9.996  17.740  0.00  0.00    +0.000 C 
ATOM      4  C   UNL     1       0.674  11.377  19.005  0.00  0.00    +0.000 C 
ATOM      5  C   UNL     1       1.017  10.134  19.819  0.00  0.00    +0.000 A 
ATOM      6  C   UNL     1       0.244   9.972  20.991  0.00  0.00    +0.000 A 
ATOM      7  C   UNL     1       0.392   8.839  21.798  0.00  0.00    +0.000 A 
ATOM      8  C   UNL     1       1.200   7.792  21.368  0.00  0.00    +0.000 A 
ATOM      9  C   UNL     1       1.789   7.838  20.096  0.00  0.00    +0.000 A 
ATOM     10  C   UNL     1       2.301   6.657  19.547  0.00  0.00    +0.000 A 
ATOM     11  C   UNL     1       2.716   6.622  18.222  0.00  0.00    +0.000 A 
ATOM     12  C   UNL     1       2.742   7.786  17.484  0.00  0.00    +0.000 A 
ATOM     13  C   UNL     1       2.309   8.993  18.037  0.00  0.00    +0.000 A 
ATOM     14  C   UNL     1       1.756   9.031  19.332  0.00  0.00    +0.000 A 
ATOM     15  C   UNL     1      -0.922  10.895  21.168  0.00  0.00    +0.000 C 
ATOM     16  C   UNL     1      -1.096  11.332  22.429  0.00  0.00    +0.000 C 
ATOM     17  N   UNL     1      -1.601  11.158  19.955  0.00  0.00    +0.000 N 
ATOM     18  H   UNL     1      -2.345  10.464  19.856  0.00  0.00    +0.000 HD
ENDROOT
BRANCH  16  19
ATOM     19  C   UNL     1      -2.073  12.232  23.105  0.00  0.00    +0.000 C 
ATOM     20  O   UNL     1      -3.078  11.781  23.645  0.00  0.00    +0.000 OA
ATOM     21  N   UNL     1      -1.722  13.604  23.159  0.00  0.00    +0.000 N 
ATOM     22  C   UNL     1      -2.477  14.485  24.057  0.00  0.00    +0.000 C 
ATOM     23  C   UNL     1      -2.748  15.855  23.432  0.00  0.00    +0.000 C 
ATOM     24  C   UNL     1      -1.470  16.518  22.923  0.00  0.00    +0.000 C 
ATOM     25  C   UNL     1      -0.713  15.574  22.004  0.00  0.00    +0.000 C 
ATOM     26  C   UNL     1      -0.481  14.210  22.645  0.00  0.00    +0.000 C 
ENDBRANCH  16  19
TORSDOF 1
ENDMDL
MODEL 4
REMARK VINA RESULT:      -7.2      8.778     10.408
REMARK  Name = 
REMARK  3 active torsions:
REMARK  status: ('A' for Active; 'I' for Inactive)
REMARK    1  A    between atoms: C_1  and  C_2
REMARK    2  A    between atoms: C_2  and  C_3
REMARK    3  A    between atoms: C_16  and  C_17
REMARK                            x       y       z     vdW  Elec       q    Type
REMARK                         _______ _______ _______ _____ _____    ______ ____
ROOT
ATOM      1  C   UNL     1       8.050  16.434  22.158  0.00  0.00    +0.000 C 
ATOM      2  C   UNL     1       8.445  15.114  21.469  0.00  0.00    +0.000 C 
ATOM      3  C   UNL     1       8.417  15.381  19.940  0.00  0.00    +0.000 C 
ATOM      4  C   UNL     1       9.877  14.679  21.873  0.00  0.00    +0.000 C 
ATOM      5  C   UNL     1      10.115  13.355  21.155  0.00  0.00    +0.000 A 
ATOM      6  C   UNL     1       9.180  12.343  21.471  0.00  0.00    +0.000 A 
ATOM      7  C   UNL     1       9.225  11.099  20.833  0.00  0.00    +0.000 A 
ATOM      8  C   UNL     1      10.105  10.903  19.774  0.00  0.00    +0.000 A 
ATOM      9  C   UNL     1      10.875  11.973  19.296  0.00  0.00    +0.000 A 
ATOM     10  C   UNL     1      11.481  11.858  18.040  0.00  0.00    +0.000 A 
ATOM     11  C   UNL     1      12.089  12.960  17.451  0.00  0.00    +0.000 A 
ATOM     12  C   UNL     1      12.205  14.135  18.162  0.00  0.00    +0.000 A 
ATOM     13  C   UNL     1      11.676  14.249  19.448  0.00  0.00    +0.000 A 
ATOM     14  C   UNL     1      10.937  13.192  20.015  0.00  0.00    +0.000 A 
ATOM     15  C   UNL     1       7.986  12.751  22.278  0.00  0.00    +0.000 C 
ATOM     16  C   UNL     1       7.620  11.858  23.216  0.00  0.00    +0.000 C 
ATOM     17  N   UNL     1       7.490  14.026  21.916  0.00  0.00    +0.000 N 
ATOM     18  H   UNL     1       6.780  13.891  21.193  0.00  0.00    +0.000 HD
ENDROOT
BRANCH  16  19
ATOM     19  C   UNL     1       6.539  11.792  24.240  0.00  0.00    +0.000 C 
ATOM     20  O   UNL     1       5.443  11.309  23.971  0.00  0.00    +0.000 OA
ATOM     21  N   UNL     1       6.887  12.230  25.542  0.00  0.00    +0.000 N 
ATOM     22  C   UNL     1       5.980  11.915  26.652  0.00  0.00    +0.000 C 
ATOM     23  C   UNL     1       5.851  13.076  27.640  0.00  0.00    +0.000 C 
ATOM     24  C   UNL     1       7.210  13.566  28.135  0.00  0.00    +0.000 C 
ATOM     25  C   UNL     1       8.122  13.873  26.958  0.00  0.00    +0.000 C 
ATOM     26  C   UNL     1       8.211  12.708  25.979  0.00  0.00    +0.000 C 
ENDBRANCH  16  19
TORSDOF 1
ENDMDL
MODEL 5
REMARK VINA RESULT:      -7.1      2.085      7.782
REMARK  Name = 
REMARK  3 active torsions:
REMARK  status: ('A' for Active; 'I' for Inactive)
REMARK    1  A    between atoms: C_1  and  C_2
REMARK    2  A    between atoms: C_2  and  C_3
REMARK    3  A    between atoms: C_16  and  C_17
REMARK                            x       y       z     vdW  Elec       q    Type
REMARK                         _______ _______ _______ _____ _____    ______ ____
ROOT
ATOM      1  C   UNL     1       1.892   9.276  22.576  0.00  0.00    +0.000 C 
ATOM      2  C   UNL     1       0.946   9.403  21.367  0.00  0.00    +0.000 C 
ATOM      3  C   UNL     1      -0.499   9.238  21.911  0.00  0.00    +0.000 C 
ATOM      4  C   UNL     1       1.072  10.798  20.702  0.00  0.00    +0.000 C 
ATOM      5  C   UNL     1       0.119  10.767  19.513  0.00  0.00    +0.000 A 
ATOM      6  C   UNL     1       0.387   9.742  18.576  0.00  0.00    +0.000 A 
ATOM      7  C   UNL     1      -0.449   9.541  17.473  0.00  0.00    +0.000 A 
ATOM      8  C   UNL     1      -1.636  10.259  17.373  0.00  0.00    +0.000 A 
ATOM      9  C   UNL     1      -2.031  11.110  18.415  0.00  0.00    +0.000 A 
ATOM     10  C   UNL     1      -3.359  11.547  18.462  0.00  0.00    +0.000 A 
ATOM     11  C   UNL     1      -3.834  12.231  19.575  0.00  0.00    +0.000 A 
ATOM     12  C   UNL     1      -2.961  12.589  20.579  0.00  0.00    +0.000 A 
ATOM     13  C   UNL     1      -1.613  12.231  20.516  0.00  0.00    +0.000 A 
ATOM     14  C   UNL     1      -1.134  11.422  19.467  0.00  0.00    +0.000 A 
ATOM     15  C   UNL     1       1.406   8.717  18.966  0.00  0.00    +0.000 C 
ATOM     16  C   UNL     1       2.224   8.340  17.965  0.00  0.00    +0.000 C 
ATOM     17  N   UNL     1       1.332   8.364  20.335  0.00  0.00    +0.000 N 
ATOM     18  H   UNL     1       0.701   7.565  20.418  0.00  0.00    +0.000 HD
ENDROOT
BRANCH  16  19
ATOM     19  C   UNL     1       3.361   7.385  17.839  0.00  0.00    +0.000 C 
ATOM     20  O   UNL     1       4.510   7.787  17.684  0.00  0.00    +0.000 OA
ATOM     21  N   UNL     1       3.042   6.013  18.000  0.00  0.00    +0.000 N 
ATOM     22  C   UNL     1       4.140   5.058  18.188  0.00  0.00    +0.000 C 
ATOM     23  C   UNL     1       3.901   3.748  17.433  0.00  0.00    +0.000 C 
ATOM     24  C   UNL     1       2.544   3.131  17.765  0.00  0.00    +0.000 C 
ATOM     25  C   UNL     1       1.436   4.152  17.568  0.00  0.00    +0.000 C 
ATOM     26  C   UNL     1       1.714   5.455  18.311  0.00  0.00    +0.000 C 
ENDBRANCH  16  19
TORSDOF 1
ENDMDL
MODEL 6
REMARK VINA RESULT:      -7.0      1.746      3.714
REMARK  Name = 
REMARK  3 active torsions:
REMARK  status: ('A' for Active; 'I' for Inactive)
REMARK    1  A    between atoms: C_1  and  C_2
REMARK    2  A    between atoms: C_2  and  C_3
REMARK    3  A    between atoms: C_16  and  C_17
REMARK                            x       y       z     vdW  Elec       q    Type
REMARK                         _______ _______ _______ _____ _____    ______ ____
ROOT
ATOM      1  C   UNL     1       5.352   7.390  17.241  0.00  0.00    +0.000 C 
ATOM      2  C   UNL     1       4.253   6.487  17.833  0.00  0.00    +0.000 C 
ATOM      3  C   UNL     1       4.068   5.302  16.847  0.00  0.00    +0.000 C 
ATOM      4  C   UNL     1       4.675   5.925  19.215  0.00  0.00    +0.000 C 
ATOM      5  C   UNL     1       3.491   5.091  19.691  0.00  0.00    +0.000 A 
ATOM      6  C   UNL     1       2.277   5.808  19.795  0.00  0.00    +0.000 A 
ATOM      7  C   UNL     1       1.088   5.159  20.146  0.00  0.00    +0.000 A 
ATOM      8  C   UNL     1       1.069   3.773  20.252  0.00  0.00    +0.000 A 
ATOM      9  C   UNL     1       2.212   3.029  19.921  0.00  0.00    +0.000 A 
ATOM     10  C   UNL     1       2.079   1.654  19.700  0.00  0.00    +0.000 A 
ATOM     11  C   UNL     1       3.142   0.920  19.187  0.00  0.00    +0.000 A 
ATOM     12  C   UNL     1       4.369   1.525  19.017  0.00  0.00    +0.000 A 
ATOM     13  C   UNL     1       4.544   2.880  19.306  0.00  0.00    +0.000 A 
ATOM     14  C   UNL     1       3.451   3.677  19.697  0.00  0.00    +0.000 A 
ATOM     15  C   UNL     1       2.260   7.197  19.236  0.00  0.00    +0.000 C 
ATOM     16  C   UNL     1       1.577   8.085  19.982  0.00  0.00    +0.000 C 
ATOM     17  N   UNL     1       3.000   7.313  18.036  0.00  0.00    +0.000 N 
ATOM     18  H   UNL     1       2.361   7.142  17.256  0.00  0.00    +0.000 HD
ENDROOT
BRANCH  16  19
ATOM     19  C   UNL     1       1.271   9.540  19.868  0.00  0.00    +0.000 C 
ATOM     20  O   UNL     1       1.753  10.217  18.964  0.00  0.00    +0.000 OA
ATOM     21  N   UNL     1       0.333  10.054  20.798  0.00  0.00    +0.000 N 
ATOM     22  C   UNL     1      -0.234  11.385  20.555  0.00  0.00    +0.000 C 
ATOM     23  C   UNL     1      -0.377  12.196  21.845  0.00  0.00    +0.000 C 
ATOM     24  C   UNL     1      -1.147  11.435  22.921  0.00  0.00    +0.000 C 
ATOM     25  C   UNL     1      -0.536  10.060  23.137  0.00  0.00    +0.000 C 
ATOM     26  C   UNL     1      -0.383   9.286  21.832  0.00  0.00    +0.000 C 
ENDBRANCH  16  19
TORSDOF 1
ENDMDL
MODEL 7
REMARK VINA RESULT:      -6.9      1.930      3.672
REMARK  Name = 
REMARK  3 active torsions:
REMARK  status: ('A' for Active; 'I' for Inactive)
REMARK    1  A    between atoms: C_1  and  C_2
REMARK    2  A    between atoms: C_2  and  C_3
REMARK    3  A    between atoms: C_16  and  C_17
REMARK                            x       y       z     vdW  Elec       q    Type
REMARK                         _______ _______ _______ _____ _____    ______ ____
ROOT
ATOM      1  C   UNL     1       6.138   7.121  17.077  0.00  0.00    +0.000 C 
ATOM      2  C   UNL     1       4.889   6.330  17.511  0.00  0.00    +0.000 C 
ATOM      3  C   UNL     1       4.838   5.055  16.627  0.00  0.00    +0.000 C 
ATOM      4  C   UNL     1       4.987   5.902  18.998  0.00  0.00    +0.000 C 
ATOM      5  C   UNL     1       3.682   5.171  19.295  0.00  0.00    +0.000 A 
ATOM      6  C   UNL     1       2.518   5.942  19.074  0.00  0.00    +0.000 A 
ATOM      7  C   UNL     1       1.246   5.381  19.230  0.00  0.00    +0.000 A 
ATOM      8  C   UNL     1       1.122   4.016  19.462  0.00  0.00    +0.000 A 
ATOM      9  C   UNL     1       2.261   3.197  19.451  0.00  0.00    +0.000 A 
ATOM     10  C   UNL     1       2.094   1.812  19.340  0.00  0.00    +0.000 A 
ATOM     11  C   UNL     1       3.193   0.987  19.133  0.00  0.00    +0.000 A 
ATOM     12  C   UNL     1       4.462   1.522  19.165  0.00  0.00    +0.000 A 
ATOM     13  C   UNL     1       4.657   2.892  19.353  0.00  0.00    +0.000 A 
ATOM     14  C   UNL     1       3.557   3.768  19.428  0.00  0.00    +0.000 A 
ATOM     15  C   UNL     1       2.699   7.263  18.392  0.00  0.00    +0.000 C 
ATOM     16  C   UNL     1       1.934   8.252  18.891  0.00  0.00    +0.000 C 
ATOM     17  N   UNL     1       3.673   7.222  17.368  0.00  0.00    +0.000 N 
ATOM     18  H   UNL     1       3.197   6.993  16.492  0.00  0.00    +0.000 HD
ENDROOT
BRANCH  16  19
ATOM     19  C   UNL     1       1.746   9.696  18.575  0.00  0.00    +0.000 C 
ATOM     20  O   UNL     1       2.273  10.201  17.589  0.00  0.00    +0.000 OA
ATOM     21  N   UNL     1       0.861  10.409  19.423  0.00  0.00    +0.000 N 
ATOM     22  C   UNL     1       0.401  11.736  18.997  0.00  0.00    +0.000 C 
ATOM     23  C   UNL     1       0.335  12.726  20.162  0.00  0.00    +0.000 C 
ATOM     24  C   UNL     1      -0.485  12.186  21.331  0.00  0.00    +0.000 C 
ATOM     25  C   UNL     1       0.015  10.808  21.737  0.00  0.00    +0.000 C 
ATOM     26  C   UNL     1       0.093   9.853  20.551  0.00  0.00    +0.000 C 
ENDBRANCH  16  19
TORSDOF 1
ENDMDL
MODEL 8
REMARK VINA RESULT:      -6.9      4.693      8.001
REMARK  Name = 
REMARK  3 active torsions:
REMARK  status: ('A' for Active; 'I' for Inactive)
REMARK    1  A    between atoms: C_1  and  C_2
REMARK    2  A    between atoms: C_2  and  C_3
REMARK    3  A    between atoms: C_16  and  C_17
REMARK                            x       y       z     vdW  Elec       q    Type
REMARK                         _______ _______ _______ _____ _____    ______ ____
ROOT
ATOM      1  C   UNL     1      -3.958  11.505  16.525  0.00  0.00    +0.000 C 
ATOM      2  C   UNL     1      -3.162  11.203  17.808  0.00  0.00    +0.000 C 
ATOM      3  C   UNL     1      -2.916   9.670  17.831  0.00  0.00    +0.000 C 
ATOM      4  C   UNL     1      -1.791  11.927  17.799  0.00  0.00    +0.000 C 
ATOM      5  C   UNL     1      -1.137  11.572  19.130  0.00  0.00    +0.000 A 
ATOM      6  C   UNL     1      -1.890  11.943  20.268  0.00  0.00    +0.000 A 
ATOM      7  C   UNL     1      -1.454  11.613  21.555  0.00  0.00    +0.000 A 
ATOM      8  C   UNL     1      -0.346  10.788  21.714  0.00  0.00    +0.000 A 
ATOM      9  C   UNL     1       0.271  10.220  20.590  0.00  0.00    +0.000 A 
ATOM     10  C   UNL     1       1.143   9.141  20.773  0.00  0.00    +0.000 A 
ATOM     11  C   UNL     1       1.623   8.433  19.678  0.00  0.00    +0.000 A 
ATOM     12  C   UNL     1       1.339   8.874  18.403  0.00  0.00    +0.000 A 
ATOM     13  C   UNL     1       0.534   9.996  18.197  0.00  0.00    +0.000 A 
ATOM     14  C   UNL     1      -0.075  10.650  19.285  0.00  0.00    +0.000 A 
ATOM     15  C   UNL     1      -3.287  12.427  20.029  0.00  0.00    +0.000 C 
ATOM     16  C   UNL     1      -3.653  13.465  20.804  0.00  0.00    +0.000 C 
ATOM     17  N   UNL     1      -3.945  11.713  19.000  0.00  0.00    +0.000 N 
ATOM     18  H   UNL     1      -4.440  10.929  19.431  0.00  0.00    +0.000 HD
ENDROOT
BRANCH  16  19
ATOM     19  C   UNL     1      -4.891  14.282  20.951  0.00  0.00    +0.000 C 
ATOM     20  O   UNL     1      -5.108  15.238  20.212  0.00  0.00    +0.000 OA
ATOM     21  N   UNL     1      -5.822  13.832  21.920  0.00  0.00    +0.000 N 
ATOM     22  C   UNL     1      -7.174  14.402  21.907  0.00  0.00    +0.000 C 
ATOM     23  C   UNL     1      -7.708  14.655  23.319  0.00  0.00    +0.000 C 
ATOM     24  C   UNL     1      -7.621  13.411  24.200  0.00  0.00    +0.000 C 
ATOM     25  C   UNL     1      -6.210  12.846  24.180  0.00  0.00    +0.000 C 
ATOM     26  C   UNL     1      -5.697  12.628  22.761  0.00  0.00    +0.000 C 
ENDBRANCH  16  19
TORSDOF 1
ENDMDL
MODEL 9
REMARK VINA RESULT:      -6.8      9.072     10.576
REMARK  Name = 
REMARK  3 active torsions:
REMARK  status: ('A' for Active; 'I' for Inactive)
REMARK    1  A    between atoms: C_1  and  C_2
REMARK    2  A    between atoms: C_2  and  C_3
REMARK    3  A    between atoms: C_16  and  C_17
REMARK                            x       y       z     vdW  Elec       q    Type
REMARK                         _______ _______ _______ _____ _____    ______ ____
ROOT
ATOM      1  C   UNL     1       9.187  10.155  19.023  0.00  0.00    +0.000 C 
ATOM      2  C   UNL     1       9.752  11.507  19.497  0.00  0.00    +0.000 C 
ATOM      3  C   UNL     1      11.180  11.631  18.899  0.00  0.00    +0.000 C 
ATOM      4  C   UNL     1       8.890  12.687  18.978  0.00  0.00    +0.000 C 
ATOM      5  C   UNL     1       9.538  13.943  19.550  0.00  0.00    +0.000 A 
ATOM      6  C   UNL     1       9.618  13.968  20.961  0.00  0.00    +0.000 A 
ATOM      7  C   UNL     1      10.255  15.021  21.626  0.00  0.00    +0.000 A 
ATOM      8  C   UNL     1      10.944  15.979  20.890  0.00  0.00    +0.000 A 
ATOM      9  C   UNL     1      11.072  15.837  19.500  0.00  0.00    +0.000 A 
ATOM     10  C   UNL     1      12.037  16.597  18.831  0.00  0.00    +0.000 A 
ATOM     11  C   UNL     1      12.324  16.348  17.495  0.00  0.00    +0.000 A 
ATOM     12  C   UNL     1      11.565  15.436  16.793  0.00  0.00    +0.000 A 
ATOM     13  C   UNL     1      10.543  14.722  17.422  0.00  0.00    +0.000 A 
ATOM     14  C   UNL     1      10.322  14.856  18.806  0.00  0.00    +0.000 A 
ATOM     15  C   UNL     1       9.265  12.704  21.683  0.00  0.00    +0.000 C 
ATOM     16  C   UNL     1       8.558  12.891  22.813  0.00  0.00    +0.000 C 
ATOM     17  N   UNL     1       9.720  11.545  21.011  0.00  0.00    +0.000 N 
ATOM     18  H   UNL     1      10.653  11.323  21.367  0.00  0.00    +0.000 HD
ENDROOT
BRANCH  16  19
ATOM     19  C   UNL     1       7.984  11.992  23.855  0.00  0.00    +0.000 C 
ATOM     20  O   UNL     1       8.232  10.790  23.858  0.00  0.00    +0.000 OA
ATOM     21  N   UNL     1       7.225  12.624  24.872  0.00  0.00    +0.000 N 
ATOM     22  C   UNL     1       6.891  11.853  26.075  0.00  0.00    +0.000 C 
ATOM     23  C   UNL     1       5.467  12.130  26.562  0.00  0.00    +0.000 C 
ATOM     24  C   UNL     1       5.202  13.622  26.747  0.00  0.00    +0.000 C 
ATOM     25  C   UNL     1       5.568  14.386  25.485  0.00  0.00    +0.000 C 
ATOM     26  C   UNL     1       6.983  14.070  25.011  0.00  0.00    +0.000 C 
ENDBRANCH  16  19
TORSDOF 1
ENDMDL
