MODEL 1
REMARK VINA RESULT:      -8.3      0.000      0.000
REMARK  Name = 
REMARK  8 active torsions:
REMARK  status: ('A' for Active; 'I' for Inactive)
REMARK    1  A    between atoms: C_1  and  C_2
REMARK    2  A    between atoms: C_2  and  C_3
REMARK    3  A    between atoms: C_2  and  O_4
REMARK    4  A    between atoms: O_4  and  C_5
REMARK    5  A    between atoms: C_8  and  N_9
REMARK    6  A    between atoms: N_9  and  C_10
REMARK    7  A    between atoms: N_19  and  C_20
REMARK    8  A    between atoms: C_20  and  C_21
REMARK                            x       y       z     vdW  Elec       q    Type
REMARK                         _______ _______ _______ _____ _____    ______ ____
ROOT
ATOM      1  C   UNL     1       0.270  10.176  19.243  0.00  0.00    +0.000 A 
ATOM      2  N   UNL     1      -0.087  10.077  20.557  0.00  0.00    +0.000 NA
ATOM      3  C   UNL     1       0.476   9.127  21.317  0.00  0.00    +0.000 A 
ATOM      4 CL   UNL     1       0.041   9.156  22.970  0.00  0.00    +0.000 Cl
ATOM      5  N   UNL     1       1.379   8.198  20.968  0.00  0.00    +0.000 NA
ATOM      6  C   UNL     1       1.683   8.304  19.666  0.00  0.00    +0.000 A 
ATOM      7  C   UNL     1       1.184   9.223  18.751  0.00  0.00    +0.000 A 
ATOM      8  N   UNL     1       1.735   9.011  17.504  0.00  0.00    +0.000 NA
ATOM      9  C   UNL     1       2.538   7.976  17.659  0.00  0.00    +0.000 A 
ATOM     10  N   UNL     1       2.561   7.533  18.956  0.00  0.00    +0.000 N 
ENDROOT
BRANCH   1  11
ATOM     11  N   UNL     1      -0.242  11.237  18.461  0.00  0.00    +0.000 N 
ATOM     12  H   UNL     1       0.179  12.124  18.728  0.00  0.00    +0.000 HD
BRANCH  11  16
ATOM     13  C   UNL     1      -4.319  11.670  17.361  0.00  0.00    +0.000 A 
ATOM     14  C   UNL     1      -3.416  11.051  16.509  0.00  0.00    +0.000 A 
ATOM     15  C   UNL     1      -2.089  10.884  16.893  0.00  0.00    +0.000 A 
ATOM     16  C   UNL     1      -1.608  11.363  18.117  0.00  0.00    +0.000 A 
ATOM     17  C   UNL     1      -2.519  11.961  18.988  0.00  0.00    +0.000 A 
ATOM     18  C   UNL     1      -3.866  12.122  18.607  0.00  0.00    +0.000 A 
BRANCH  13  19
ATOM     19  O   UNL     1      -5.641  11.887  17.080  0.00  0.00    +0.000 OA
BRANCH  19  21
ATOM     20  C   UNL     1      -6.815  13.951  16.814  0.00  0.00    +0.000 C 
ATOM     21  C   UNL     1      -6.327  12.912  17.818  0.00  0.00    +0.000 C 
ATOM     22  C   UNL     1      -7.507  12.319  18.585  0.00  0.00    +0.000 C 
ENDBRANCH  19  21
ENDBRANCH  13  19
ENDBRANCH  11  16
ENDBRANCH   1  11
BRANCH  10  23
ATOM     23  C   UNL     1       3.255   6.359  19.452  0.00  0.00    +0.000 C 
BRANCH  23  24
ATOM     24  C   UNL     1       2.382   5.129  19.498  0.00  0.00    +0.000 A 
ATOM     25  C   UNL     1       2.043   4.449  18.317  0.00  0.00    +0.000 A 
ATOM     26  C   UNL     1       1.309   3.261  18.365  0.00  0.00    +0.000 A 
ATOM     27  C   UNL     1       0.894   2.744  19.590  0.00  0.00    +0.000 A 
ATOM     28  C   UNL     1       1.201   3.423  20.767  0.00  0.00    +0.000 A 
ATOM     29  C   UNL     1       1.938   4.610  20.722  0.00  0.00    +0.000 A 
ENDBRANCH  23  24
ENDBRANCH  10  23
TORSDOF 6
ENDMDL
MODEL 2
REMARK VINA RESULT:      -8.0      3.433      4.336
REMARK  Name = 
REMARK  8 active torsions:
REMARK  status: ('A' for Active; 'I' for Inactive)
REMARK    1  A    between atoms: C_1  and  C_2
REMARK    2  A    between atoms: C_2  and  C_3
REMARK    3  A    between atoms: C_2  and  O_4
REMARK    4  A    between atoms: O_4  and  C_5
REMARK    5  A    between atoms: C_8  and  N_9
REMARK    6  A    between atoms: N_9  and  C_10
REMARK    7  A    between atoms: N_19  and  C_20
REMARK    8  A    between atoms: C_20  and  C_21
REMARK                            x       y       z     vdW  Elec       q    Type
REMARK                         _______ _______ _______ _____ _____    ______ ____
ROOT
ATOM      1  C   UNL     1       0.424  10.240  19.178  0.00  0.00    +0.000 A 
ATOM      2  N   UNL     1       0.022  10.173  20.480  0.00  0.00    +0.000 NA
ATOM      3  C   UNL     1       0.518   9.208  21.267  0.00  0.00    +0.000 A 
ATOM      4 CL   UNL     1       0.033   9.275  22.905  0.00  0.00    +0.000 Cl
ATOM      5  N   UNL     1       1.390   8.236  20.957  0.00  0.00    +0.000 NA
ATOM      6  C   UNL     1       1.739   8.314  19.664  0.00  0.00    +0.000 A 
ATOM      7  C   UNL     1       1.310   9.243  18.724  0.00  0.00    +0.000 A 
ATOM      8  N   UNL     1       1.890   8.993  17.498  0.00  0.00    +0.000 NA
ATOM      9  C   UNL     1       2.642   7.926  17.689  0.00  0.00    +0.000 A 
ATOM     10  N   UNL     1       2.605   7.497  18.991  0.00  0.00    +0.000 N 
ENDROOT
BRANCH   1  11
ATOM     11  N   UNL     1      -0.016  11.314  18.368  0.00  0.00    +0.000 N 
ATOM     12  H   UNL     1      -0.147  11.014  17.404  0.00  0.00    +0.000 HD
BRANCH  11  16
ATOM     13  C   UNL     1       1.572  15.232  18.740  0.00  0.00    +0.000 A 
ATOM     14  C   UNL     1       2.404  14.149  18.499  0.00  0.00    +0.000 A 
ATOM     15  C   UNL     1       1.871  12.873  18.346  0.00  0.00    +0.000 A 
ATOM     16  C   UNL     1       0.499  12.626  18.467  0.00  0.00    +0.000 A 
ATOM     17  C   UNL     1      -0.345  13.717  18.681  0.00  0.00    +0.000 A 
ATOM     18  C   UNL     1       0.191  15.012  18.827  0.00  0.00    +0.000 A 
BRANCH  13  19
ATOM     19  O   UNL     1       1.994  16.523  18.909  0.00  0.00    +0.000 OA
BRANCH  19  21
ATOM     20  C   UNL     1       1.252  18.630  19.758  0.00  0.00    +0.000 C 
ATOM     21  C   UNL     1       1.044  17.577  18.675  0.00  0.00    +0.000 C 
ATOM     22  C   UNL     1       1.257  18.189  17.291  0.00  0.00    +0.000 C 
ENDBRANCH  19  21
ENDBRANCH  13  19
ENDBRANCH  11  16
ENDBRANCH   1  11
BRANCH  10  23
ATOM     23  C   UNL     1       3.230   6.300  19.521  0.00  0.00    +0.000 C 
BRANCH  23  24
ATOM     24  C   UNL     1       2.331   5.089  19.472  0.00  0.00    +0.000 A 
ATOM     25  C   UNL     1       2.084   4.431  18.256  0.00  0.00    +0.000 A 
ATOM     26  C   UNL     1       1.324   3.259  18.222  0.00  0.00    +0.000 A 
ATOM     27  C   UNL     1       0.790   2.737  19.398  0.00  0.00    +0.000 A 
ATOM     28  C   UNL     1       1.006   3.395  20.608  0.00  0.00    +0.000 A 
ATOM     29  C   UNL     1       1.768   4.566  20.645  0.00  0.00    +0.000 A 
ENDBRANCH  23  24
ENDBRANCH  10  23
TORSDOF 6
ENDMDL
MODEL 3
REMARK VINA RESULT:      -7.9      1.053      1.676
REMARK  Name = 
REMARK  8 active torsions:
REMARK  status: ('A' for Active; 'I' for Inactive)
REMARK    1  A    between atoms: C_1  and  C_2
REMARK    2  A    between atoms: C_2  and  C_3
REMARK    3  A    between atoms: C_2  and  O_4
REMARK    4  A    between atoms: O_4  and  C_5
REMARK    5  A    between atoms: C_8  and  N_9
REMARK    6  A    between atoms: N_9  and  C_10
REMARK    7  A    between atoms: N_19  and  C_20
REMARK    8  A    between atoms: C_20  and  C_21
REMARK                            x       y       z     vdW  Elec       q    Type
REMARK                         _______ _______ _______ _____ _____    ______ ____
ROOT
ATOM      1  C   UNL     1       0.097  10.434  19.724  0.00  0.00    +0.000 A 
ATOM      2  N   UNL     1      -0.091  10.297  21.069  0.00  0.00    +0.000 NA
ATOM      3  C   UNL     1       0.554   9.319  21.722  0.00  0.00    +0.000 A 
ATOM      4 CL   UNL     1       0.333   9.299  23.417  0.00  0.00    +0.000 Cl
ATOM      5  N   UNL     1       1.396   8.396  21.233  0.00  0.00    +0.000 NA
ATOM      6  C   UNL     1       1.534   8.542  19.907  0.00  0.00    +0.000 A 
ATOM      7  C   UNL     1       0.932   9.492  19.091  0.00  0.00    +0.000 A 
ATOM      8  N   UNL     1       1.318   9.316  17.779  0.00  0.00    +0.000 NA
ATOM      9  C   UNL     1       2.124   8.272  17.799  0.00  0.00    +0.000 A 
ATOM     10  N   UNL     1       2.307   7.788  19.068  0.00  0.00    +0.000 N 
ENDROOT
BRANCH   1  11
ATOM     11  N   UNL     1      -0.499  11.522  19.046  0.00  0.00    +0.000 N 
ATOM     12  H   UNL     1       0.139  12.314  18.992  0.00  0.00    +0.000 HD
BRANCH  11  16
ATOM     13  C   UNL     1      -4.535  12.667  19.696  0.00  0.00    +0.000 A 
ATOM     14  C   UNL     1      -3.515  13.180  20.484  0.00  0.00    +0.000 A 
ATOM     15  C   UNL     1      -2.192  12.825  20.242  0.00  0.00    +0.000 A 
ATOM     16  C   UNL     1      -1.843  11.917  19.236  0.00  0.00    +0.000 A 
ATOM     17  C   UNL     1      -2.863  11.419  18.423  0.00  0.00    +0.000 A 
ATOM     18  C   UNL     1      -4.203  11.785  18.659  0.00  0.00    +0.000 A 
BRANCH  13  19
ATOM     19  O   UNL     1      -5.865  12.949  19.851  0.00  0.00    +0.000 OA
BRANCH  19  21
ATOM     20  C   UNL     1      -7.579  11.307  20.128  0.00  0.00    +0.000 C 
ATOM     21  C   UNL     1      -6.812  12.154  19.118  0.00  0.00    +0.000 C 
ATOM     22  C   UNL     1      -7.772  13.051  18.339  0.00  0.00    +0.000 C 
ENDBRANCH  19  21
ENDBRANCH  13  19
ENDBRANCH  11  16
ENDBRANCH   1  11
BRANCH  10  23
ATOM     23  C   UNL     1       3.046   6.595  19.436  0.00  0.00    +0.000 C 
BRANCH  23  24
ATOM     24  C   UNL     1       2.212   5.339  19.381  0.00  0.00    +0.000 A 
ATOM     25  C   UNL     1       2.033   4.652  18.169  0.00  0.00    +0.000 A 
ATOM     26  C   UNL     1       1.334   3.442  18.133  0.00  0.00    +0.000 A 
ATOM     27  C   UNL     1       0.796   2.910  19.301  0.00  0.00    +0.000 A 
ATOM     28  C   UNL     1       0.944   3.595  20.506  0.00  0.00    +0.000 A 
ATOM     29  C   UNL     1       1.644   4.803  20.546  0.00  0.00    +0.000 A 
ENDBRANCH  23  24
ENDBRANCH  10  23
TORSDOF 6
ENDMDL
MODEL 4
REMARK VINA RESULT:      -7.9      1.034      1.701
REMARK  Name = 
REMARK  8 active torsions:
REMARK  status: ('A' for Active; 'I' for Inactive)
REMARK    1  A    between atoms: C_1  and  C_2
REMARK    2  A    between atoms: C_2  and  C_3
REMARK    3  A    between atoms: C_2  and  O_4
REMARK    4  A    between atoms: O_4  and  C_5
REMARK    5  A    between atoms: C_8  and  N_9
REMARK    6  A    between atoms: N_9  and  C_10
REMARK    7  A    between atoms: N_19  and  C_20
REMARK    8  A    between atoms: C_20  and  C_21
REMARK                            x       y       z     vdW  Elec       q    Type
REMARK                         _______ _______ _______ _____ _____    ______ ____
ROOT
ATOM      1  C   UNL     1       0.192  10.194  19.329  0.00  0.00    +0.000 A 
ATOM      2  N   UNL     1      -0.039  10.114  20.672  0.00  0.00    +0.000 NA
ATOM      3  C   UNL     1       0.618   9.194  21.393  0.00  0.00    +0.000 A 
ATOM      4 CL   UNL     1       0.338   9.246  23.078  0.00  0.00    +0.000 Cl
ATOM      5  N   UNL     1       1.509   8.281  20.978  0.00  0.00    +0.000 NA
ATOM      6  C   UNL     1       1.688   8.368  19.651  0.00  0.00    +0.000 A 
ATOM      7  C   UNL     1       1.081   9.255  18.770  0.00  0.00    +0.000 A 
ATOM      8  N   UNL     1       1.520   9.031  17.482  0.00  0.00    +0.000 NA
ATOM      9  C   UNL     1       2.361   8.020  17.580  0.00  0.00    +0.000 A 
ATOM     10  N   UNL     1       2.517   7.604  18.877  0.00  0.00    +0.000 N 
ENDROOT
BRANCH   1  11
ATOM     11  N   UNL     1      -0.419  11.226  18.578  0.00  0.00    +0.000 N 
ATOM     12  H   UNL     1       0.164  12.060  18.561  0.00  0.00    +0.000 HD
BRANCH  11  16
ATOM     13  C   UNL     1      -4.567  12.082  18.856  0.00  0.00    +0.000 A 
ATOM     14  C   UNL     1      -3.672  12.597  19.782  0.00  0.00    +0.000 A 
ATOM     15  C   UNL     1      -2.310  12.338  19.663  0.00  0.00    +0.000 A 
ATOM     16  C   UNL     1      -1.799  11.526  18.645  0.00  0.00    +0.000 A 
ATOM     17  C   UNL     1      -2.692  11.028  17.695  0.00  0.00    +0.000 A 
ATOM     18  C   UNL     1      -4.071  11.297  17.807  0.00  0.00    +0.000 A 
BRANCH  13  19
ATOM     19  O   UNL     1      -5.922  12.273  18.883  0.00  0.00    +0.000 OA
BRANCH  19  21
ATOM     20  C   UNL     1      -7.538  13.313  20.303  0.00  0.00    +0.000 C 
ATOM     21  C   UNL     1      -6.598  12.124  20.143  0.00  0.00    +0.000 C 
ATOM     22  C   UNL     1      -7.386  10.815  20.173  0.00  0.00    +0.000 C 
ENDBRANCH  19  21
ENDBRANCH  13  19
ENDBRANCH  11  16
ENDBRANCH   1  11
BRANCH  10  23
ATOM     23  C   UNL     1       3.285   6.459  19.328  0.00  0.00    +0.000 C 
BRANCH  23  24
ATOM     24  C   UNL     1       2.482   5.182  19.361  0.00  0.00    +0.000 A 
ATOM     25  C   UNL     1       1.907   4.730  20.560  0.00  0.00    +0.000 A 
ATOM     26  C   UNL     1       1.090   3.596  20.575  0.00  0.00    +0.000 A 
ATOM     27  C   UNL     1       0.849   2.892  19.398  0.00  0.00    +0.000 A 
ATOM     28  C   UNL     1       1.435   3.314  18.207  0.00  0.00    +0.000 A 
ATOM     29  C   UNL     1       2.250   4.450  18.188  0.00  0.00    +0.000 A 
ENDBRANCH  23  24
ENDBRANCH  10  23
TORSDOF 6
ENDMDL
MODEL 5
REMARK VINA RESULT:      -7.9      1.084      1.398
REMARK  Name = 
REMARK  8 active torsions:
REMARK  status: ('A' for Active; 'I' for Inactive)
REMARK    1  A    between atoms: C_1  and  C_2
REMARK    2  A    between atoms: C_2  and  C_3
REMARK    3  A    between atoms: C_2  and  O_4
REMARK    4  A    between atoms: O_4  and  C_5
REMARK    5  A    between atoms: C_8  and  N_9
REMARK    6  A    between atoms: N_9  and  C_10
REMARK    7  A    between atoms: N_19  and  C_20
REMARK    8  A    between atoms: C_20  and  C_21
REMARK                            x       y       z     vdW  Elec       q    Type
REMARK                         _______ _______ _______ _____ _____    ______ ____
ROOT
ATOM      1  C   UNL     1      -0.177  10.515  19.734  0.00  0.00    +0.000 A 
ATOM      2  N   UNL     1      -0.373  10.366  21.077  0.00  0.00    +0.000 NA
ATOM      3  C   UNL     1       0.309   9.418  21.735  0.00  0.00    +0.000 A 
ATOM      4 CL   UNL     1       0.070   9.384  23.427  0.00  0.00    +0.000 Cl
ATOM      5  N   UNL     1       1.198   8.535  21.254  0.00  0.00    +0.000 NA
ATOM      6  C   UNL     1       1.343   8.690  19.929  0.00  0.00    +0.000 A 
ATOM      7  C   UNL     1       0.707   9.614  19.108  0.00  0.00    +0.000 A 
ATOM      8  N   UNL     1       1.116   9.458  17.800  0.00  0.00    +0.000 NA
ATOM      9  C   UNL     1       1.968   8.452  17.827  0.00  0.00    +0.000 A 
ATOM     10  N   UNL     1       2.159   7.974  19.098  0.00  0.00    +0.000 N 
ENDROOT
BRANCH   1  11
ATOM     11  N   UNL     1      -0.815  11.576  19.051  0.00  0.00    +0.000 N 
ATOM     12  H   UNL     1      -0.332  12.457  19.212  0.00  0.00    +0.000 HD
BRANCH  11  16
ATOM     13  C   UNL     1      -5.021  12.079  18.777  0.00  0.00    +0.000 A 
ATOM     14  C   UNL     1      -4.331  11.337  17.829  0.00  0.00    +0.000 A 
ATOM     15  C   UNL     1      -2.957  11.150  17.946  0.00  0.00    +0.000 A 
ATOM     16  C   UNL     1      -2.219  11.728  18.985  0.00  0.00    +0.000 A 
ATOM     17  C   UNL     1      -2.912  12.452  19.955  0.00  0.00    +0.000 A 
ATOM     18  C   UNL     1      -4.305  12.634  19.846  0.00  0.00    +0.000 A 
BRANCH  13  19
ATOM     19  O   UNL     1      -6.367  12.325  18.754  0.00  0.00    +0.000 OA
BRANCH  19  21
ATOM     20  C   UNL     1      -6.749   9.994  19.115  0.00  0.00    +0.000 C 
ATOM     21  C   UNL     1      -7.231  11.404  19.440  0.00  0.00    +0.000 C 
ATOM     22  C   UNL     1      -7.182  11.648  20.947  0.00  0.00    +0.000 C 
ENDBRANCH  19  21
ENDBRANCH  13  19
ENDBRANCH  11  16
ENDBRANCH   1  11
BRANCH  10  23
ATOM     23  C   UNL     1       2.948   6.815  19.472  0.00  0.00    +0.000 C 
BRANCH  23  24
ATOM     24  C   UNL     1       2.179   5.520  19.384  0.00  0.00    +0.000 A 
ATOM     25  C   UNL     1       2.051   4.847  18.157  0.00  0.00    +0.000 A 
ATOM     26  C   UNL     1       1.415   3.605  18.090  0.00  0.00    +0.000 A 
ATOM     27  C   UNL     1       0.889   3.025  19.242  0.00  0.00    +0.000 A 
ATOM     28  C   UNL     1       0.987   3.694  20.460  0.00  0.00    +0.000 A 
ATOM     29  C   UNL     1       1.624   4.935  20.531  0.00  0.00    +0.000 A 
ENDBRANCH  23  24
ENDBRANCH  10  23
TORSDOF 6
ENDMDL
MODEL 6
REMARK VINA RESULT:      -7.8      0.777      1.344
REMARK  Name = 
REMARK  8 active torsions:
REMARK  status: ('A' for Active; 'I' for Inactive)
REMARK    1  A    between atoms: C_1  and  C_2
REMARK    2  A    between atoms: C_2  and  C_3
REMARK    3  A    between atoms: C_2  and  O_4
REMARK    4  A    between atoms: O_4  and  C_5
REMARK    5  A    between atoms: C_8  and  N_9
REMARK    6  A    between atoms: N_9  and  C_10
REMARK    7  A    between atoms: N_19  and  C_20
REMARK    8  A    between atoms: C_20  and  C_21
REMARK                            x       y       z     vdW  Elec       q    Type
REMARK                         _______ _______ _______ _____ _____    ______ ____
ROOT
ATOM      1  C   UNL     1       0.016  10.317  19.286  0.00  0.00    +0.000 A 
ATOM      2  N   UNL     1      -0.356  10.183  20.592  0.00  0.00    +0.000 NA
ATOM      3  C   UNL     1       0.223   9.234  21.342  0.00  0.00    +0.000 A 
ATOM      4 CL   UNL     1      -0.235   9.219  22.989  0.00  0.00    +0.000 Cl
ATOM      5  N   UNL     1       1.157   8.337  20.988  0.00  0.00    +0.000 NA
ATOM      6  C   UNL     1       1.476   8.477  19.693  0.00  0.00    +0.000 A 
ATOM      7  C   UNL     1       0.963   9.400  18.788  0.00  0.00    +0.000 A 
ATOM      8  N   UNL     1       1.538   9.227  17.546  0.00  0.00    +0.000 NA
ATOM      9  C   UNL     1       2.367   8.212  17.693  0.00  0.00    +0.000 A 
ATOM     10  N   UNL     1       2.385   7.745  18.981  0.00  0.00    +0.000 N 
ENDROOT
BRANCH   1  11
ATOM     11  N   UNL     1      -0.514  11.378  18.516  0.00  0.00    +0.000 N 
ATOM     12  H   UNL     1      -0.064  12.260  18.750  0.00  0.00    +0.000 HD
BRANCH  11  16
ATOM     13  C   UNL     1      -4.671  11.766  17.749  0.00  0.00    +0.000 A 
ATOM     14  C   UNL     1      -4.123  12.221  18.940  0.00  0.00    +0.000 A 
ATOM     15  C   UNL     1      -2.754  12.119  19.168  0.00  0.00    +0.000 A 
ATOM     16  C   UNL     1      -1.893  11.526  18.239  0.00  0.00    +0.000 A 
ATOM     17  C   UNL     1      -2.435  11.093  17.028  0.00  0.00    +0.000 A 
ATOM     18  C   UNL     1      -3.820  11.203  16.790  0.00  0.00    +0.000 A 
BRANCH  13  19
ATOM     19  O   UNL     1      -6.001  11.816  17.427  0.00  0.00    +0.000 OA
BRANCH  19  21
ATOM     20  C   UNL     1      -6.275   9.962  18.909  0.00  0.00    +0.000 C 
ATOM     21  C   UNL     1      -6.936  11.210  18.336  0.00  0.00    +0.000 C 
ATOM     22  C   UNL     1      -7.296  12.184  19.457  0.00  0.00    +0.000 C 
ENDBRANCH  19  21
ENDBRANCH  13  19
ENDBRANCH  11  16
ENDBRANCH   1  11
BRANCH  10  23
ATOM     23  C   UNL     1       3.104   6.581  19.465  0.00  0.00    +0.000 C 
BRANCH  23  24
ATOM     24  C   UNL     1       2.279   5.318  19.435  0.00  0.00    +0.000 A 
ATOM     25  C   UNL     1       2.054   4.640  18.225  0.00  0.00    +0.000 A 
ATOM     26  C   UNL     1       1.365   3.425  18.208  0.00  0.00    +0.000 A 
ATOM     27  C   UNL     1       0.882   2.877  19.394  0.00  0.00    +0.000 A 
ATOM     28  C   UNL     1       1.076   3.553  20.597  0.00  0.00    +0.000 A 
ATOM     29  C   UNL     1       1.767   4.768  20.618  0.00  0.00    +0.000 A 
ENDBRANCH  23  24
ENDBRANCH  10  23
TORSDOF 6
ENDMDL
MODEL 7
REMARK VINA RESULT:      -7.8      3.699      4.990
REMARK  Name = 
REMARK  8 active torsions:
REMARK  status: ('A' for Active; 'I' for Inactive)
REMARK    1  A    between atoms: C_1  and  C_2
REMARK    2  A    between atoms: C_2  and  C_3
REMARK    3  A    between atoms: C_2  and  O_4
REMARK    4  A    between atoms: O_4  and  C_5
REMARK    5  A    between atoms: C_8  and  N_9
REMARK    6  A    between atoms: N_9  and  C_10
REMARK    7  A    between atoms: N_19  and  C_20
REMARK    8  A    between atoms: C_20  and  C_21
REMARK                            x       y       z     vdW  Elec       q    Type
REMARK                         _______ _______ _______ _____ _____    ______ ____
ROOT
ATOM      1  C   UNL     1       0.573  10.265  19.190  0.00  0.00    +0.000 A 
ATOM      2  N   UNL     1       0.087  10.167  20.462  0.00  0.00    +0.000 NA
ATOM      3  C   UNL     1       0.497   9.156  21.241  0.00  0.00    +0.000 A 
ATOM      4 CL   UNL     1      -0.088   9.184  22.848  0.00  0.00    +0.000 Cl
ATOM      5  N   UNL     1       1.351   8.162  20.949  0.00  0.00    +0.000 NA
ATOM      6  C   UNL     1       1.783   8.273  19.684  0.00  0.00    +0.000 A 
ATOM      7  C   UNL     1       1.449   9.251  18.755  0.00  0.00    +0.000 A 
ATOM      8  N   UNL     1       2.096   9.022  17.559  0.00  0.00    +0.000 NA
ATOM      9  C   UNL     1       2.794   7.920  17.755  0.00  0.00    +0.000 A 
ATOM     10  N   UNL     1       2.659   7.447  19.035  0.00  0.00    +0.000 N 
ENDROOT
BRANCH   1  11
ATOM     11  N   UNL     1       0.224  11.382  18.397  0.00  0.00    +0.000 N 
ATOM     12  H   UNL     1       0.063  11.108  17.430  0.00  0.00    +0.000 HD
BRANCH  11  16
ATOM     13  C   UNL     1       2.061  15.200  18.664  0.00  0.00    +0.000 A 
ATOM     14  C   UNL     1       0.714  15.038  18.955  0.00  0.00    +0.000 A 
ATOM     15  C   UNL     1       0.129  13.777  18.896  0.00  0.00    +0.000 A 
ATOM     16  C   UNL     1       0.852  12.644  18.508  0.00  0.00    +0.000 A 
ATOM     17  C   UNL     1       2.214  12.798  18.242  0.00  0.00    +0.000 A 
ATOM     18  C   UNL     1       2.812  14.072  18.310  0.00  0.00    +0.000 A 
BRANCH  13  19
ATOM     19  O   UNL     1       2.731  16.393  18.688  0.00  0.00    +0.000 OA
BRANCH  19  21
ATOM     20  C   UNL     1       4.897  17.026  19.473  0.00  0.00    +0.000 C 
ATOM     21  C   UNL     1       3.457  16.732  19.881  0.00  0.00    +0.000 C 
ATOM     22  C   UNL     1       2.836  17.955  20.554  0.00  0.00    +0.000 C 
ENDBRANCH  19  21
ENDBRANCH  13  19
ENDBRANCH  11  16
ENDBRANCH   1  11
BRANCH  10  23
ATOM     23  C   UNL     1       3.205   6.208  19.557  0.00  0.00    +0.000 C 
BRANCH  23  24
ATOM     24  C   UNL     1       2.296   5.023  19.346  0.00  0.00    +0.000 A 
ATOM     25  C   UNL     1       2.266   4.355  18.111  0.00  0.00    +0.000 A 
ATOM     26  C   UNL     1       1.491   3.205  17.943  0.00  0.00    +0.000 A 
ATOM     27  C   UNL     1       0.726   2.715  18.999  0.00  0.00    +0.000 A 
ATOM     28  C   UNL     1       0.726   3.384  20.221  0.00  0.00    +0.000 A 
ATOM     29  C   UNL     1       1.503   4.533  20.394  0.00  0.00    +0.000 A 
ENDBRANCH  23  24
ENDBRANCH  10  23
TORSDOF 6
ENDMDL
MODEL 8
REMARK VINA RESULT:      -7.8      0.837      1.660
REMARK  Name = 
REMARK  8 active torsions:
REMARK  status: ('A' for Active; 'I' for Inactive)
REMARK    1  A    between atoms: C_1  and  C_2
REMARK    2  A    between atoms: C_2  and  C_3
REMARK    3  A    between atoms: C_2  and  O_4
REMARK    4  A    between atoms: O_4  and  C_5
REMARK    5  A    between atoms: C_8  and  N_9
REMARK    6  A    between atoms: N_9  and  C_10
REMARK    7  A    between atoms: N_19  and  C_20
REMARK    8  A    between atoms: C_20  and  C_21
REMARK                            x       y       z     vdW  Elec       q    Type
REMARK                         _______ _______ _______ _____ _____    ______ ____
ROOT
ATOM      1  C   UNL     1      -0.280  10.477  19.725  0.00  0.00    +0.000 A 
ATOM      2  N   UNL     1      -0.457  10.339  21.071  0.00  0.00    +0.000 NA
ATOM      3  C   UNL     1       0.273   9.433  21.736  0.00  0.00    +0.000 A 
ATOM      4 CL   UNL     1       0.052   9.413  23.431  0.00  0.00    +0.000 Cl
ATOM      5  N   UNL     1       1.197   8.585  21.259  0.00  0.00    +0.000 NA
ATOM      6  C   UNL     1       1.323   8.727  19.931  0.00  0.00    +0.000 A 
ATOM      7  C   UNL     1       0.639   9.608  19.103  0.00  0.00    +0.000 A 
ATOM      8  N   UNL     1       1.042   9.452  17.794  0.00  0.00    +0.000 NA
ATOM      9  C   UNL     1       1.940   8.487  17.827  0.00  0.00    +0.000 A 
ATOM     10  N   UNL     1       2.164   8.037  19.102  0.00  0.00    +0.000 N 
ENDROOT
BRANCH   1  11
ATOM     11  N   UNL     1      -0.972  11.498  19.033  0.00  0.00    +0.000 N 
ATOM     12  H   UNL     1      -0.623  12.418  19.294  0.00  0.00    +0.000 HD
BRANCH  11  16
ATOM     13  C   UNL     1      -5.178  11.421  18.469  0.00  0.00    +0.000 A 
ATOM     14  C   UNL     1      -4.608  12.220  19.450  0.00  0.00    +0.000 A 
ATOM     15  C   UNL     1      -3.226  12.263  19.605  0.00  0.00    +0.000 A 
ATOM     16  C   UNL     1      -2.369  11.485  18.818  0.00  0.00    +0.000 A 
ATOM     17  C   UNL     1      -2.937  10.702  17.812  0.00  0.00    +0.000 A 
ATOM     18  C   UNL     1      -4.336  10.664  17.646  0.00  0.00    +0.000 A 
BRANCH  13  19
ATOM     19  O   UNL     1      -6.522  11.304  18.236  0.00  0.00    +0.000 OA
BRANCH  19  21
ATOM     20  C   UNL     1      -7.666  13.235  19.054  0.00  0.00    +0.000 C 
ATOM     21  C   UNL     1      -7.235  12.476  17.805  0.00  0.00    +0.000 C 
ATOM     22  C   UNL     1      -6.339  13.354  16.932  0.00  0.00    +0.000 C 
ENDBRANCH  19  21
ENDBRANCH  13  19
ENDBRANCH  11  16
ENDBRANCH   1  11
BRANCH  10  23
ATOM     23  C   UNL     1       3.009   6.921  19.485  0.00  0.00    +0.000 C 
BRANCH  23  24
ATOM     24  C   UNL     1       2.303   5.589  19.411  0.00  0.00    +0.000 A 
ATOM     25  C   UNL     1       1.748   5.009  20.564  0.00  0.00    +0.000 A 
ATOM     26  C   UNL     1       1.019   3.820  20.482  0.00  0.00    +0.000 A 
ATOM     27  C   UNL     1       0.845   3.190  19.253  0.00  0.00    +0.000 A 
ATOM     28  C   UNL     1       1.412   3.741  18.106  0.00  0.00    +0.000 A 
ATOM     29  C   UNL     1       2.140   4.931  18.184  0.00  0.00    +0.000 A 
ENDBRANCH  23  24
ENDBRANCH  10  23
TORSDOF 6
ENDMDL
MODEL 9
REMARK VINA RESULT:      -7.7      4.243      6.334
REMARK  Name = 
REMARK  8 active torsions:
REMARK  status: ('A' for Active; 'I' for Inactive)
REMARK    1  A    between atoms: C_1  and  C_2
REMARK    2  A    between atoms: C_2  and  C_3
REMARK    3  A    between atoms: C_2  and  O_4
REMARK    4  A    between atoms: O_4  and  C_5
REMARK    5  A    between atoms: C_8  and  N_9
REMARK    6  A    between atoms: N_9  and  C_10
REMARK    7  A    between atoms: N_19  and  C_20
REMARK    8  A    between atoms: C_20  and  C_21
REMARK                            x       y       z     vdW  Elec       q    Type
REMARK                         _______ _______ _______ _____ _____    ______ ____
ROOT
ATOM      1  C   UNL     1       2.983   5.584  19.040  0.00  0.00    +0.000 A 
ATOM      2  N   UNL     1       2.062   4.581  19.123  0.00  0.00    +0.000 NA
ATOM      3  C   UNL     1       2.235   3.474  18.386  0.00  0.00    +0.000 A 
ATOM      4 CL   UNL     1       1.083   2.236  18.641  0.00  0.00    +0.000 Cl
ATOM      5  N   UNL     1       3.221   3.184  17.524  0.00  0.00    +0.000 NA
ATOM      6  C   UNL     1       4.090   4.203  17.445  0.00  0.00    +0.000 A 
ATOM      7  C   UNL     1       4.047   5.410  18.132  0.00  0.00    +0.000 A 
ATOM      8  N   UNL     1       5.117   6.204  17.780  0.00  0.00    +0.000 NA
ATOM      9  C   UNL     1       5.784   5.499  16.887  0.00  0.00    +0.000 A 
ATOM     10  N   UNL     1       5.217   4.270  16.673  0.00  0.00    +0.000 N 
ENDROOT
BRANCH   1  11
ATOM     11  N   UNL     1       2.864   6.710  19.888  0.00  0.00    +0.000 N 
ATOM     12  H   UNL     1       2.800   6.428  20.864  0.00  0.00    +0.000 HD
BRANCH  11  16
ATOM     13  C   UNL     1       0.352  10.016  19.005  0.00  0.00    +0.000 A 
ATOM     14  C   UNL     1       0.404   9.486  20.286  0.00  0.00    +0.000 A 
ATOM     15  C   UNL     1       1.256   8.424  20.573  0.00  0.00    +0.000 A 
ATOM     16  C   UNL     1       2.051   7.828  19.588  0.00  0.00    +0.000 A 
ATOM     17  C   UNL     1       2.022   8.376  18.305  0.00  0.00    +0.000 A 
ATOM     18  C   UNL     1       1.169   9.458  18.013  0.00  0.00    +0.000 A 
BRANCH  13  19
ATOM     19  O   UNL     1      -0.451  11.055  18.618  0.00  0.00    +0.000 OA
BRANCH  19  21
ATOM     20  C   UNL     1      -2.583  12.051  19.030  0.00  0.00    +0.000 C 
ATOM     21  C   UNL     1      -1.863  10.811  18.512  0.00  0.00    +0.000 C 
ATOM     22  C   UNL     1      -2.250  10.539  17.059  0.00  0.00    +0.000 C 
ENDBRANCH  19  21
ENDBRANCH  13  19
ENDBRANCH  11  16
ENDBRANCH   1  11
BRANCH  10  23
ATOM     23  C   UNL     1       5.633   3.289  15.689  0.00  0.00    +0.000 C 
BRANCH  23  24
ATOM     24  C   UNL     1       6.231   3.908  14.450  0.00  0.00    +0.000 A 
ATOM     25  C   UNL     1       7.245   4.875  14.552  0.00  0.00    +0.000 A 
ATOM     26  C   UNL     1       7.861   5.384  13.405  0.00  0.00    +0.000 A 
ATOM     27  C   UNL     1       7.465   4.945  12.145  0.00  0.00    +0.000 A 
ATOM     28  C   UNL     1       6.442   4.006  12.029  0.00  0.00    +0.000 A 
ATOM     29  C   UNL     1       5.826   3.492  13.173  0.00  0.00    +0.000 A 
ENDBRANCH  23  24
ENDBRANCH  10  23
TORSDOF 6
ENDMDL
