MODEL 1
REMARK VINA RESULT:      -6.8      0.000      0.000
REMARK  Name = 
REMARK  9 active torsions:
REMARK  status: ('A' for Active; 'I' for Inactive)
REMARK    1  A    between atoms: C_1  and  O_2
REMARK    2  A    between atoms: O_2  and  C_3
REMARK    3  A    between atoms: C_3  and  C_4
REMARK    4  A    between atoms: C_4  and  O_5
REMARK    5  A    between atoms: O_5  and  C_6
REMARK    6  A    between atoms: N_9  and  C_10
REMARK    7  A    between atoms: C_10  and  C_11
REMARK    8  A    between atoms: C_10  and  C_14
REMARK    9  A    between atoms: C_11  and  O_13
REMARK                            x       y       z     vdW  Elec       q    Type
REMARK                         _______ _______ _______ _____ _____    ______ ____
ROOT
ATOM      1  C   UNL     1       6.716   6.029  17.463  0.00  0.00    +0.000 C 
ENDROOT
BRANCH   1   2
ATOM      2  C   UNL     1       6.535   5.259  16.139  0.00  0.00    +0.000 A 
ATOM      3  C   UNL     1       5.629   4.185  16.056  0.00  0.00    +0.000 A 
ATOM      4  C   UNL     1       5.473   3.460  14.869  0.00  0.00    +0.000 A 
ATOM      5  C   UNL     1       6.205   3.815  13.742  0.00  0.00    +0.000 A 
ATOM      6  F   UNL     1       6.071   3.082  12.627  0.00  0.00    +0.000 F 
ATOM      7  C   UNL     1       7.053   4.913  13.775  0.00  0.00    +0.000 A 
ATOM      8 CL   UNL     1       7.955   5.372  12.382  0.00  0.00    +0.000 Cl
ATOM      9  C   UNL     1       7.196   5.649  14.957  0.00  0.00    +0.000 A 
ENDBRANCH   1   2
BRANCH   1  13
ATOM     10  C   UNL     1       2.531   5.938  18.713  0.00  0.00    +0.000 C 
ATOM     11  C   UNL     1       3.051   7.180  17.985  0.00  0.00    +0.000 C 
ATOM     12  C   UNL     1       4.390   6.924  17.286  0.00  0.00    +0.000 C 
ATOM     13  N   UNL     1       5.423   6.349  18.164  0.00  0.00    +0.000 NA
ATOM     14  C   UNL     1       4.925   5.160  18.883  0.00  0.00    +0.000 C 
ATOM     15  C   UNL     1       3.628   5.435  19.647  0.00  0.00    +0.000 C 
BRANCH  10  16
ATOM     16  O   UNL     1       2.139   4.972  17.734  0.00  0.00    +0.000 OA
BRANCH  16  17
ATOM     17  C   UNL     1       1.415   3.828  18.206  0.00  0.00    +0.000 C 
BRANCH  17  18
ATOM     18  C   UNL     1       2.117   2.479  18.020  0.00  0.00    +0.000 C 
BRANCH  18  20
ATOM     19  C   UNL     1       1.696   2.482  20.343  0.00  0.00    +0.000 C 
ATOM     20  O   UNL     1       2.490   1.950  19.292  0.00  0.00    +0.000 OA
ENDBRANCH  18  20
ENDBRANCH  17  18
ENDBRANCH  16  17
ENDBRANCH  10  16
ENDBRANCH   1  13
BRANCH   1  21
ATOM     21  C   UNL     1       7.752   5.396  18.429  0.00  0.00    +0.000 C 
ATOM     22  O   UNL     1       8.153   4.242  18.336  0.00  0.00    +0.000 OA
BRANCH  21  23
ATOM     23  O   UNL     1       8.234   6.224  19.392  0.00  0.00    +0.000 OA
ATOM     24  H   UNL     1       7.787   7.089  19.419  0.00  0.00    +0.000 HD
ENDBRANCH  21  23
ENDBRANCH   1  21
TORSDOF 8
ENDMDL
MODEL 2
REMARK VINA RESULT:      -6.7      4.172      6.975
REMARK  Name = 
REMARK  9 active torsions:
REMARK  status: ('A' for Active; 'I' for Inactive)
REMARK    1  A    between atoms: C_1  and  O_2
REMARK    2  A    between atoms: O_2  and  C_3
REMARK    3  A    between atoms: C_3  and  C_4
REMARK    4  A    between atoms: C_4  and  O_5
REMARK    5  A    between atoms: O_5  and  C_6
REMARK    6  A    between atoms: N_9  and  C_10
REMARK    7  A    between atoms: C_10  and  C_11
REMARK    8  A    between atoms: C_10  and  C_14
REMARK    9  A    between atoms: C_11  and  O_13
REMARK                            x       y       z     vdW  Elec       q    Type
REMARK                         _______ _______ _______ _____ _____    ______ ____
ROOT
ATOM      1  C   UNL     1       2.838   5.956  17.859  0.00  0.00    +0.000 C 
ENDROOT
BRANCH   1   2
ATOM      2  C   UNL     1       2.257   7.251  18.461  0.00  0.00    +0.000 A 
ATOM      3  C   UNL     1       1.866   8.315  17.626  0.00  0.00    +0.000 A 
ATOM      4  C   UNL     1       1.363   9.506  18.159  0.00  0.00    +0.000 A 
ATOM      5  C   UNL     1       1.222   9.642  19.536  0.00  0.00    +0.000 A 
ATOM      6  F   UNL     1       0.776  10.805  20.029  0.00  0.00    +0.000 F 
ATOM      7  C   UNL     1       1.533   8.583  20.379  0.00  0.00    +0.000 A 
ATOM      8 CL   UNL     1       1.350   8.733  22.084  0.00  0.00    +0.000 Cl
ATOM      9  C   UNL     1       2.020   7.385  19.845  0.00  0.00    +0.000 A 
ENDBRANCH   1   2
BRANCH   1  13
ATOM     10  C   UNL     1       7.055   5.829  16.725  0.00  0.00    +0.000 C 
ATOM     11  C   UNL     1       6.430   4.585  17.360  0.00  0.00    +0.000 C 
ATOM     12  C   UNL     1       4.899   4.637  17.352  0.00  0.00    +0.000 C 
ATOM     13  N   UNL     1       4.340   5.870  17.931  0.00  0.00    +0.000 NA
ATOM     14  C   UNL     1       4.949   7.075  17.337  0.00  0.00    +0.000 C 
ATOM     15  C   UNL     1       6.477   7.062  17.414  0.00  0.00    +0.000 C 
BRANCH  10  16
ATOM     16  O   UNL     1       6.796   5.797  15.319  0.00  0.00    +0.000 OA
BRANCH  16  17
ATOM     17  C   UNL     1       7.129   4.587  14.626  0.00  0.00    +0.000 C 
BRANCH  17  18
ATOM     18  C   UNL     1       5.977   3.925  13.862  0.00  0.00    +0.000 C 
BRANCH  18  20
ATOM     19  C   UNL     1       5.382   2.970  11.787  0.00  0.00    +0.000 C 
ATOM     20  O   UNL     1       6.442   3.464  12.594  0.00  0.00    +0.000 OA
ENDBRANCH  18  20
ENDBRANCH  17  18
ENDBRANCH  16  17
ENDBRANCH  10  16
ENDBRANCH   1  13
BRANCH   1  21
ATOM     21  C   UNL     1       2.163   4.657  18.375  0.00  0.00    +0.000 C 
ATOM     22  O   UNL     1       2.387   4.165  19.474  0.00  0.00    +0.000 OA
BRANCH  21  23
ATOM     23  O   UNL     1       1.256   4.096  17.533  0.00  0.00    +0.000 OA
ATOM     24  H   UNL     1       0.368   4.006  17.924  0.00  0.00    +0.000 HD
ENDBRANCH  21  23
ENDBRANCH   1  21
TORSDOF 8
ENDMDL
MODEL 3
REMARK VINA RESULT:      -6.6      1.876      3.180
REMARK  Name = 
REMARK  9 active torsions:
REMARK  status: ('A' for Active; 'I' for Inactive)
REMARK    1  A    between atoms: C_1  and  O_2
REMARK    2  A    between atoms: O_2  and  C_3
REMARK    3  A    between atoms: C_3  and  C_4
REMARK    4  A    between atoms: C_4  and  O_5
REMARK    5  A    between atoms: O_5  and  C_6
REMARK    6  A    between atoms: N_9  and  C_10
REMARK    7  A    between atoms: C_10  and  C_11
REMARK    8  A    between atoms: C_10  and  C_14
REMARK    9  A    between atoms: C_11  and  O_13
REMARK                            x       y       z     vdW  Elec       q    Type
REMARK                         _______ _______ _______ _____ _____    ______ ____
ROOT
ATOM      1  C   UNL     1       4.955   4.941  16.728  0.00  0.00    +0.000 C 
ENDROOT
BRANCH   1   2
ATOM      2  C   UNL     1       5.641   4.726  15.364  0.00  0.00    +0.000 A 
ATOM      3  C   UNL     1       6.949   5.196  15.140  0.00  0.00    +0.000 A 
ATOM      4  C   UNL     1       7.575   5.032  13.900  0.00  0.00    +0.000 A 
ATOM      5  C   UNL     1       6.909   4.375  12.871  0.00  0.00    +0.000 A 
ATOM      6  F   UNL     1       7.510   4.264  11.678  0.00  0.00    +0.000 F 
ATOM      7  C   UNL     1       5.646   3.839  13.085  0.00  0.00    +0.000 A 
ATOM      8 CL   UNL     1       4.816   3.011  11.825  0.00  0.00    +0.000 Cl
ATOM      9  C   UNL     1       5.027   3.988  14.331  0.00  0.00    +0.000 A 
ENDBRANCH   1   2
BRANCH   1  13
ATOM     10  C   UNL     1       1.806   2.641  18.697  0.00  0.00    +0.000 C 
ATOM     11  C   UNL     1       2.891   1.886  17.928  0.00  0.00    +0.000 C 
ATOM     12  C   UNL     1       4.106   2.768  17.624  0.00  0.00    +0.000 C 
ATOM     13  N   UNL     1       3.771   4.040  16.963  0.00  0.00    +0.000 NA
ATOM     14  C   UNL     1       2.712   4.768  17.688  0.00  0.00    +0.000 C 
ATOM     15  C   UNL     1       1.466   3.912  17.925  0.00  0.00    +0.000 C 
BRANCH  10  16
ATOM     16  O   UNL     1       2.285   2.898  20.020  0.00  0.00    +0.000 OA
BRANCH  16  17
ATOM     17  C   UNL     1       1.485   3.755  20.844  0.00  0.00    +0.000 C 
BRANCH  17  18
ATOM     18  C   UNL     1       2.093   5.127  21.156  0.00  0.00    +0.000 C 
BRANCH  18  20
ATOM     19  C   UNL     1       1.969   7.342  20.351  0.00  0.00    +0.000 C 
ATOM     20  O   UNL     1       1.245   6.157  20.648  0.00  0.00    +0.000 OA
ENDBRANCH  18  20
ENDBRANCH  17  18
ENDBRANCH  16  17
ENDBRANCH  10  16
ENDBRANCH   1  13
BRANCH   1  21
ATOM     21  C   UNL     1       5.928   4.937  17.936  0.00  0.00    +0.000 C 
ATOM     22  O   UNL     1       5.809   5.672  18.908  0.00  0.00    +0.000 OA
BRANCH  21  23
ATOM     23  O   UNL     1       6.931   4.022  17.875  0.00  0.00    +0.000 OA
ATOM     24  H   UNL     1       7.424   3.930  18.711  0.00  0.00    +0.000 HD
ENDBRANCH  21  23
ENDBRANCH   1  21
TORSDOF 8
ENDMDL
MODEL 4
REMARK VINA RESULT:      -6.6      2.770      4.289
REMARK  Name = 
REMARK  9 active torsions:
REMARK  status: ('A' for Active; 'I' for Inactive)
REMARK    1  A    between atoms: C_1  and  O_2
REMARK    2  A    between atoms: O_2  and  C_3
REMARK    3  A    between atoms: C_3  and  C_4
REMARK    4  A    between atoms: C_4  and  O_5
REMARK    5  A    between atoms: O_5  and  C_6
REMARK    6  A    between atoms: N_9  and  C_10
REMARK    7  A    between atoms: C_10  and  C_11
REMARK    8  A    between atoms: C_10  and  C_14
REMARK    9  A    between atoms: C_11  and  O_13
REMARK                            x       y       z     vdW  Elec       q    Type
REMARK                         _______ _______ _______ _____ _____    ______ ____
ROOT
ATOM      1  C   UNL     1       2.605   6.105  17.910  0.00  0.00    +0.000 C 
ENDROOT
BRANCH   1   2
ATOM      2  C   UNL     1       4.021   5.730  17.429  0.00  0.00    +0.000 A 
ATOM      3  C   UNL     1       4.248   4.512  16.760  0.00  0.00    +0.000 A 
ATOM      4  C   UNL     1       5.531   4.145  16.342  0.00  0.00    +0.000 A 
ATOM      5  C   UNL     1       6.603   5.003  16.566  0.00  0.00    +0.000 A 
ATOM      6  F   UNL     1       7.831   4.615  16.193  0.00  0.00    +0.000 F 
ATOM      7  C   UNL     1       6.396   6.240  17.160  0.00  0.00    +0.000 A 
ATOM      8 CL   UNL     1       7.712   7.317  17.430  0.00  0.00    +0.000 Cl
ATOM      9  C   UNL     1       5.110   6.615  17.563  0.00  0.00    +0.000 A 
ENDBRANCH   1   2
BRANCH   1  13
ATOM     10  C   UNL     1       2.081   2.722  20.625  0.00  0.00    +0.000 C 
ATOM     11  C   UNL     1       0.982   3.018  19.602  0.00  0.00    +0.000 C 
ATOM     12  C   UNL     1       1.459   3.964  18.496  0.00  0.00    +0.000 C 
ATOM     13  N   UNL     1       2.071   5.207  18.994  0.00  0.00    +0.000 NA
ATOM     14  C   UNL     1       3.121   4.932  19.993  0.00  0.00    +0.000 C 
ATOM     15  C   UNL     1       2.625   4.051  21.142  0.00  0.00    +0.000 C 
BRANCH  10  16
ATOM     16  O   UNL     1       3.079   1.913  19.995  0.00  0.00    +0.000 OA
BRANCH  16  17
ATOM     17  C   UNL     1       4.433   2.100  20.427  0.00  0.00    +0.000 C 
BRANCH  17  18
ATOM     18  C   UNL     1       5.235   0.815  20.656  0.00  0.00    +0.000 C 
BRANCH  18  20
ATOM     19  C   UNL     1       6.466  -0.359  22.294  0.00  0.00    +0.000 C 
ATOM     20  O   UNL     1       5.933   0.897  21.899  0.00  0.00    +0.000 OA
ENDBRANCH  18  20
ENDBRANCH  17  18
ENDBRANCH  16  17
ENDBRANCH  10  16
ENDBRANCH   1  13
BRANCH   1  21
ATOM     21  C   UNL     1       2.434   7.605  18.272  0.00  0.00    +0.000 C 
ATOM     22  O   UNL     1       2.450   8.510  17.447  0.00  0.00    +0.000 OA
BRANCH  21  23
ATOM     23  O   UNL     1       2.224   7.868  19.589  0.00  0.00    +0.000 OA
ATOM     24  H   UNL     1       2.996   7.673  20.151  0.00  0.00    +0.000 HD
ENDBRANCH  21  23
ENDBRANCH   1  21
TORSDOF 8
ENDMDL
MODEL 5
REMARK VINA RESULT:      -6.6      3.481      6.616
REMARK  Name = 
REMARK  9 active torsions:
REMARK  status: ('A' for Active; 'I' for Inactive)
REMARK    1  A    between atoms: C_1  and  O_2
REMARK    2  A    between atoms: O_2  and  C_3
REMARK    3  A    between atoms: C_3  and  C_4
REMARK    4  A    between atoms: C_4  and  O_5
REMARK    5  A    between atoms: O_5  and  C_6
REMARK    6  A    between atoms: N_9  and  C_10
REMARK    7  A    between atoms: C_10  and  C_11
REMARK    8  A    between atoms: C_10  and  C_14
REMARK    9  A    between atoms: C_11  and  O_13
REMARK                            x       y       z     vdW  Elec       q    Type
REMARK                         _______ _______ _______ _____ _____    ______ ____
ROOT
ATOM      1  C   UNL     1       3.242   3.816  17.604  0.00  0.00    +0.000 C 
ENDROOT
BRANCH   1   2
ATOM      2  C   UNL     1       2.812   5.025  18.457  0.00  0.00    +0.000 A 
ATOM      3  C   UNL     1       2.524   4.867  19.827  0.00  0.00    +0.000 A 
ATOM      4  C   UNL     1       2.107   5.950  20.608  0.00  0.00    +0.000 A 
ATOM      5  C   UNL     1       1.994   7.213  20.035  0.00  0.00    +0.000 A 
ATOM      6  F   UNL     1       1.554   8.228  20.791  0.00  0.00    +0.000 F 
ATOM      7  C   UNL     1       2.340   7.411  18.705  0.00  0.00    +0.000 A 
ATOM      8 CL   UNL     1       2.219   8.971  17.989  0.00  0.00    +0.000 Cl
ATOM      9  C   UNL     1       2.774   6.331  17.928  0.00  0.00    +0.000 A 
ENDBRANCH   1   2
BRANCH   1  13
ATOM     10  C   UNL     1       7.178   5.258  16.372  0.00  0.00    +0.000 C 
ATOM     11  C   UNL     1       6.363   4.421  15.384  0.00  0.00    +0.000 C 
ATOM     12  C   UNL     1       4.890   4.313  15.792  0.00  0.00    +0.000 C 
ATOM     13  N   UNL     1       4.686   3.854  17.176  0.00  0.00    +0.000 NA
ATOM     14  C   UNL     1       5.481   4.644  18.135  0.00  0.00    +0.000 C 
ATOM     15  C   UNL     1       6.967   4.688  17.772  0.00  0.00    +0.000 C 
BRANCH  10  16
ATOM     16  O   UNL     1       6.769   6.623  16.252  0.00  0.00    +0.000 OA
BRANCH  16  17
ATOM     17  C   UNL     1       6.843   7.428  17.436  0.00  0.00    +0.000 C 
BRANCH  17  18
ATOM     18  C   UNL     1       8.183   8.133  17.672  0.00  0.00    +0.000 C 
BRANCH  18  20
ATOM     19  C   UNL     1       9.018  10.308  18.052  0.00  0.00    +0.000 C 
ATOM     20  O   UNL     1       7.959   9.395  18.300  0.00  0.00    +0.000 OA
ENDBRANCH  18  20
ENDBRANCH  17  18
ENDBRANCH  16  17
ENDBRANCH  10  16
ENDBRANCH   1  13
BRANCH   1  21
ATOM     21  C   UNL     1       2.860   2.440  18.212  0.00  0.00    +0.000 C 
ATOM     22  O   UNL     1       3.638   1.733  18.840  0.00  0.00    +0.000 OA
BRANCH  21  23
ATOM     23  O   UNL     1       1.565   2.065  18.039  0.00  0.00    +0.000 OA
ATOM     24  H   UNL     1       0.962   2.433  18.710  0.00  0.00    +0.000 HD
ENDBRANCH  21  23
ENDBRANCH   1  21
TORSDOF 8
ENDMDL
MODEL 6
REMARK VINA RESULT:      -6.5      3.929      6.828
REMARK  Name = 
REMARK  9 active torsions:
REMARK  status: ('A' for Active; 'I' for Inactive)
REMARK    1  A    between atoms: C_1  and  O_2
REMARK    2  A    between atoms: O_2  and  C_3
REMARK    3  A    between atoms: C_3  and  C_4
REMARK    4  A    between atoms: C_4  and  O_5
REMARK    5  A    between atoms: O_5  and  C_6
REMARK    6  A    between atoms: N_9  and  C_10
REMARK    7  A    between atoms: C_10  and  C_11
REMARK    8  A    between atoms: C_10  and  C_14
REMARK    9  A    between atoms: C_11  and  O_13
REMARK                            x       y       z     vdW  Elec       q    Type
REMARK                         _______ _______ _______ _____ _____    ______ ____
ROOT
ATOM      1  C   UNL     1       2.896   5.563  17.824  0.00  0.00    +0.000 C 
ENDROOT
BRANCH   1   2
ATOM      2  C   UNL     1       2.347   6.727  18.673  0.00  0.00    +0.000 A 
ATOM      3  C   UNL     1       2.113   6.558  20.051  0.00  0.00    +0.000 A 
ATOM      4  C   UNL     1       1.591   7.597  20.829  0.00  0.00    +0.000 A 
ATOM      5  C   UNL     1       1.316   8.828  20.244  0.00  0.00    +0.000 A 
ATOM      6  F   UNL     1       0.778   9.797  20.997  0.00  0.00    +0.000 F 
ATOM      7  C   UNL     1       1.603   9.044  18.902  0.00  0.00    +0.000 A 
ATOM      8 CL   UNL     1       1.280  10.568  18.169  0.00  0.00    +0.000 Cl
ATOM      9  C   UNL     1       2.142   8.011  18.128  0.00  0.00    +0.000 A 
ENDBRANCH   1   2
BRANCH   1  13
ATOM     10  C   UNL     1       7.006   5.645  16.345  0.00  0.00    +0.000 C 
ATOM     11  C   UNL     1       6.456   4.332  16.906  0.00  0.00    +0.000 C 
ATOM     12  C   UNL     1       4.929   4.348  17.027  0.00  0.00    +0.000 C 
ATOM     13  N   UNL     1       4.399   5.507  17.765  0.00  0.00    +0.000 NA
ATOM     14  C   UNL     1       4.937   6.777  17.242  0.00  0.00    +0.000 C 
ATOM     15  C   UNL     1       6.467   6.793  17.194  0.00  0.00    +0.000 C 
BRANCH  10  16
ATOM     16  O   UNL     1       6.631   5.740  14.968  0.00  0.00    +0.000 OA
BRANCH  16  17
ATOM     17  C   UNL     1       7.109   4.710  14.093  0.00  0.00    +0.000 C 
BRANCH  17  18
ATOM     18  C   UNL     1       6.025   3.884  13.392  0.00  0.00    +0.000 C 
BRANCH  18  20
ATOM     19  C   UNL     1       5.662   2.360  11.626  0.00  0.00    +0.000 C 
ATOM     20  O   UNL     1       6.558   3.298  12.205  0.00  0.00    +0.000 OA
ENDBRANCH  18  20
ENDBRANCH  17  18
ENDBRANCH  16  17
ENDBRANCH  10  16
ENDBRANCH   1  13
BRANCH   1  21
ATOM     21  C   UNL     1       2.282   4.180  18.170  0.00  0.00    +0.000 C 
ATOM     22  O   UNL     1       2.687   3.465  19.078  0.00  0.00    +0.000 OA
BRANCH  21  23
ATOM     23  O   UNL     1       1.217   3.808  17.413  0.00  0.00    +0.000 OA
ATOM     24  H   UNL     1       0.805   4.549  16.932  0.00  0.00    +0.000 HD
ENDBRANCH  21  23
ENDBRANCH   1  21
TORSDOF 8
ENDMDL
MODEL 7
REMARK VINA RESULT:      -6.5      1.925      2.682
REMARK  Name = 
REMARK  9 active torsions:
REMARK  status: ('A' for Active; 'I' for Inactive)
REMARK    1  A    between atoms: C_1  and  O_2
REMARK    2  A    between atoms: O_2  and  C_3
REMARK    3  A    between atoms: C_3  and  C_4
REMARK    4  A    between atoms: C_4  and  O_5
REMARK    5  A    between atoms: O_5  and  C_6
REMARK    6  A    between atoms: N_9  and  C_10
REMARK    7  A    between atoms: C_10  and  C_11
REMARK    8  A    between atoms: C_10  and  C_14
REMARK    9  A    between atoms: C_11  and  O_13
REMARK                            x       y       z     vdW  Elec       q    Type
REMARK                         _______ _______ _______ _____ _____    ______ ____
ROOT
ATOM      1  C   UNL     1       6.211   4.902  16.529  0.00  0.00    +0.000 C 
ENDROOT
BRANCH   1   2
ATOM      2  C   UNL     1       6.558   4.721  15.037  0.00  0.00    +0.000 A 
ATOM      3  C   UNL     1       7.626   5.434  14.460  0.00  0.00    +0.000 A 
ATOM      4  C   UNL     1       7.936   5.299  13.103  0.00  0.00    +0.000 A 
ATOM      5  C   UNL     1       7.195   4.432  12.307  0.00  0.00    +0.000 A 
ATOM      6  F   UNL     1       7.482   4.348  11.001  0.00  0.00    +0.000 F 
ATOM      7  C   UNL     1       6.182   3.664  12.865  0.00  0.00    +0.000 A 
ATOM      8 CL   UNL     1       5.267   2.576  11.895  0.00  0.00    +0.000 Cl
ATOM      9  C   UNL     1       5.883   3.785  14.227  0.00  0.00    +0.000 A 
ENDBRANCH   1   2
BRANCH   1  13
ATOM     10  C   UNL     1       2.693   3.126  18.413  0.00  0.00    +0.000 C 
ATOM     11  C   UNL     1       4.064   2.880  19.045  0.00  0.00    +0.000 C 
ATOM     12  C   UNL     1       5.127   3.850  18.519  0.00  0.00    +0.000 C 
ATOM     13  N   UNL     1       5.218   3.898  17.050  0.00  0.00    +0.000 NA
ATOM     14  C   UNL     1       3.897   4.117  16.430  0.00  0.00    +0.000 C 
ATOM     15  C   UNL     1       2.852   3.101  16.896  0.00  0.00    +0.000 C 
BRANCH  10  16
ATOM     16  O   UNL     1       2.185   4.369  18.904  0.00  0.00    +0.000 OA
BRANCH  16  17
ATOM     17  C   UNL     1       1.411   4.322  20.110  0.00  0.00    +0.000 C 
BRANCH  17  18
ATOM     18  C   UNL     1       2.185   4.598  21.403  0.00  0.00    +0.000 C 
BRANCH  18  20
ATOM     19  C   UNL     1       1.372   2.407  21.733  0.00  0.00    +0.000 C 
ATOM     20  O   UNL     1       2.293   3.397  22.167  0.00  0.00    +0.000 OA
ENDBRANCH  18  20
ENDBRANCH  17  18
ENDBRANCH  16  17
ENDBRANCH  10  16
ENDBRANCH   1  13
BRANCH   1  21
ATOM     21  C   UNL     1       7.448   5.023  17.458  0.00  0.00    +0.000 C 
ATOM     22  O   UNL     1       8.249   4.116  17.646  0.00  0.00    +0.000 OA
BRANCH  21  23
ATOM     23  O   UNL     1       7.622   6.237  18.043  0.00  0.00    +0.000 OA
ATOM     24  H   UNL     1       8.341   6.760  17.644  0.00  0.00    +0.000 HD
ENDBRANCH  21  23
ENDBRANCH   1  21
TORSDOF 8
ENDMDL
MODEL 8
REMARK VINA RESULT:      -6.5      3.775      6.895
REMARK  Name = 
REMARK  9 active torsions:
REMARK  status: ('A' for Active; 'I' for Inactive)
REMARK    1  A    between atoms: C_1  and  O_2
REMARK    2  A    between atoms: O_2  and  C_3
REMARK    3  A    between atoms: C_3  and  C_4
REMARK    4  A    between atoms: C_4  and  O_5
REMARK    5  A    between atoms: O_5  and  C_6
REMARK    6  A    between atoms: N_9  and  C_10
REMARK    7  A    between atoms: C_10  and  C_11
REMARK    8  A    between atoms: C_10  and  C_14
REMARK    9  A    between atoms: C_11  and  O_13
REMARK                            x       y       z     vdW  Elec       q    Type
REMARK                         _______ _______ _______ _____ _____    ______ ____
ROOT
ATOM      1  C   UNL     1       4.134   4.087  18.448  0.00  0.00    +0.000 C 
ENDROOT
BRANCH   1   2
ATOM      2  C   UNL     1       3.276   5.219  19.048  0.00  0.00    +0.000 A 
ATOM      3  C   UNL     1       2.666   5.063  20.307  0.00  0.00    +0.000 A 
ATOM      4  C   UNL     1       1.864   6.071  20.852  0.00  0.00    +0.000 A 
ATOM      5  C   UNL     1       1.678   7.260  20.154  0.00  0.00    +0.000 A 
ATOM      6  F   UNL     1       0.873   8.196  20.675  0.00  0.00    +0.000 F 
ATOM      7  C   UNL     1       2.324   7.468  18.943  0.00  0.00    +0.000 A 
ATOM      8 CL   UNL     1       2.115   8.941  18.077  0.00  0.00    +0.000 Cl
ATOM      9  C   UNL     1       3.141   6.467  18.406  0.00  0.00    +0.000 A 
ENDBRANCH   1   2
BRANCH   1  13
ATOM     10  C   UNL     1       7.765   6.445  17.864  0.00  0.00    +0.000 C 
ATOM     11  C   UNL     1       7.251   5.592  16.702  0.00  0.00    +0.000 C 
ATOM     12  C   UNL     1       5.804   5.135  16.914  0.00  0.00    +0.000 C 
ATOM     13  N   UNL     1       5.569   4.472  18.207  0.00  0.00    +0.000 NA
ATOM     14  C   UNL     1       6.077   5.279  19.333  0.00  0.00    +0.000 C 
ATOM     15  C   UNL     1       7.546   5.671  19.161  0.00  0.00    +0.000 C 
BRANCH  10  16
ATOM     16  O   UNL     1       7.083   7.702  17.837  0.00  0.00    +0.000 OA
BRANCH  16  17
ATOM     17  C   UNL     1       7.871   8.860  17.531  0.00  0.00    +0.000 C 
BRANCH  17  18
ATOM     18  C   UNL     1       8.731   9.396  18.681  0.00  0.00    +0.000 C 
BRANCH  18  20
ATOM     19  C   UNL     1      10.100  11.203  19.339  0.00  0.00    +0.000 C 
ATOM     20  O   UNL     1       9.398  10.588  18.268  0.00  0.00    +0.000 OA
ENDBRANCH  18  20
ENDBRANCH  17  18
ENDBRANCH  16  17
ENDBRANCH  10  16
ENDBRANCH   1  13
BRANCH   1  21
ATOM     21  C   UNL     1       4.021   2.736  19.204  0.00  0.00    +0.000 C 
ATOM     22  O   UNL     1       4.798   2.379  20.080  0.00  0.00    +0.000 OA
BRANCH  21  23
ATOM     23  O   UNL     1       2.960   1.960  18.857  0.00  0.00    +0.000 OA
ATOM     24  H   UNL     1       2.983   1.071  19.256  0.00  0.00    +0.000 HD
ENDBRANCH  21  23
ENDBRANCH   1  21
TORSDOF 8
ENDMDL
MODEL 9
REMARK VINA RESULT:      -6.4      3.873      7.075
REMARK  Name = 
REMARK  9 active torsions:
REMARK  status: ('A' for Active; 'I' for Inactive)
REMARK    1  A    between atoms: C_1  and  O_2
REMARK    2  A    between atoms: O_2  and  C_3
REMARK    3  A    between atoms: C_3  and  C_4
REMARK    4  A    between atoms: C_4  and  O_5
REMARK    5  A    between atoms: O_5  and  C_6
REMARK    6  A    between atoms: N_9  and  C_10
REMARK    7  A    between atoms: C_10  and  C_11
REMARK    8  A    between atoms: C_10  and  C_14
REMARK    9  A    between atoms: C_11  and  O_13
REMARK                            x       y       z     vdW  Elec       q    Type
REMARK                         _______ _______ _______ _____ _____    ______ ____
ROOT
ATOM      1  C   UNL     1       3.356   4.955  17.683  0.00  0.00    +0.000 C 
ENDROOT
BRANCH   1   2
ATOM      2  C   UNL     1       2.731   6.097  18.510  0.00  0.00    +0.000 A 
ATOM      3  C   UNL     1       2.316   5.874  19.837  0.00  0.00    +0.000 A 
ATOM      4  C   UNL     1       1.723   6.893  20.590  0.00  0.00    +0.000 A 
ATOM      5  C   UNL     1       1.559   8.157  20.034  0.00  0.00    +0.000 A 
ATOM      6  F   UNL     1       0.952   9.108  20.758  0.00  0.00    +0.000 F 
ATOM      7  C   UNL     1       2.023   8.424  18.753  0.00  0.00    +0.000 A 
ATOM      8 CL   UNL     1       1.839   9.988  18.058  0.00  0.00    +0.000 Cl
ATOM      9  C   UNL     1       2.632   7.410  18.006  0.00  0.00    +0.000 A 
ENDBRANCH   1   2
BRANCH   1  13
ATOM     10  C   UNL     1       7.496   6.342  17.815  0.00  0.00    +0.000 C 
ATOM     11  C   UNL     1       6.954   5.781  16.499  0.00  0.00    +0.000 C 
ATOM     12  C   UNL     1       5.424   5.694  16.493  0.00  0.00    +0.000 C 
ATOM     13  N   UNL     1       4.861   4.979  17.650  0.00  0.00    +0.000 NA
ATOM     14  C   UNL     1       5.391   5.503  18.923  0.00  0.00    +0.000 C 
ATOM     15  C   UNL     1       6.921   5.517  18.963  0.00  0.00    +0.000 C 
BRANCH  10  16
ATOM     16  O   UNL     1       7.151   7.728  17.891  0.00  0.00    +0.000 OA
BRANCH  16  17
ATOM     17  C   UNL     1       8.172   8.671  17.536  0.00  0.00    +0.000 C 
BRANCH  17  18
ATOM     18  C   UNL     1       8.742   9.495  18.696  0.00  0.00    +0.000 C 
BRANCH  18  20
ATOM     19  C   UNL     1       8.929  11.749  18.021  0.00  0.00    +0.000 C 
ATOM     20  O   UNL     1       9.605  10.511  18.186  0.00  0.00    +0.000 OA
ENDBRANCH  18  20
ENDBRANCH  17  18
ENDBRANCH  16  17
ENDBRANCH  10  16
ENDBRANCH   1  13
BRANCH   1  21
ATOM     21  C   UNL     1       2.812   3.545  18.036  0.00  0.00    +0.000 C 
ATOM     22  O   UNL     1       3.451   2.705  18.658  0.00  0.00    +0.000 OA
BRANCH  21  23
ATOM     23  O   UNL     1       1.537   3.294  17.638  0.00  0.00    +0.000 OA
ATOM     24  H   UNL     1       0.864   3.690  18.220  0.00  0.00    +0.000 HD
ENDBRANCH  21  23
ENDBRANCH   1  21
TORSDOF 8
ENDMDL
