MODEL 1
REMARK VINA RESULT:      -6.7      0.000      0.000
REMARK  Name = 
REMARK  5 active torsions:
REMARK  status: ('A' for Active; 'I' for Inactive)
REMARK    1  A    between atoms: C_2  and  O_3
REMARK    2  A    between atoms: C_2  and  C_11
REMARK    3  A    between atoms: O_3  and  C_4
REMARK    4  A    between atoms: C_4  and  C_5
REMARK    5  A    between atoms: C_5  and  N_6
REMARK                            x       y       z     vdW  Elec       q    Type
REMARK                         _______ _______ _______ _____ _____    ______ ____
ROOT
ATOM      1  O   UNL     1       5.718   4.047  19.214  0.00  0.00    +0.000 OA
ATOM      2  C   UNL     1       4.741   4.778  19.193  0.00  0.00    +0.000 C 
ENDROOT
BRANCH   2   3
ATOM      3  C   UNL     1       3.348   4.307  19.410  0.00  0.00    +0.000 A 
ATOM      4  C   UNL     1       2.608   5.060  20.344  0.00  0.00    +0.000 A 
ATOM      5  C   UNL     1       1.315   4.686  20.709  0.00  0.00    +0.000 A 
ATOM      6  C   UNL     1       0.741   3.556  20.141  0.00  0.00    +0.000 A 
ATOM      7  C   UNL     1       1.465   2.809  19.215  0.00  0.00    +0.000 A 
ATOM      8  F   UNL     1       0.880   1.718  18.694  0.00  0.00    +0.000 F 
ATOM      9  C   UNL     1       2.764   3.165  18.836  0.00  0.00    +0.000 A 
ATOM     10 CL   UNL     1       3.534   2.147  17.665  0.00  0.00    +0.000 Cl
ENDBRANCH   2   3
BRANCH   2  11
ATOM     11  O   UNL     1       4.727   6.053  18.767  0.00  0.00    +0.000 OA
BRANCH  11  12
ATOM     12  C   UNL     1       4.337   6.281  17.409  0.00  0.00    +0.000 C 
BRANCH  12  13
ATOM     13  C   UNL     1       5.632   6.631  16.696  0.00  0.00    +0.000 C 
BRANCH  13  14
ATOM     14  N   UNL     1       6.033   5.624  15.754  0.00  0.00    +0.000 N 
ATOM     15  C   UNL     1       5.332   4.529  15.362  0.00  0.00    +0.000 A 
ATOM     16  N   UNL     1       6.051   3.843  14.506  0.00  0.00    +0.000 NA
ATOM     17  C   UNL     1       7.201   4.570  14.413  0.00  0.00    +0.000 A 
ATOM     18  N   UNL     1       7.236   5.678  15.161  0.00  0.00    +0.000 NA
ENDBRANCH  13  14
ENDBRANCH  12  13
ENDBRANCH  11  12
ENDBRANCH   2  11
TORSDOF 5
ENDMDL
MODEL 2
REMARK VINA RESULT:      -6.7      2.049      2.357
REMARK  Name = 
REMARK  5 active torsions:
REMARK  status: ('A' for Active; 'I' for Inactive)
REMARK    1  A    between atoms: C_2  and  O_3
REMARK    2  A    between atoms: C_2  and  C_11
REMARK    3  A    between atoms: O_3  and  C_4
REMARK    4  A    between atoms: C_4  and  C_5
REMARK    5  A    between atoms: C_5  and  N_6
REMARK                            x       y       z     vdW  Elec       q    Type
REMARK                         _______ _______ _______ _____ _____    ______ ____
ROOT
ATOM      1  O   UNL     1       6.195   5.133  20.037  0.00  0.00    +0.000 OA
ATOM      2  C   UNL     1       5.533   5.309  19.027  0.00  0.00    +0.000 C 
ENDROOT
BRANCH   2   3
ATOM      3  C   UNL     1       4.308   4.535  18.693  0.00  0.00    +0.000 A 
ATOM      4  C   UNL     1       4.424   3.141  18.861  0.00  0.00    +0.000 A 
ATOM      5  C   UNL     1       3.382   2.283  18.507  0.00  0.00    +0.000 A 
ATOM      6  C   UNL     1       2.208   2.809  17.985  0.00  0.00    +0.000 A 
ATOM      7  C   UNL     1       2.085   4.186  17.818  0.00  0.00    +0.000 A 
ATOM      8  F   UNL     1       0.938   4.656  17.303  0.00  0.00    +0.000 F 
ATOM      9  C   UNL     1       3.118   5.064  18.164  0.00  0.00    +0.000 A 
ATOM     10 CL   UNL     1       2.815   6.751  17.912  0.00  0.00    +0.000 Cl
ENDBRANCH   2   3
BRANCH   2  11
ATOM     11  O   UNL     1       5.901   6.054  17.971  0.00  0.00    +0.000 OA
BRANCH  11  12
ATOM     12  C   UNL     1       7.290   6.052  17.626  0.00  0.00    +0.000 C 
BRANCH  12  13
ATOM     13  C   UNL     1       7.531   4.676  17.028  0.00  0.00    +0.000 C 
BRANCH  13  14
ATOM     14  N   UNL     1       7.056   4.571  15.678  0.00  0.00    +0.000 N 
ATOM     15  C   UNL     1       6.016   3.826  15.220  0.00  0.00    +0.000 A 
ATOM     16  N   UNL     1       5.916   3.981  13.922  0.00  0.00    +0.000 NA
ATOM     17  C   UNL     1       6.936   4.838  13.631  0.00  0.00    +0.000 A 
ATOM     18  N   UNL     1       7.664   5.233  14.681  0.00  0.00    +0.000 NA
ENDBRANCH  13  14
ENDBRANCH  12  13
ENDBRANCH  11  12
ENDBRANCH   2  11
TORSDOF 5
ENDMDL
MODEL 3
REMARK VINA RESULT:      -6.7      1.871      2.433
REMARK  Name = 
REMARK  5 active torsions:
REMARK  status: ('A' for Active; 'I' for Inactive)
REMARK    1  A    between atoms: C_2  and  O_3
REMARK    2  A    between atoms: C_2  and  C_11
REMARK    3  A    between atoms: O_3  and  C_4
REMARK    4  A    between atoms: C_4  and  C_5
REMARK    5  A    between atoms: C_5  and  N_6
REMARK                            x       y       z     vdW  Elec       q    Type
REMARK                         _______ _______ _______ _____ _____    ______ ____
ROOT
ATOM      1  O   UNL     1       2.551   7.010  18.065  0.00  0.00    +0.000 OA
ATOM      2  C   UNL     1       3.067   5.926  17.849  0.00  0.00    +0.000 C 
ENDROOT
BRANCH   2   3
ATOM      3  C   UNL     1       2.559   4.640  18.396  0.00  0.00    +0.000 A 
ATOM      4  C   UNL     1       2.689   3.536  17.529  0.00  0.00    +0.000 A 
ATOM      5  C   UNL     1       2.181   2.284  17.877  0.00  0.00    +0.000 A 
ATOM      6  C   UNL     1       1.542   2.118  19.099  0.00  0.00    +0.000 A 
ATOM      7  C   UNL     1       1.413   3.203  19.961  0.00  0.00    +0.000 A 
ATOM      8  F   UNL     1       0.782   3.005  21.129  0.00  0.00    +0.000 F 
ATOM      9  C   UNL     1       1.912   4.468  19.632  0.00  0.00    +0.000 A 
ATOM     10 CL   UNL     1       1.689   5.718  20.810  0.00  0.00    +0.000 Cl
ENDBRANCH   2   3
BRANCH   2  11
ATOM     11  O   UNL     1       4.269   5.732  17.279  0.00  0.00    +0.000 OA
BRANCH  11  12
ATOM     12  C   UNL     1       5.418   5.878  18.119  0.00  0.00    +0.000 C 
BRANCH  12  13
ATOM     13  C   UNL     1       6.327   4.726  17.724  0.00  0.00    +0.000 C 
BRANCH  13  14
ATOM     14  N   UNL     1       6.481   4.608  16.302  0.00  0.00    +0.000 N 
ATOM     15  C   UNL     1       5.932   3.674  15.483  0.00  0.00    +0.000 A 
ATOM     16  N   UNL     1       6.332   3.892  14.253  0.00  0.00    +0.000 NA
ATOM     17  C   UNL     1       7.140   4.984  14.379  0.00  0.00    +0.000 A 
ATOM     18  N   UNL     1       7.261   5.463  15.621  0.00  0.00    +0.000 NA
ENDBRANCH  13  14
ENDBRANCH  12  13
ENDBRANCH  11  12
ENDBRANCH   2  11
TORSDOF 5
ENDMDL
MODEL 4
REMARK VINA RESULT:      -6.6      2.281      3.129
REMARK  Name = 
REMARK  5 active torsions:
REMARK  status: ('A' for Active; 'I' for Inactive)
REMARK    1  A    between atoms: C_2  and  O_3
REMARK    2  A    between atoms: C_2  and  C_11
REMARK    3  A    between atoms: O_3  and  C_4
REMARK    4  A    between atoms: C_4  and  C_5
REMARK    5  A    between atoms: C_5  and  N_6
REMARK                            x       y       z     vdW  Elec       q    Type
REMARK                         _______ _______ _______ _____ _____    ______ ____
ROOT
ATOM      1  O   UNL     1       4.081   6.359  17.256  0.00  0.00    +0.000 OA
ATOM      2  C   UNL     1       3.939   5.149  17.181  0.00  0.00    +0.000 C 
ENDROOT
BRANCH   2   3
ATOM      3  C   UNL     1       2.963   4.375  17.993  0.00  0.00    +0.000 A 
ATOM      4  C   UNL     1       2.749   3.052  17.558  0.00  0.00    +0.000 A 
ATOM      5  C   UNL     1       1.801   2.235  18.174  0.00  0.00    +0.000 A 
ATOM      6  C   UNL     1       1.056   2.730  19.237  0.00  0.00    +0.000 A 
ATOM      7  C   UNL     1       1.264   4.035  19.673  0.00  0.00    +0.000 A 
ATOM      8  F   UNL     1       0.519   4.480  20.699  0.00  0.00    +0.000 F 
ATOM      9  C   UNL     1       2.208   4.872  19.069  0.00  0.00    +0.000 A 
ATOM     10 CL   UNL     1       2.364   6.465  19.730  0.00  0.00    +0.000 Cl
ENDBRANCH   2   3
BRANCH   2  11
ATOM     11  O   UNL     1       4.760   4.304  16.533  0.00  0.00    +0.000 OA
BRANCH  11  12
ATOM     12  C   UNL     1       5.492   4.832  15.422  0.00  0.00    +0.000 C 
BRANCH  12  13
ATOM     13  C   UNL     1       6.950   4.660  15.812  0.00  0.00    +0.000 C 
BRANCH  13  14
ATOM     14  N   UNL     1       7.337   5.519  16.894  0.00  0.00    +0.000 N 
ATOM     15  C   UNL     1       7.587   5.170  18.182  0.00  0.00    +0.000 A 
ATOM     16  N   UNL     1       7.889   6.246  18.868  0.00  0.00    +0.000 NA
ATOM     17  C   UNL     1       7.801   7.241  17.940  0.00  0.00    +0.000 A 
ATOM     18  N   UNL     1       7.468   6.843  16.708  0.00  0.00    +0.000 NA
ENDBRANCH  13  14
ENDBRANCH  12  13
ENDBRANCH  11  12
ENDBRANCH   2  11
TORSDOF 5
ENDMDL
MODEL 5
REMARK VINA RESULT:      -6.6      1.645      2.115
REMARK  Name = 
REMARK  5 active torsions:
REMARK  status: ('A' for Active; 'I' for Inactive)
REMARK    1  A    between atoms: C_2  and  O_3
REMARK    2  A    between atoms: C_2  and  C_11
REMARK    3  A    between atoms: O_3  and  C_4
REMARK    4  A    between atoms: C_4  and  C_5
REMARK    5  A    between atoms: C_5  and  N_6
REMARK                            x       y       z     vdW  Elec       q    Type
REMARK                         _______ _______ _______ _____ _____    ______ ____
ROOT
ATOM      1  O   UNL     1       5.677   5.340  19.765  0.00  0.00    +0.000 OA
ATOM      2  C   UNL     1       4.872   5.209  18.857  0.00  0.00    +0.000 C 
ENDROOT
BRANCH   2   3
ATOM      3  C   UNL     1       3.767   4.214  18.863  0.00  0.00    +0.000 A 
ATOM      4  C   UNL     1       4.003   3.065  18.083  0.00  0.00    +0.000 A 
ATOM      5  C   UNL     1       3.021   2.085  17.929  0.00  0.00    +0.000 A 
ATOM      6  C   UNL     1       1.792   2.240  18.558  0.00  0.00    +0.000 A 
ATOM      7  C   UNL     1       1.554   3.372  19.332  0.00  0.00    +0.000 A 
ATOM      8  F   UNL     1       0.352   3.490  19.918  0.00  0.00    +0.000 F 
ATOM      9  C   UNL     1       2.523   4.368  19.499  0.00  0.00    +0.000 A 
ATOM     10 CL   UNL     1       2.087   5.711  20.501  0.00  0.00    +0.000 Cl
ENDBRANCH   2   3
BRANCH   2  11
ATOM     11  O   UNL     1       4.969   5.770  17.639  0.00  0.00    +0.000 OA
BRANCH  11  12
ATOM     12  C   UNL     1       6.219   6.381  17.303  0.00  0.00    +0.000 C 
BRANCH  12  13
ATOM     13  C   UNL     1       7.110   5.222  16.891  0.00  0.00    +0.000 C 
BRANCH  13  14
ATOM     14  N   UNL     1       6.918   4.837  15.522  0.00  0.00    +0.000 N 
ATOM     15  C   UNL     1       6.117   3.850  15.042  0.00  0.00    +0.000 A 
ATOM     16  N   UNL     1       6.236   3.798  13.737  0.00  0.00    +0.000 NA
ATOM     17  C   UNL     1       7.139   4.784  13.467  0.00  0.00    +0.000 A 
ATOM     18  N   UNL     1       7.585   5.455  14.534  0.00  0.00    +0.000 NA
ENDBRANCH  13  14
ENDBRANCH  12  13
ENDBRANCH  11  12
ENDBRANCH   2  11
TORSDOF 5
ENDMDL
MODEL 6
REMARK VINA RESULT:      -6.6      1.100      1.441
REMARK  Name = 
REMARK  5 active torsions:
REMARK  status: ('A' for Active; 'I' for Inactive)
REMARK    1  A    between atoms: C_2  and  O_3
REMARK    2  A    between atoms: C_2  and  C_11
REMARK    3  A    between atoms: O_3  and  C_4
REMARK    4  A    between atoms: C_4  and  C_5
REMARK    5  A    between atoms: C_5  and  N_6
REMARK                            x       y       z     vdW  Elec       q    Type
REMARK                         _______ _______ _______ _____ _____    ______ ____
ROOT
ATOM      1  O   UNL     1       3.598   6.923  17.540  0.00  0.00    +0.000 OA
ATOM      2  C   UNL     1       3.829   5.930  18.211  0.00  0.00    +0.000 C 
ENDROOT
BRANCH   2   3
ATOM      3  C   UNL     1       2.775   5.046  18.777  0.00  0.00    +0.000 A 
ATOM      4  C   UNL     1       2.210   5.499  19.985  0.00  0.00    +0.000 A 
ATOM      5  C   UNL     1       1.269   4.732  20.673  0.00  0.00    +0.000 A 
ATOM      6  C   UNL     1       0.877   3.503  20.157  0.00  0.00    +0.000 A 
ATOM      7  C   UNL     1       1.430   3.050  18.963  0.00  0.00    +0.000 A 
ATOM      8  F   UNL     1       1.033   1.854  18.501  0.00  0.00    +0.000 F 
ATOM      9  C   UNL     1       2.377   3.802  18.258  0.00  0.00    +0.000 A 
ATOM     10 CL   UNL     1       2.966   3.116  16.781  0.00  0.00    +0.000 Cl
ENDBRANCH   2   3
BRANCH   2  11
ATOM     11  O   UNL     1       5.025   5.594  18.724  0.00  0.00    +0.000 OA
BRANCH  11  12
ATOM     12  C   UNL     1       6.184   5.986  17.982  0.00  0.00    +0.000 C 
BRANCH  12  13
ATOM     13  C   UNL     1       6.768   4.679  17.473  0.00  0.00    +0.000 C 
BRANCH  13  14
ATOM     14  N   UNL     1       6.729   4.577  16.042  0.00  0.00    +0.000 N 
ATOM     15  C   UNL     1       6.149   3.602  15.295  0.00  0.00    +0.000 A 
ATOM     16  N   UNL     1       6.351   3.857  14.024  0.00  0.00    +0.000 NA
ATOM     17  C   UNL     1       7.076   5.013  14.050  0.00  0.00    +0.000 A 
ATOM     18  N   UNL     1       7.330   5.497  15.270  0.00  0.00    +0.000 NA
ENDBRANCH  13  14
ENDBRANCH  12  13
ENDBRANCH  11  12
ENDBRANCH   2  11
TORSDOF 5
ENDMDL
MODEL 7
REMARK VINA RESULT:      -6.5      1.404      1.885
REMARK  Name = 
REMARK  5 active torsions:
REMARK  status: ('A' for Active; 'I' for Inactive)
REMARK    1  A    between atoms: C_2  and  O_3
REMARK    2  A    between atoms: C_2  and  C_11
REMARK    3  A    between atoms: O_3  and  C_4
REMARK    4  A    between atoms: C_4  and  C_5
REMARK    5  A    between atoms: C_5  and  N_6
REMARK                            x       y       z     vdW  Elec       q    Type
REMARK                         _______ _______ _______ _____ _____    ______ ____
ROOT
ATOM      1  O   UNL     1       6.025   4.036  19.180  0.00  0.00    +0.000 OA
ATOM      2  C   UNL     1       4.918   4.545  19.120  0.00  0.00    +0.000 C 
ENDROOT
BRANCH   2   3
ATOM      3  C   UNL     1       3.650   3.771  19.043  0.00  0.00    +0.000 A 
ATOM      4  C   UNL     1       3.618   2.788  18.034  0.00  0.00    +0.000 A 
ATOM      5  C   UNL     1       2.464   2.042  17.792  0.00  0.00    +0.000 A 
ATOM      6  C   UNL     1       1.329   2.266  18.560  0.00  0.00    +0.000 A 
ATOM      7  C   UNL     1       1.354   3.234  19.560  0.00  0.00    +0.000 A 
ATOM      8  F   UNL     1       0.235   3.427  20.275  0.00  0.00    +0.000 F 
ATOM      9  C   UNL     1       2.500   3.995  19.819  0.00  0.00    +0.000 A 
ATOM     10 CL   UNL     1       2.385   5.152  21.102  0.00  0.00    +0.000 Cl
ENDBRANCH   2   3
BRANCH   2  11
ATOM     11  O   UNL     1       4.667   5.847  18.899  0.00  0.00    +0.000 OA
BRANCH  11  12
ATOM     12  C   UNL     1       4.285   6.220  17.571  0.00  0.00    +0.000 C 
BRANCH  12  13
ATOM     13  C   UNL     1       5.585   6.635  16.904  0.00  0.00    +0.000 C 
BRANCH  13  14
ATOM     14  N   UNL     1       6.013   5.704  15.900  0.00  0.00    +0.000 N 
ATOM     15  C   UNL     1       5.290   4.702  15.335  0.00  0.00    +0.000 A 
ATOM     16  N   UNL     1       6.045   4.059  14.477  0.00  0.00    +0.000 NA
ATOM     17  C   UNL     1       7.239   4.713  14.561  0.00  0.00    +0.000 A 
ATOM     18  N   UNL     1       7.268   5.736  15.422  0.00  0.00    +0.000 NA
ENDBRANCH  13  14
ENDBRANCH  12  13
ENDBRANCH  11  12
ENDBRANCH   2  11
TORSDOF 5
ENDMDL
MODEL 8
REMARK VINA RESULT:      -6.4      1.880      2.667
REMARK  Name = 
REMARK  5 active torsions:
REMARK  status: ('A' for Active; 'I' for Inactive)
REMARK    1  A    between atoms: C_2  and  O_3
REMARK    2  A    between atoms: C_2  and  C_11
REMARK    3  A    between atoms: O_3  and  C_4
REMARK    4  A    between atoms: C_4  and  C_5
REMARK    5  A    between atoms: C_5  and  N_6
REMARK                            x       y       z     vdW  Elec       q    Type
REMARK                         _______ _______ _______ _____ _____    ______ ____
ROOT
ATOM      1  O   UNL     1       3.941   6.678  17.100  0.00  0.00    +0.000 OA
ATOM      2  C   UNL     1       3.841   5.521  17.475  0.00  0.00    +0.000 C 
ENDROOT
BRANCH   2   3
ATOM      3  C   UNL     1       2.857   5.060  18.490  0.00  0.00    +0.000 A 
ATOM      4  C   UNL     1       2.631   5.962  19.548  0.00  0.00    +0.000 A 
ATOM      5  C   UNL     1       1.796   5.628  20.614  0.00  0.00    +0.000 A 
ATOM      6  C   UNL     1       1.172   4.387  20.634  0.00  0.00    +0.000 A 
ATOM      7  C   UNL     1       1.388   3.492  19.591  0.00  0.00    +0.000 A 
ATOM      8  F   UNL     1       0.774   2.299  19.649  0.00  0.00    +0.000 F 
ATOM      9  C   UNL     1       2.223   3.805  18.512  0.00  0.00    +0.000 A 
ATOM     10 CL   UNL     1       2.386   2.596  17.283  0.00  0.00    +0.000 Cl
ENDBRANCH   2   3
BRANCH   2  11
ATOM     11  O   UNL     1       4.716   4.535  17.211  0.00  0.00    +0.000 OA
BRANCH  11  12
ATOM     12  C   UNL     1       5.346   4.551  15.926  0.00  0.00    +0.000 C 
BRANCH  12  13
ATOM     13  C   UNL     1       6.827   4.391  16.227  0.00  0.00    +0.000 C 
BRANCH  13  14
ATOM     14  N   UNL     1       7.266   5.237  17.300  0.00  0.00    +0.000 N 
ATOM     15  C   UNL     1       7.425   6.586  17.281  0.00  0.00    +0.000 A 
ATOM     16  N   UNL     1       7.866   6.982  18.451  0.00  0.00    +0.000 NA
ATOM     17  C   UNL     1       7.967   5.820  19.156  0.00  0.00    +0.000 A 
ATOM     18  N   UNL     1       7.606   4.717  18.491  0.00  0.00    +0.000 NA
ENDBRANCH  13  14
ENDBRANCH  12  13
ENDBRANCH  11  12
ENDBRANCH   2  11
TORSDOF 5
ENDMDL
MODEL 9
REMARK VINA RESULT:      -6.4      1.270      1.755
REMARK  Name = 
REMARK  5 active torsions:
REMARK  status: ('A' for Active; 'I' for Inactive)
REMARK    1  A    between atoms: C_2  and  O_3
REMARK    2  A    between atoms: C_2  and  C_11
REMARK    3  A    between atoms: O_3  and  C_4
REMARK    4  A    between atoms: C_4  and  C_5
REMARK    5  A    between atoms: C_5  and  N_6
REMARK                            x       y       z     vdW  Elec       q    Type
REMARK                         _______ _______ _______ _____ _____    ______ ____
ROOT
ATOM      1  O   UNL     1       3.943   6.591  17.151  0.00  0.00    +0.000 OA
ATOM      2  C   UNL     1       4.059   5.813  18.084  0.00  0.00    +0.000 C 
ENDROOT
BRANCH   2   3
ATOM      3  C   UNL     1       2.912   5.147  18.758  0.00  0.00    +0.000 A 
ATOM      4  C   UNL     1       2.513   5.742  19.971  0.00  0.00    +0.000 A 
ATOM      5  C   UNL     1       1.505   5.176  20.753  0.00  0.00    +0.000 A 
ATOM      6  C   UNL     1       0.880   4.011  20.329  0.00  0.00    +0.000 A 
ATOM      7  C   UNL     1       1.268   3.419  19.131  0.00  0.00    +0.000 A 
ATOM      8  F   UNL     1       0.646   2.289  18.758  0.00  0.00    +0.000 F 
ATOM      9  C   UNL     1       2.277   3.968  18.332  0.00  0.00    +0.000 A 
ATOM     10 CL   UNL     1       2.642   3.128  16.862  0.00  0.00    +0.000 Cl
ENDBRANCH   2   3
BRANCH   2  11
ATOM     11  O   UNL     1       5.184   5.596  18.786  0.00  0.00    +0.000 OA
BRANCH  11  12
ATOM     12  C   UNL     1       5.813   4.319  18.629  0.00  0.00    +0.000 C 
BRANCH  12  13
ATOM     13  C   UNL     1       7.059   4.608  17.810  0.00  0.00    +0.000 C 
BRANCH  13  14
ATOM     14  N   UNL     1       6.808   4.585  16.397  0.00  0.00    +0.000 N 
ATOM     15  C   UNL     1       7.270   5.452  15.458  0.00  0.00    +0.000 A 
ATOM     16  N   UNL     1       6.798   5.105  14.285  0.00  0.00    +0.000 NA
ATOM     17  C   UNL     1       6.038   4.008  14.567  0.00  0.00    +0.000 A 
ATOM     18  N   UNL     1       6.016   3.647  15.854  0.00  0.00    +0.000 NA
ENDBRANCH  13  14
ENDBRANCH  12  13
ENDBRANCH  11  12
ENDBRANCH   2  11
TORSDOF 5
ENDMDL
