MODEL 1
REMARK VINA RESULT:      -6.8      0.000      0.000
REMARK  Name = 
REMARK  8 active torsions:
REMARK  status: ('A' for Active; 'I' for Inactive)
REMARK    1  A    between atoms: C_1  and  O_2
REMARK    2  A    between atoms: O_2  and  C_3
REMARK    3  A    between atoms: C_9  and  N_10
REMARK    4  A    between atoms: C_11  and  C_13
REMARK    5  A    between atoms: C_13  and  N_14
REMARK    6  A    between atoms: N_14  and  C_15
REMARK    7  A    between atoms: C_16  and  C_18
REMARK    8  A    between atoms: C_18  and  C_19
REMARK                            x       y       z     vdW  Elec       q    Type
REMARK                         _______ _______ _______ _____ _____    ______ ____
ROOT
ATOM      1  N   UNL     1       3.820   3.607  17.903  0.00  0.00    +0.000 N 
ATOM      2  C   UNL     1       3.365   2.334  18.242  0.00  0.00    +0.000 C 
ATOM      3  O   UNL     1       3.899   1.274  17.910  0.00  0.00    +0.000 OA
ATOM      4  H   UNL     1       3.360   4.416  18.305  0.00  0.00    +0.000 HD
ENDROOT
BRANCH   1  11
ATOM      5  C   UNL     1       6.110   4.443  17.669  0.00  0.00    +0.000 A 
ATOM      6  C   UNL     1       7.242   4.692  16.873  0.00  0.00    +0.000 A 
ATOM      7  C   UNL     1       7.203   4.472  15.498  0.00  0.00    +0.000 A 
ATOM      8  C   UNL     1       6.035   4.004  14.911  0.00  0.00    +0.000 A 
ATOM      9 CL   UNL     1       5.977   3.763  13.208  0.00  0.00    +0.000 Cl
ATOM     10  C   UNL     1       4.913   3.727  15.689  0.00  0.00    +0.000 A 
ATOM     11  C   UNL     1       4.939   3.915  17.078  0.00  0.00    +0.000 A 
BRANCH   5  13
ATOM     12  C   UNL     1       7.111   5.519  19.544  0.00  0.00    +0.000 C 
ATOM     13  O   UNL     1       6.084   4.665  19.030  0.00  0.00    +0.000 OA
ENDBRANCH   5  13
ENDBRANCH   1  11
BRANCH   2  14
ATOM     14  C   UNL     1       2.134   2.310  19.162  0.00  0.00    +0.000 C 
BRANCH  14  15
ATOM     15  N   UNL     1       2.174   3.352  20.200  0.00  0.00    +0.000 N 
ATOM     16  C   UNL     1       2.488   2.955  21.566  0.00  0.00    +0.000 C 
ATOM     17  C   UNL     1       1.821   4.645  19.840  0.00  0.00    +0.000 C 
ATOM     18  O   UNL     1       1.424   4.906  18.701  0.00  0.00    +0.000 OA
BRANCH  17  19
ATOM     19  C   UNL     1       1.987   5.759  20.869  0.00  0.00    +0.000 C 
BRANCH  19  20
ATOM     20  C   UNL     1       1.673   7.135  20.347  0.00  0.00    +0.000 A 
ATOM     21  C   UNL     1       0.843   8.083  21.042  0.00  0.00    +0.000 A 
ATOM     22  C   UNL     1       0.736   9.287  20.380  0.00  0.00    +0.000 A 
ATOM     23  S   UNL     1       1.624   9.296  18.922  0.00  0.00    +0.000 S 
ATOM     24  C   UNL     1       2.162   7.693  19.179  0.00  0.00    +0.000 A 
ENDBRANCH  19  20
ENDBRANCH  17  19
ENDBRANCH  14  15
ENDBRANCH   2  14
TORSDOF 6
ENDMDL
MODEL 2
REMARK VINA RESULT:      -6.8      1.346      1.421
REMARK  Name = 
REMARK  8 active torsions:
REMARK  status: ('A' for Active; 'I' for Inactive)
REMARK    1  A    between atoms: C_1  and  O_2
REMARK    2  A    between atoms: O_2  and  C_3
REMARK    3  A    between atoms: C_9  and  N_10
REMARK    4  A    between atoms: C_11  and  C_13
REMARK    5  A    between atoms: C_13  and  N_14
REMARK    6  A    between atoms: N_14  and  C_15
REMARK    7  A    between atoms: C_16  and  C_18
REMARK    8  A    between atoms: C_18  and  C_19
REMARK                            x       y       z     vdW  Elec       q    Type
REMARK                         _______ _______ _______ _____ _____    ______ ____
ROOT
ATOM      1  N   UNL     1       4.910   3.442  17.399  0.00  0.00    +0.000 N 
ATOM      2  C   UNL     1       3.534   3.250  17.507  0.00  0.00    +0.000 C 
ATOM      3  O   UNL     1       2.714   3.444  16.609  0.00  0.00    +0.000 OA
ATOM      4  H   UNL     1       5.507   3.164  18.171  0.00  0.00    +0.000 HD
ENDROOT
BRANCH   1  11
ATOM      5  C   UNL     1       6.521   5.010  16.428  0.00  0.00    +0.000 A 
ATOM      6  C   UNL     1       7.263   5.469  15.326  0.00  0.00    +0.000 A 
ATOM      7  C   UNL     1       7.070   4.915  14.062  0.00  0.00    +0.000 A 
ATOM      8  C   UNL     1       6.136   3.903  13.892  0.00  0.00    +0.000 A 
ATOM      9 CL   UNL     1       5.874   3.242  12.325  0.00  0.00    +0.000 Cl
ATOM     10  C   UNL     1       5.411   3.418  14.979  0.00  0.00    +0.000 A 
ATOM     11  C   UNL     1       5.609   3.942  16.264  0.00  0.00    +0.000 A 
BRANCH   5  13
ATOM     12  C   UNL     1       7.455   6.718  17.801  0.00  0.00    +0.000 C 
ATOM     13  O   UNL     1       6.654   5.537  17.696  0.00  0.00    +0.000 OA
ENDBRANCH   5  13
ENDBRANCH   1  11
BRANCH   2  14
ATOM     14  C   UNL     1       3.064   2.684  18.857  0.00  0.00    +0.000 C 
BRANCH  14  15
ATOM     15  N   UNL     1       2.250   3.638  19.627  0.00  0.00    +0.000 N 
ATOM     16  C   UNL     1       0.832   3.352  19.802  0.00  0.00    +0.000 C 
ATOM     17  C   UNL     1       2.855   4.806  20.068  0.00  0.00    +0.000 C 
ATOM     18  O   UNL     1       4.024   5.071  19.772  0.00  0.00    +0.000 OA
BRANCH  17  19
ATOM     19  C   UNL     1       2.064   5.738  20.980  0.00  0.00    +0.000 C 
BRANCH  19  20
ATOM     20  C   UNL     1       1.763   7.084  20.378  0.00  0.00    +0.000 A 
ATOM     21  C   UNL     1       1.116   8.152  21.091  0.00  0.00    +0.000 A 
ATOM     22  C   UNL     1       0.986   9.298  20.338  0.00  0.00    +0.000 A 
ATOM     23  S   UNL     1       1.633   9.109  18.770  0.00  0.00    +0.000 S 
ATOM     24  C   UNL     1       2.099   7.496  19.100  0.00  0.00    +0.000 A 
ENDBRANCH  19  20
ENDBRANCH  17  19
ENDBRANCH  14  15
ENDBRANCH   2  14
TORSDOF 6
ENDMDL
MODEL 3
REMARK VINA RESULT:      -6.7      0.591      1.055
REMARK  Name = 
REMARK  8 active torsions:
REMARK  status: ('A' for Active; 'I' for Inactive)
REMARK    1  A    between atoms: C_1  and  O_2
REMARK    2  A    between atoms: O_2  and  C_3
REMARK    3  A    between atoms: C_9  and  N_10
REMARK    4  A    between atoms: C_11  and  C_13
REMARK    5  A    between atoms: C_13  and  N_14
REMARK    6  A    between atoms: N_14  and  C_15
REMARK    7  A    between atoms: C_16  and  C_18
REMARK    8  A    between atoms: C_18  and  C_19
REMARK                            x       y       z     vdW  Elec       q    Type
REMARK                         _______ _______ _______ _____ _____    ______ ____
ROOT
ATOM      1  N   UNL     1       4.021   3.718  18.340  0.00  0.00    +0.000 N 
ATOM      2  C   UNL     1       3.357   2.500  18.471  0.00  0.00    +0.000 C 
ATOM      3  O   UNL     1       3.616   1.475  17.838  0.00  0.00    +0.000 OA
ATOM      4  H   UNL     1       3.790   4.474  18.976  0.00  0.00    +0.000 HD
ENDROOT
BRANCH   1  11
ATOM      5  C   UNL     1       6.287   4.547  17.921  0.00  0.00    +0.000 A 
ATOM      6  C   UNL     1       7.354   4.786  17.037  0.00  0.00    +0.000 A 
ATOM      7  C   UNL     1       7.207   4.553  15.671  0.00  0.00    +0.000 A 
ATOM      8  C   UNL     1       5.997   4.083  15.182  0.00  0.00    +0.000 A 
ATOM      9 CL   UNL     1       5.805   3.827  13.491  0.00  0.00    +0.000 Cl
ATOM     10  C   UNL     1       4.938   3.816  16.047  0.00  0.00    +0.000 A 
ATOM     11  C   UNL     1       5.073   4.016  17.428  0.00  0.00    +0.000 A 
BRANCH   5  13
ATOM     12  C   UNL     1       7.479   5.572  19.710  0.00  0.00    +0.000 C 
ATOM     13  O   UNL     1       6.368   4.781  19.278  0.00  0.00    +0.000 OA
ENDBRANCH   5  13
ENDBRANCH   1  11
BRANCH   2  14
ATOM     14  C   UNL     1       2.266   2.471  19.554  0.00  0.00    +0.000 C 
BRANCH  14  15
ATOM     15  N   UNL     1       2.228   3.699  20.362  0.00  0.00    +0.000 N 
ATOM     16  C   UNL     1       2.533   3.601  21.783  0.00  0.00    +0.000 C 
ATOM     17  C   UNL     1       1.814   4.872  19.747  0.00  0.00    +0.000 C 
ATOM     18  O   UNL     1       1.428   4.878  18.575  0.00  0.00    +0.000 OA
BRANCH  17  19
ATOM     19  C   UNL     1       1.897   6.177  20.534  0.00  0.00    +0.000 C 
BRANCH  19  20
ATOM     20  C   UNL     1       1.882   7.416  19.681  0.00  0.00    +0.000 A 
ATOM     21  C   UNL     1       2.545   7.518  18.408  0.00  0.00    +0.000 A 
ATOM     22  C   UNL     1       2.354   8.740  17.801  0.00  0.00    +0.000 A 
ATOM     23  S   UNL     1       1.383   9.778  18.746  0.00  0.00    +0.000 S 
ATOM     24  C   UNL     1       1.206   8.590  19.964  0.00  0.00    +0.000 A 
ENDBRANCH  19  20
ENDBRANCH  17  19
ENDBRANCH  14  15
ENDBRANCH   2  14
TORSDOF 6
ENDMDL
MODEL 4
REMARK VINA RESULT:      -6.7      1.296      1.636
REMARK  Name = 
REMARK  8 active torsions:
REMARK  status: ('A' for Active; 'I' for Inactive)
REMARK    1  A    between atoms: C_1  and  O_2
REMARK    2  A    between atoms: O_2  and  C_3
REMARK    3  A    between atoms: C_9  and  N_10
REMARK    4  A    between atoms: C_11  and  C_13
REMARK    5  A    between atoms: C_13  and  N_14
REMARK    6  A    between atoms: N_14  and  C_15
REMARK    7  A    between atoms: C_16  and  C_18
REMARK    8  A    between atoms: C_18  and  C_19
REMARK                            x       y       z     vdW  Elec       q    Type
REMARK                         _______ _______ _______ _____ _____    ______ ____
ROOT
ATOM      1  N   UNL     1       5.047   3.957  17.894  0.00  0.00    +0.000 N 
ATOM      2  C   UNL     1       4.090   2.979  18.156  0.00  0.00    +0.000 C 
ATOM      3  O   UNL     1       3.681   2.147  17.345  0.00  0.00    +0.000 OA
ATOM      4  H   UNL     1       5.382   4.534  18.659  0.00  0.00    +0.000 HD
ENDROOT
BRANCH   1  11
ATOM      5  C   UNL     1       6.962   4.809  16.628  0.00  0.00    +0.000 A 
ATOM      6  C   UNL     1       7.624   5.005  15.403  0.00  0.00    +0.000 A 
ATOM      7  C   UNL     1       7.007   4.662  14.202  0.00  0.00    +0.000 A 
ATOM      8  C   UNL     1       5.729   4.123  14.217  0.00  0.00    +0.000 A 
ATOM      9 CL   UNL     1       4.955   3.728  12.732  0.00  0.00    +0.000 Cl
ATOM     10  C   UNL     1       5.069   3.897  15.423  0.00  0.00    +0.000 A 
ATOM     11  C   UNL     1       5.681   4.210  16.645  0.00  0.00    +0.000 A 
BRANCH   5  13
ATOM     12  C   UNL     1       7.659   6.554  18.092  0.00  0.00    +0.000 C 
ATOM     13  O   UNL     1       7.514   5.152  17.845  0.00  0.00    +0.000 OA
ENDBRANCH   5  13
ENDBRANCH   1  11
BRANCH   2  14
ATOM     14  C   UNL     1       3.589   2.935  19.609  0.00  0.00    +0.000 C 
BRANCH  14  15
ATOM     15  N   UNL     1       2.527   3.916  19.879  0.00  0.00    +0.000 N 
ATOM     16  C   UNL     1       1.143   3.462  19.848  0.00  0.00    +0.000 C 
ATOM     17  C   UNL     1       2.894   5.242  20.060  0.00  0.00    +0.000 C 
ATOM     18  O   UNL     1       4.067   5.603  19.936  0.00  0.00    +0.000 OA
BRANCH  17  19
ATOM     19  C   UNL     1       1.821   6.246  20.474  0.00  0.00    +0.000 C 
BRANCH  19  20
ATOM     20  C   UNL     1       1.810   7.510  19.659  0.00  0.00    +0.000 A 
ATOM     21  C   UNL     1       2.273   7.589  18.299  0.00  0.00    +0.000 A 
ATOM     22  C   UNL     1       2.125   8.847  17.755  0.00  0.00    +0.000 A 
ATOM     23  S   UNL     1       1.433   9.945  18.864  0.00  0.00    +0.000 S 
ATOM     24  C   UNL     1       1.320   8.738  20.070  0.00  0.00    +0.000 A 
ENDBRANCH  19  20
ENDBRANCH  17  19
ENDBRANCH  14  15
ENDBRANCH   2  14
TORSDOF 6
ENDMDL
MODEL 5
REMARK VINA RESULT:      -6.7      3.529      6.629
REMARK  Name = 
REMARK  8 active torsions:
REMARK  status: ('A' for Active; 'I' for Inactive)
REMARK    1  A    between atoms: C_1  and  O_2
REMARK    2  A    between atoms: O_2  and  C_3
REMARK    3  A    between atoms: C_9  and  N_10
REMARK    4  A    between atoms: C_11  and  C_13
REMARK    5  A    between atoms: C_13  and  N_14
REMARK    6  A    between atoms: N_14  and  C_15
REMARK    7  A    between atoms: C_16  and  C_18
REMARK    8  A    between atoms: C_18  and  C_19
REMARK                            x       y       z     vdW  Elec       q    Type
REMARK                         _______ _______ _______ _____ _____    ______ ____
ROOT
ATOM      1  N   UNL     1       2.359   6.252  20.603  0.00  0.00    +0.000 N 
ATOM      2  C   UNL     1       1.739   5.005  20.624  0.00  0.00    +0.000 C 
ATOM      3  O   UNL     1       0.525   4.811  20.553  0.00  0.00    +0.000 OA
ATOM      4  H   UNL     1       3.372   6.297  20.574  0.00  0.00    +0.000 HD
ENDROOT
BRANCH   1  11
ATOM      5  C   UNL     1       1.650   8.214  19.320  0.00  0.00    +0.000 A 
ATOM      6  C   UNL     1       0.959   9.436  19.243  0.00  0.00    +0.000 A 
ATOM      7  C   UNL     1       0.379   9.994  20.381  0.00  0.00    +0.000 A 
ATOM      8  C   UNL     1       0.487   9.337  21.598  0.00  0.00    +0.000 A 
ATOM      9 CL   UNL     1      -0.202  10.043  23.009  0.00  0.00    +0.000 Cl
ATOM     10  C   UNL     1       1.145   8.113  21.687  0.00  0.00    +0.000 A 
ATOM     11  C   UNL     1       1.712   7.519  20.551  0.00  0.00    +0.000 A 
BRANCH   5  13
ATOM     12  C   UNL     1       3.210   8.442  17.535  0.00  0.00    +0.000 C 
ATOM     13  O   UNL     1       2.264   7.627  18.233  0.00  0.00    +0.000 OA
ENDBRANCH   5  13
ENDBRANCH   1  11
BRANCH   2  14
ATOM     14  C   UNL     1       2.700   3.805  20.672  0.00  0.00    +0.000 C 
BRANCH  14  15
ATOM     15  N   UNL     1       2.943   3.212  19.348  0.00  0.00    +0.000 N 
ATOM     16  C   UNL     1       1.871   2.445  18.727  0.00  0.00    +0.000 C 
ATOM     17  C   UNL     1       4.211   3.337  18.800  0.00  0.00    +0.000 C 
ATOM     18  O   UNL     1       5.129   3.873  19.428  0.00  0.00    +0.000 OA
BRANCH  17  19
ATOM     19  C   UNL     1       4.441   2.847  17.373  0.00  0.00    +0.000 C 
BRANCH  19  20
ATOM     20  C   UNL     1       5.068   3.867  16.462  0.00  0.00    +0.000 A 
ATOM     21  C   UNL     1       4.716   5.262  16.461  0.00  0.00    +0.000 A 
ATOM     22  C   UNL     1       5.455   6.001  15.563  0.00  0.00    +0.000 A 
ATOM     23  S   UNL     1       6.575   5.036  14.711  0.00  0.00    +0.000 S 
ATOM     24  C   UNL     1       6.081   3.629  15.550  0.00  0.00    +0.000 A 
ENDBRANCH  19  20
ENDBRANCH  17  19
ENDBRANCH  14  15
ENDBRANCH   2  14
TORSDOF 6
ENDMDL
MODEL 6
REMARK VINA RESULT:      -6.7      4.091      6.432
REMARK  Name = 
REMARK  8 active torsions:
REMARK  status: ('A' for Active; 'I' for Inactive)
REMARK    1  A    between atoms: C_1  and  O_2
REMARK    2  A    between atoms: O_2  and  C_3
REMARK    3  A    between atoms: C_9  and  N_10
REMARK    4  A    between atoms: C_11  and  C_13
REMARK    5  A    between atoms: C_13  and  N_14
REMARK    6  A    between atoms: N_14  and  C_15
REMARK    7  A    between atoms: C_16  and  C_18
REMARK    8  A    between atoms: C_18  and  C_19
REMARK                            x       y       z     vdW  Elec       q    Type
REMARK                         _______ _______ _______ _____ _____    ______ ____
ROOT
ATOM      1  N   UNL     1       2.039   7.653  20.554  0.00  0.00    +0.000 N 
ATOM      2  C   UNL     1       0.956   8.285  21.161  0.00  0.00    +0.000 C 
ATOM      3  O   UNL     1      -0.107   7.743  21.468  0.00  0.00    +0.000 OA
ATOM      4  H   UNL     1       2.902   8.169  20.428  0.00  0.00    +0.000 HD
ENDROOT
BRANCH   1  11
ATOM      5  C   UNL     1       2.506   5.998  18.810  0.00  0.00    +0.000 A 
ATOM      6  C   UNL     1       2.629   4.658  18.402  0.00  0.00    +0.000 A 
ATOM      7  C   UNL     1       2.303   3.620  19.272  0.00  0.00    +0.000 A 
ATOM      8  C   UNL     1       1.852   3.914  20.552  0.00  0.00    +0.000 A 
ATOM      9 CL   UNL     1       1.419   2.632  21.616  0.00  0.00    +0.000 Cl
ATOM     10  C   UNL     1       1.750   5.235  20.981  0.00  0.00    +0.000 A 
ATOM     11  C   UNL     1       2.099   6.294  20.131  0.00  0.00    +0.000 A 
BRANCH   5  13
ATOM     12  C   UNL     1       4.079   7.045  17.361  0.00  0.00    +0.000 C 
ATOM     13  O   UNL     1       2.791   7.065  17.983  0.00  0.00    +0.000 OA
ENDBRANCH   5  13
ENDBRANCH   1  11
BRANCH   2  14
ATOM     14  C   UNL     1       1.187   9.763  21.517  0.00  0.00    +0.000 C 
BRANCH  14  15
ATOM     15  N   UNL     1       0.251  10.670  20.834  0.00  0.00    +0.000 N 
ATOM     16  C   UNL     1      -0.824  11.268  21.614  0.00  0.00    +0.000 C 
ATOM     17  C   UNL     1       0.388  10.838  19.464  0.00  0.00    +0.000 C 
ATOM     18  O   UNL     1       1.227  10.199  18.822  0.00  0.00    +0.000 OA
BRANCH  17  19
ATOM     19  C   UNL     1      -0.485  11.876  18.765  0.00  0.00    +0.000 C 
BRANCH  19  20
ATOM     20  C   UNL     1      -1.771  11.329  18.207  0.00  0.00    +0.000 A 
ATOM     21  C   UNL     1      -1.840  10.200  17.318  0.00  0.00    +0.000 A 
ATOM     22  C   UNL     1      -3.132   9.866  16.975  0.00  0.00    +0.000 A 
ATOM     23  S   UNL     1      -4.275  10.898  17.711  0.00  0.00    +0.000 S 
ATOM     24  C   UNL     1      -3.044  11.787  18.498  0.00  0.00    +0.000 A 
ENDBRANCH  19  20
ENDBRANCH  17  19
ENDBRANCH  14  15
ENDBRANCH   2  14
TORSDOF 6
ENDMDL
MODEL 7
REMARK VINA RESULT:      -6.7      3.744      7.307
REMARK  Name = 
REMARK  8 active torsions:
REMARK  status: ('A' for Active; 'I' for Inactive)
REMARK    1  A    between atoms: C_1  and  O_2
REMARK    2  A    between atoms: O_2  and  C_3
REMARK    3  A    between atoms: C_9  and  N_10
REMARK    4  A    between atoms: C_11  and  C_13
REMARK    5  A    between atoms: C_13  and  N_14
REMARK    6  A    between atoms: N_14  and  C_15
REMARK    7  A    between atoms: C_16  and  C_18
REMARK    8  A    between atoms: C_18  and  C_19
REMARK                            x       y       z     vdW  Elec       q    Type
REMARK                         _______ _______ _______ _____ _____    ______ ____
ROOT
ATOM      1  N   UNL     1       4.977   4.673  18.402  0.00  0.00    +0.000 N 
ATOM      2  C   UNL     1       6.294   4.899  18.798  0.00  0.00    +0.000 C 
ATOM      3  O   UNL     1       6.649   5.251  19.924  0.00  0.00    +0.000 OA
ATOM      4  H   UNL     1       4.800   4.296  17.478  0.00  0.00    +0.000 HD
ENDROOT
BRANCH   1  11
ATOM      5  C   UNL     1       3.161   3.726  19.743  0.00  0.00    +0.000 A 
ATOM      6  C   UNL     1       2.045   3.899  20.581  0.00  0.00    +0.000 A 
ATOM      7  C   UNL     1       1.541   5.173  20.834  0.00  0.00    +0.000 A 
ATOM      8  C   UNL     1       2.148   6.278  20.254  0.00  0.00    +0.000 A 
ATOM      9 CL   UNL     1       1.506   7.849  20.541  0.00  0.00    +0.000 Cl
ATOM     10  C   UNL     1       3.270   6.127  19.443  0.00  0.00    +0.000 A 
ATOM     11  C   UNL     1       3.810   4.857  19.197  0.00  0.00    +0.000 A 
BRANCH   5  13
ATOM     12  C   UNL     1       2.929   1.696  18.518  0.00  0.00    +0.000 C 
ATOM     13  O   UNL     1       3.687   2.487  19.438  0.00  0.00    +0.000 OA
ENDBRANCH   5  13
ENDBRANCH   1  11
BRANCH   2  14
ATOM     14  C   UNL     1       7.353   4.603  17.724  0.00  0.00    +0.000 C 
BRANCH  14  15
ATOM     15  N   UNL     1       7.027   5.197  16.418  0.00  0.00    +0.000 N 
ATOM     16  C   UNL     1       7.257   6.624  16.231  0.00  0.00    +0.000 C 
ATOM     17  C   UNL     1       6.433   4.386  15.462  0.00  0.00    +0.000 C 
ATOM     18  O   UNL     1       6.126   3.218  15.716  0.00  0.00    +0.000 OA
BRANCH  17  19
ATOM     19  C   UNL     1       6.213   4.950  14.061  0.00  0.00    +0.000 C 
BRANCH  19  20
ATOM     20  C   UNL     1       6.172   3.910  12.975  0.00  0.00    +0.000 A 
ATOM     21  C   UNL     1       4.956   3.341  12.458  0.00  0.00    +0.000 A 
ATOM     22  C   UNL     1       5.177   2.437  11.442  0.00  0.00    +0.000 A 
ATOM     23  S   UNL     1       6.839   2.259  11.096  0.00  0.00    +0.000 S 
ATOM     24  C   UNL     1       7.266   3.398  12.298  0.00  0.00    +0.000 A 
ENDBRANCH  19  20
ENDBRANCH  17  19
ENDBRANCH  14  15
ENDBRANCH   2  14
TORSDOF 6
ENDMDL
MODEL 8
REMARK VINA RESULT:      -6.6      3.764      7.155
REMARK  Name = 
REMARK  8 active torsions:
REMARK  status: ('A' for Active; 'I' for Inactive)
REMARK    1  A    between atoms: C_1  and  O_2
REMARK    2  A    between atoms: O_2  and  C_3
REMARK    3  A    between atoms: C_9  and  N_10
REMARK    4  A    between atoms: C_11  and  C_13
REMARK    5  A    between atoms: C_13  and  N_14
REMARK    6  A    between atoms: N_14  and  C_15
REMARK    7  A    between atoms: C_16  and  C_18
REMARK    8  A    between atoms: C_18  and  C_19
REMARK                            x       y       z     vdW  Elec       q    Type
REMARK                         _______ _______ _______ _____ _____    ______ ____
ROOT
ATOM      1  N   UNL     1       2.069   7.015  20.906  0.00  0.00    +0.000 N 
ATOM      2  C   UNL     1       1.638   5.703  20.719  0.00  0.00    +0.000 C 
ATOM      3  O   UNL     1       0.487   5.363  20.440  0.00  0.00    +0.000 OA
ATOM      4  H   UNL     1       3.058   7.193  21.041  0.00  0.00    +0.000 HD
ENDROOT
BRANCH   1  11
ATOM      5  C   UNL     1       1.151   8.908  19.652  0.00  0.00    +0.000 A 
ATOM      6  C   UNL     1       0.306  10.029  19.582  0.00  0.00    +0.000 A 
ATOM      7  C   UNL     1      -0.384  10.467  20.710  0.00  0.00    +0.000 A 
ATOM      8  C   UNL     1      -0.234   9.789  21.912  0.00  0.00    +0.000 A 
ATOM      9 CL   UNL     1      -1.062  10.350  23.313  0.00  0.00    +0.000 Cl
ATOM     10  C   UNL     1       0.578   8.661  21.992  0.00  0.00    +0.000 A 
ATOM     11  C   UNL     1       1.260   8.186  20.863  0.00  0.00    +0.000 A 
BRANCH   5  13
ATOM     12  C   UNL     1       2.259   9.428  17.608  0.00  0.00    +0.000 C 
ATOM     13  O   UNL     1       1.877   8.444  18.574  0.00  0.00    +0.000 OA
ENDBRANCH   5  13
ENDBRANCH   1  11
BRANCH   2  14
ATOM     14  C   UNL     1       2.744   4.640  20.812  0.00  0.00    +0.000 C 
BRANCH  14  15
ATOM     15  N   UNL     1       3.000   3.964  19.531  0.00  0.00    +0.000 N 
ATOM     16  C   UNL     1       2.718   2.538  19.433  0.00  0.00    +0.000 C 
ATOM     17  C   UNL     1       3.582   4.701  18.509  0.00  0.00    +0.000 C 
ATOM     18  O   UNL     1       3.935   5.870  18.685  0.00  0.00    +0.000 OA
BRANCH  17  19
ATOM     19  C   UNL     1       3.728   4.053  17.135  0.00  0.00    +0.000 C 
BRANCH  19  20
ATOM     20  C   UNL     1       5.047   4.323  16.462  0.00  0.00    +0.000 A 
ATOM     21  C   UNL     1       6.303   4.390  17.160  0.00  0.00    +0.000 A 
ATOM     22  C   UNL     1       7.372   4.611  16.320  0.00  0.00    +0.000 A 
ATOM     23  S   UNL     1       6.886   4.743  14.689  0.00  0.00    +0.000 S 
ATOM     24  C   UNL     1       5.245   4.493  15.102  0.00  0.00    +0.000 A 
ENDBRANCH  19  20
ENDBRANCH  17  19
ENDBRANCH  14  15
ENDBRANCH   2  14
TORSDOF 6
ENDMDL
MODEL 9
REMARK VINA RESULT:      -6.6      4.933      7.211
REMARK  Name = 
REMARK  8 active torsions:
REMARK  status: ('A' for Active; 'I' for Inactive)
REMARK    1  A    between atoms: C_1  and  O_2
REMARK    2  A    between atoms: O_2  and  C_3
REMARK    3  A    between atoms: C_9  and  N_10
REMARK    4  A    between atoms: C_11  and  C_13
REMARK    5  A    between atoms: C_13  and  N_14
REMARK    6  A    between atoms: N_14  and  C_15
REMARK    7  A    between atoms: C_16  and  C_18
REMARK    8  A    between atoms: C_18  and  C_19
REMARK                            x       y       z     vdW  Elec       q    Type
REMARK                         _______ _______ _______ _____ _____    ______ ____
ROOT
ATOM      1  N   UNL     1       2.033   7.825  20.887  0.00  0.00    +0.000 N 
ATOM      2  C   UNL     1       0.896   8.437  21.410  0.00  0.00    +0.000 C 
ATOM      3  O   UNL     1      -0.254   8.007  21.313  0.00  0.00    +0.000 OA
ATOM      4  H   UNL     1       2.945   8.214  21.103  0.00  0.00    +0.000 HD
ENDROOT
BRANCH   1  11
ATOM      5  C   UNL     1       2.516   6.697  18.767  0.00  0.00    +0.000 A 
ATOM      6  C   UNL     1       2.618   5.518  18.009  0.00  0.00    +0.000 A 
ATOM      7  C   UNL     1       2.235   4.293  18.551  0.00  0.00    +0.000 A 
ATOM      8  C   UNL     1       1.749   4.239  19.850  0.00  0.00    +0.000 A 
ATOM      9 CL   UNL     1       1.245   2.731  20.508  0.00  0.00    +0.000 Cl
ATOM     10  C   UNL     1       1.666   5.394  20.624  0.00  0.00    +0.000 A 
ATOM     11  C   UNL     1       2.072   6.633  20.108  0.00  0.00    +0.000 A 
BRANCH   5  13
ATOM     12  C   UNL     1       1.781   8.723  17.753  0.00  0.00    +0.000 C 
ATOM     13  O   UNL     1       2.858   7.940  18.275  0.00  0.00    +0.000 OA
ENDBRANCH   5  13
ENDBRANCH   1  11
BRANCH   2  14
ATOM     14  C   UNL     1       1.165   9.714  22.223  0.00  0.00    +0.000 C 
BRANCH  14  15
ATOM     15  N   UNL     1       0.305  10.839  21.826  0.00  0.00    +0.000 N 
ATOM     16  C   UNL     1       0.741  11.687  20.724  0.00  0.00    +0.000 C 
ATOM     17  C   UNL     1      -0.833  11.088  22.579  0.00  0.00    +0.000 C 
ATOM     18  O   UNL     1      -1.087  10.429  23.591  0.00  0.00    +0.000 OA
BRANCH  17  19
ATOM     19  C   UNL     1      -1.804  12.163  22.100  0.00  0.00    +0.000 C 
BRANCH  19  20
ATOM     20  C   UNL     1      -2.089  13.237  23.116  0.00  0.00    +0.000 A 
ATOM     21  C   UNL     1      -1.093  14.142  23.623  0.00  0.00    +0.000 A 
ATOM     22  C   UNL     1      -1.606  15.059  24.514  0.00  0.00    +0.000 A 
ATOM     23  S   UNL     1      -3.282  14.846  24.755  0.00  0.00    +0.000 S 
ATOM     24  C   UNL     1      -3.327  13.534  23.659  0.00  0.00    +0.000 A 
ENDBRANCH  19  20
ENDBRANCH  17  19
ENDBRANCH  14  15
ENDBRANCH   2  14
TORSDOF 6
ENDMDL
