MODEL 1
REMARK VINA RESULT:      -8.1      0.000      0.000
REMARK  Name = 
REMARK  6 active torsions:
REMARK  status: ('A' for Active; 'I' for Inactive)
REMARK    1  A    between atoms: C_1  and  C_2
REMARK    2  A    between atoms: C_8  and  C_9
REMARK    3  A    between atoms: C_9  and  S_10
REMARK    4  A    between atoms: S_10  and  C_11
REMARK    5  A    between atoms: C_14  and  C_15
REMARK    6  A    between atoms: C_22  and  C_23
REMARK                            x       y       z     vdW  Elec       q    Type
REMARK                         _______ _______ _______ _____ _____    ______ ____
ROOT
ATOM      1  C   UNL     1      -3.620  13.179  21.212  0.00  0.00    +0.000 C 
ATOM      2  C   UNL     1      -4.225  12.385  20.086  0.00  0.00    +0.000 C 
ATOM      3  C   UNL     1      -3.618  11.822  19.011  0.00  0.00    +0.000 C 
ATOM      4  C   UNL     1      -2.137  11.884  18.664  0.00  0.00    +0.000 C 
ATOM      5  O   UNL     1      -1.269  12.546  19.567  0.00  0.00    +0.000 OA
ATOM      6  C   UNL     1      -0.017  12.011  19.425  0.00  0.00    +0.000 C 
ATOM      7  O   UNL     1       0.985  12.482  19.938  0.00  0.00    +0.000 OA
ATOM      8  C   UNL     1      -0.066  10.781  18.546  0.00  0.00    +0.000 C 
ATOM      9  C   UNL     1      -1.558  10.484  18.591  0.00  0.00    +0.000 C 
ATOM     10  C   UNL     1      -2.190   9.744  17.422  0.00  0.00    +0.000 C 
ATOM     11  C   UNL     1      -3.699   9.637  17.663  0.00  0.00    +0.000 C 
ATOM     12  C   UNL     1      -4.403  10.996  17.953  0.00  0.00    +0.000 C 
ATOM     13  C   UNL     1      -4.544  11.803  16.646  0.00  0.00    +0.000 C 
ATOM     14  C   UNL     1      -5.810  10.666  18.403  0.00  0.00    +0.000 C 
ATOM     15  C   UNL     1      -6.416  11.244  19.442  0.00  0.00    +0.000 C 
ATOM     16  C   UNL     1      -5.712  12.243  20.260  0.00  0.00    +0.000 C 
ATOM     17  O   UNL     1      -6.345  12.903  21.078  0.00  0.00    +0.000 OA
ENDROOT
BRANCH   8  18
ATOM     18  C   UNL     1       0.827   9.693  19.139  0.00  0.00    +0.000 C 
BRANCH  18  19
ATOM     19  S   UNL     1       2.088   9.159  17.932  0.00  0.00    +0.000 S 
BRANCH  19  20
ATOM     20  C   UNL     1       2.477   7.543  18.562  0.00  0.00    +0.000 A 
ATOM     21  C   UNL     1       2.043   7.181  19.839  0.00  0.00    +0.000 A 
ATOM     22  C   UNL     1       2.276   5.889  20.319  0.00  0.00    +0.000 A 
ATOM     23  C   UNL     1       2.937   4.938  19.529  0.00  0.00    +0.000 A 
ATOM     24  C   UNL     1       3.138   3.548  20.067  0.00  0.00    +0.000 C 
ATOM     25  C   UNL     1       3.369   5.315  18.248  0.00  0.00    +0.000 A 
ATOM     26 BR   UNL     1       4.255   4.100  17.086  0.00  0.00    +0.000 Br
ATOM     27  C   UNL     1       3.141   6.608  17.769  0.00  0.00    +0.000 A 
ENDBRANCH  19  20
ENDBRANCH  18  19
ENDBRANCH   8  18
TORSDOF 3
ENDMDL
MODEL 2
REMARK VINA RESULT:      -7.9      3.150      4.901
REMARK  Name = 
REMARK  6 active torsions:
REMARK  status: ('A' for Active; 'I' for Inactive)
REMARK    1  A    between atoms: C_1  and  C_2
REMARK    2  A    between atoms: C_8  and  C_9
REMARK    3  A    between atoms: C_9  and  S_10
REMARK    4  A    between atoms: S_10  and  C_11
REMARK    5  A    between atoms: C_14  and  C_15
REMARK    6  A    between atoms: C_22  and  C_23
REMARK                            x       y       z     vdW  Elec       q    Type
REMARK                         _______ _______ _______ _____ _____    ______ ____
ROOT
ATOM      1  C   UNL     1       2.668  12.789  18.115  0.00  0.00    +0.000 C 
ATOM      2  C   UNL     1       1.462  12.731  19.013  0.00  0.00    +0.000 C 
ATOM      3  C   UNL     1       0.690  11.665  19.344  0.00  0.00    +0.000 C 
ATOM      4  C   UNL     1       0.851  10.234  18.849  0.00  0.00    +0.000 C 
ATOM      5  O   UNL     1       1.943   9.944  17.996  0.00  0.00    +0.000 OA
ATOM      6  C   UNL     1       2.260   8.621  18.146  0.00  0.00    +0.000 C 
ATOM      7  O   UNL     1       3.044   8.025  17.425  0.00  0.00    +0.000 OA
ATOM      8  C   UNL     1       1.501   8.024  19.309  0.00  0.00    +0.000 C 
ATOM      9  C   UNL     1       1.068   9.298  20.023  0.00  0.00    +0.000 C 
ATOM     10  C   UNL     1      -0.191   9.264  20.874  0.00  0.00    +0.000 C 
ATOM     11  C   UNL     1      -0.458  10.673  21.416  0.00  0.00    +0.000 C 
ATOM     12  C   UNL     1      -0.510  11.783  20.325  0.00  0.00    +0.000 C 
ATOM     13  C   UNL     1      -1.842  11.695  19.550  0.00  0.00    +0.000 C 
ATOM     14  C   UNL     1      -0.532  13.107  21.058  0.00  0.00    +0.000 C 
ATOM     15  C   UNL     1       0.206  14.164  20.711  0.00  0.00    +0.000 C 
ATOM     16  C   UNL     1       1.142  14.087  19.580  0.00  0.00    +0.000 C 
ATOM     17  O   UNL     1       1.657  15.116  19.154  0.00  0.00    +0.000 OA
ENDROOT
BRANCH   8  18
ATOM     18  C   UNL     1       2.429   7.117  20.115  0.00  0.00    +0.000 C 
BRANCH  18  19
ATOM     19  S   UNL     1       2.141   5.363  19.700  0.00  0.00    +0.000 S 
BRANCH  19  20
ATOM     20  C   UNL     1       3.592   5.017  18.733  0.00  0.00    +0.000 A 
ATOM     21  C   UNL     1       3.456   4.424  17.476  0.00  0.00    +0.000 A 
ATOM     22  C   UNL     1       4.579   4.214  16.673  0.00  0.00    +0.000 A 
ATOM     23  C   UNL     1       5.855   4.601  17.107  0.00  0.00    +0.000 A 
ATOM     24  C   UNL     1       7.036   4.390  16.201  0.00  0.00    +0.000 C 
ATOM     25  C   UNL     1       5.980   5.194  18.374  0.00  0.00    +0.000 A 
ATOM     26 BR   UNL     1       7.656   5.774  19.053  0.00  0.00    +0.000 Br
ATOM     27  C   UNL     1       4.856   5.400  19.180  0.00  0.00    +0.000 A 
ENDBRANCH  19  20
ENDBRANCH  18  19
ENDBRANCH   8  18
TORSDOF 3
ENDMDL
MODEL 3
REMARK VINA RESULT:      -7.5      1.201      1.530
REMARK  Name = 
REMARK  6 active torsions:
REMARK  status: ('A' for Active; 'I' for Inactive)
REMARK    1  A    between atoms: C_1  and  C_2
REMARK    2  A    between atoms: C_8  and  C_9
REMARK    3  A    between atoms: C_9  and  S_10
REMARK    4  A    between atoms: S_10  and  C_11
REMARK    5  A    between atoms: C_14  and  C_15
REMARK    6  A    between atoms: C_22  and  C_23
REMARK                            x       y       z     vdW  Elec       q    Type
REMARK                         _______ _______ _______ _____ _____    ______ ____
ROOT
ATOM      1  C   UNL     1      -4.158  13.002  21.569  0.00  0.00    +0.000 C 
ATOM      2  C   UNL     1      -4.795  12.324  20.387  0.00  0.00    +0.000 C 
ATOM      3  C   UNL     1      -4.225  11.905  19.228  0.00  0.00    +0.000 C 
ATOM      4  C   UNL     1      -2.764  12.051  18.827  0.00  0.00    +0.000 C 
ATOM      5  O   UNL     1      -1.871  12.631  19.761  0.00  0.00    +0.000 OA
ATOM      6  C   UNL     1      -0.615  12.153  19.503  0.00  0.00    +0.000 C 
ATOM      7  O   UNL     1       0.398  12.593  20.023  0.00  0.00    +0.000 OA
ATOM      8  C   UNL     1      -0.674  11.031  18.492  0.00  0.00    +0.000 C 
ATOM      9  C   UNL     1      -2.155  10.686  18.568  0.00  0.00    +0.000 C 
ATOM     10  C   UNL     1      -2.822  10.065  17.350  0.00  0.00    +0.000 C 
ATOM     11  C   UNL     1      -4.315   9.887  17.643  0.00  0.00    +0.000 C 
ATOM     12  C   UNL     1      -5.038  11.182  18.118  0.00  0.00    +0.000 C 
ATOM     13  C   UNL     1      -5.260  12.128  16.920  0.00  0.00    +0.000 C 
ATOM     14  C   UNL     1      -6.414  10.761  18.587  0.00  0.00    +0.000 C 
ATOM     15  C   UNL     1      -6.985  11.198  19.712  0.00  0.00    +0.000 C 
ATOM     16  C   UNL     1      -6.268  12.118  20.608  0.00  0.00    +0.000 C 
ATOM     17  O   UNL     1      -6.878  12.662  21.523  0.00  0.00    +0.000 OA
ENDROOT
BRANCH   8  18
ATOM     18  C   UNL     1       0.273   9.909  18.916  0.00  0.00    +0.000 C 
BRANCH  18  19
ATOM     19  S   UNL     1       1.852  10.015  18.006  0.00  0.00    +0.000 S 
BRANCH  19  20
ATOM     20  C   UNL     1       2.453   8.354  18.206  0.00  0.00    +0.000 A 
ATOM     21  C   UNL     1       3.504   7.902  17.406  0.00  0.00    +0.000 A 
ATOM     22  C   UNL     1       4.037   6.625  17.602  0.00  0.00    +0.000 A 
ATOM     23  C   UNL     1       3.535   5.784  18.605  0.00  0.00    +0.000 A 
ATOM     24  C   UNL     1       4.157   4.431  18.808  0.00  0.00    +0.000 C 
ATOM     25  C   UNL     1       2.477   6.249  19.402  0.00  0.00    +0.000 A 
ATOM     26 BR   UNL     1       1.735   5.201  20.802  0.00  0.00    +0.000 Br
ATOM     27  C   UNL     1       1.940   7.524  19.203  0.00  0.00    +0.000 A 
ENDBRANCH  19  20
ENDBRANCH  18  19
ENDBRANCH   8  18
TORSDOF 3
ENDMDL
MODEL 4
REMARK VINA RESULT:      -7.5      1.137      1.444
REMARK  Name = 
REMARK  6 active torsions:
REMARK  status: ('A' for Active; 'I' for Inactive)
REMARK    1  A    between atoms: C_1  and  C_2
REMARK    2  A    between atoms: C_8  and  C_9
REMARK    3  A    between atoms: C_9  and  S_10
REMARK    4  A    between atoms: S_10  and  C_11
REMARK    5  A    between atoms: C_14  and  C_15
REMARK    6  A    between atoms: C_22  and  C_23
REMARK                            x       y       z     vdW  Elec       q    Type
REMARK                         _______ _______ _______ _____ _____    ______ ____
ROOT
ATOM      1  C   UNL     1      -2.759  13.373  20.941  0.00  0.00    +0.000 C 
ATOM      2  C   UNL     1      -3.547  12.564  19.947  0.00  0.00    +0.000 C 
ATOM      3  C   UNL     1      -3.108  11.871  18.865  0.00  0.00    +0.000 C 
ATOM      4  C   UNL     1      -1.672  11.766  18.372  0.00  0.00    +0.000 C 
ATOM      5  O   UNL     1      -0.659  12.402  19.130  0.00  0.00    +0.000 OA
ATOM      6  C   UNL     1       0.518  11.739  18.909  0.00  0.00    +0.000 C 
ATOM      7  O   UNL     1       1.606  12.146  19.283  0.00  0.00    +0.000 OA
ATOM      8  C   UNL     1       0.268  10.462  18.140  0.00  0.00    +0.000 C 
ATOM      9  C   UNL     1      -1.232  10.314  18.354  0.00  0.00    +0.000 C 
ATOM     10  C   UNL     1      -2.045   9.559  17.315  0.00  0.00    +0.000 C 
ATOM     11  C   UNL     1      -3.525   9.616  17.710  0.00  0.00    +0.000 C 
ATOM     12  C   UNL     1      -4.070  11.053  17.958  0.00  0.00    +0.000 C 
ATOM     13  C   UNL     1      -4.274  11.777  16.611  0.00  0.00    +0.000 C 
ATOM     14  C   UNL     1      -5.446  10.894  18.568  0.00  0.00    +0.000 C 
ATOM     15  C   UNL     1      -5.887  11.599  19.612  0.00  0.00    +0.000 C 
ATOM     16  C   UNL     1      -5.014  12.579  20.276  0.00  0.00    +0.000 C 
ATOM     17  O   UNL     1      -5.497  13.354  21.096  0.00  0.00    +0.000 OA
ENDROOT
BRANCH   8  18
ATOM     18  C   UNL     1       1.118   9.336  18.728  0.00  0.00    +0.000 C 
BRANCH  18  19
ATOM     19  S   UNL     1       2.632   9.083  17.739  0.00  0.00    +0.000 S 
BRANCH  19  20
ATOM     20  C   UNL     1       2.963   7.371  18.086  0.00  0.00    +0.000 A 
ATOM     21  C   UNL     1       4.099   6.767  17.544  0.00  0.00    +0.000 A 
ATOM     22  C   UNL     1       4.413   5.444  17.867  0.00  0.00    +0.000 A 
ATOM     23  C   UNL     1       3.603   4.708  18.743  0.00  0.00    +0.000 A 
ATOM     24  C   UNL     1       3.992   3.299  19.094  0.00  0.00    +0.000 C 
ATOM     25  C   UNL     1       2.463   5.326  19.281  0.00  0.00    +0.000 A 
ATOM     26 BR   UNL     1       1.308   4.428  20.493  0.00  0.00    +0.000 Br
ATOM     27  C   UNL     1       2.145   6.648  18.953  0.00  0.00    +0.000 A 
ENDBRANCH  19  20
ENDBRANCH  18  19
ENDBRANCH   8  18
TORSDOF 3
ENDMDL
MODEL 5
REMARK VINA RESULT:      -7.4      3.252      4.851
REMARK  Name = 
REMARK  6 active torsions:
REMARK  status: ('A' for Active; 'I' for Inactive)
REMARK    1  A    between atoms: C_1  and  C_2
REMARK    2  A    between atoms: C_8  and  C_9
REMARK    3  A    between atoms: C_9  and  S_10
REMARK    4  A    between atoms: S_10  and  C_11
REMARK    5  A    between atoms: C_14  and  C_15
REMARK    6  A    between atoms: C_22  and  C_23
REMARK                            x       y       z     vdW  Elec       q    Type
REMARK                         _______ _______ _______ _____ _____    ______ ____
ROOT
ATOM      1  C   UNL     1       2.570  13.149  18.614  0.00  0.00    +0.000 C 
ATOM      2  C   UNL     1       1.476  13.015  19.639  0.00  0.00    +0.000 C 
ATOM      3  C   UNL     1       0.688  11.946  19.918  0.00  0.00    +0.000 C 
ATOM      4  C   UNL     1       0.706  10.593  19.220  0.00  0.00    +0.000 C 
ATOM      5  O   UNL     1       1.672  10.381  18.206  0.00  0.00    +0.000 OA
ATOM      6  C   UNL     1       1.927   9.038  18.137  0.00  0.00    +0.000 C 
ATOM      7  O   UNL     1       2.584   8.517  17.250  0.00  0.00    +0.000 OA
ATOM      8  C   UNL     1       1.276   8.316  19.295  0.00  0.00    +0.000 C 
ATOM      9  C   UNL     1       1.006   9.494  20.221  0.00  0.00    +0.000 C 
ATOM     10  C   UNL     1      -0.145   9.393  21.210  0.00  0.00    +0.000 C 
ATOM     11  C   UNL     1      -0.264  10.722  21.965  0.00  0.00    +0.000 C 
ATOM     12  C   UNL     1      -0.380  11.975  21.048  0.00  0.00    +0.000 C 
ATOM     13  C   UNL     1      -1.796  12.051  20.440  0.00  0.00    +0.000 C 
ATOM     14  C   UNL     1      -0.238  13.183  21.948  0.00  0.00    +0.000 C 
ATOM     15  C   UNL     1       0.514  14.247  21.657  0.00  0.00    +0.000 C 
ATOM     16  C   UNL     1       1.304  14.290  20.418  0.00  0.00    +0.000 C 
ATOM     17  O   UNL     1       1.824  15.347  20.073  0.00  0.00    +0.000 OA
ENDROOT
BRANCH   8  18
ATOM     18  C   UNL     1       2.239   7.267  19.850  0.00  0.00    +0.000 C 
BRANCH  18  19
ATOM     19  S   UNL     1       2.069   5.689  18.947  0.00  0.00    +0.000 S 
BRANCH  19  20
ATOM     20  C   UNL     1       3.759   5.402  18.475  0.00  0.00    +0.000 A 
ATOM     21  C   UNL     1       4.763   5.467  19.443  0.00  0.00    +0.000 A 
ATOM     22  C   UNL     1       6.086   5.171  19.103  0.00  0.00    +0.000 A 
ATOM     23  C   UNL     1       6.424   4.796  17.795  0.00  0.00    +0.000 A 
ATOM     24  C   UNL     1       7.852   4.452  17.476  0.00  0.00    +0.000 C 
ATOM     25  C   UNL     1       5.405   4.736  16.831  0.00  0.00    +0.000 A 
ATOM     26 BR   UNL     1       5.749   4.222  15.034  0.00  0.00    +0.000 Br
ATOM     27  C   UNL     1       4.083   5.038  17.169  0.00  0.00    +0.000 A 
ENDBRANCH  19  20
ENDBRANCH  18  19
ENDBRANCH   8  18
TORSDOF 3
ENDMDL
MODEL 6
REMARK VINA RESULT:      -7.4      2.138      2.988
REMARK  Name = 
REMARK  6 active torsions:
REMARK  status: ('A' for Active; 'I' for Inactive)
REMARK    1  A    between atoms: C_1  and  C_2
REMARK    2  A    between atoms: C_8  and  C_9
REMARK    3  A    between atoms: C_9  and  S_10
REMARK    4  A    between atoms: S_10  and  C_11
REMARK    5  A    between atoms: C_14  and  C_15
REMARK    6  A    between atoms: C_22  and  C_23
REMARK                            x       y       z     vdW  Elec       q    Type
REMARK                         _______ _______ _______ _____ _____    ______ ____
ROOT
ATOM      1  C   UNL     1      -2.350  11.649  23.514  0.00  0.00    +0.000 C 
ATOM      2  C   UNL     1      -2.518  12.081  22.082  0.00  0.00    +0.000 C 
ATOM      3  C   UNL     1      -1.645  11.978  21.048  0.00  0.00    +0.000 C 
ATOM      4  C   UNL     1      -0.235  11.407  21.099  0.00  0.00    +0.000 C 
ATOM      5  O   UNL     1       0.222  10.870  22.327  0.00  0.00    +0.000 OA
ATOM      6  C   UNL     1       1.177   9.929  22.051  0.00  0.00    +0.000 C 
ATOM      7  O   UNL     1       1.883   9.410  22.900  0.00  0.00    +0.000 OA
ATOM      8  C   UNL     1       1.226   9.646  20.566  0.00  0.00    +0.000 C 
ATOM      9  C   UNL     1      -0.111  10.237  20.141  0.00  0.00    +0.000 C 
ATOM     10  C   UNL     1      -0.264  10.742  18.715  0.00  0.00    +0.000 C 
ATOM     11  C   UNL     1      -1.658  11.357  18.556  0.00  0.00    +0.000 C 
ATOM     12  C   UNL     1      -2.003  12.450  19.611  0.00  0.00    +0.000 C 
ATOM     13  C   UNL     1      -1.253  13.757  19.277  0.00  0.00    +0.000 C 
ATOM     14  C   UNL     1      -3.477  12.754  19.451  0.00  0.00    +0.000 C 
ATOM     15  C   UNL     1      -4.327  12.885  20.471  0.00  0.00    +0.000 C 
ATOM     16  C   UNL     1      -3.870  12.698  21.856  0.00  0.00    +0.000 C 
ATOM     17  O   UNL     1      -4.610  13.018  22.782  0.00  0.00    +0.000 OA
ENDROOT
BRANCH   8  18
ATOM     18  C   UNL     1       1.370   8.143  20.336  0.00  0.00    +0.000 C 
BRANCH  18  19
ATOM     19  S   UNL     1       2.248   7.808  18.771  0.00  0.00    +0.000 S 
BRANCH  19  20
ATOM     20  C   UNL     1       2.802   6.143  19.061  0.00  0.00    +0.000 A 
ATOM     21  C   UNL     1       3.967   5.689  18.441  0.00  0.00    +0.000 A 
ATOM     22  C   UNL     1       4.456   4.409  18.716  0.00  0.00    +0.000 A 
ATOM     23  C   UNL     1       3.795   3.567  19.622  0.00  0.00    +0.000 A 
ATOM     24  C   UNL     1       4.370   2.210  19.919  0.00  0.00    +0.000 C 
ATOM     25  C   UNL     1       2.623   4.035  20.238  0.00  0.00    +0.000 A 
ATOM     26 BR   UNL     1       1.660   2.987  21.495  0.00  0.00    +0.000 Br
ATOM     27  C   UNL     1       2.131   5.313  19.959  0.00  0.00    +0.000 A 
ENDBRANCH  19  20
ENDBRANCH  18  19
ENDBRANCH   8  18
TORSDOF 3
ENDMDL
MODEL 7
REMARK VINA RESULT:      -7.4      1.310      1.619
REMARK  Name = 
REMARK  6 active torsions:
REMARK  status: ('A' for Active; 'I' for Inactive)
REMARK    1  A    between atoms: C_1  and  C_2
REMARK    2  A    between atoms: C_8  and  C_9
REMARK    3  A    between atoms: C_9  and  S_10
REMARK    4  A    between atoms: S_10  and  C_11
REMARK    5  A    between atoms: C_14  and  C_15
REMARK    6  A    between atoms: C_22  and  C_23
REMARK                            x       y       z     vdW  Elec       q    Type
REMARK                         _______ _______ _______ _____ _____    ______ ____
ROOT
ATOM      1  C   UNL     1      -3.737  13.506  20.829  0.00  0.00    +0.000 C 
ATOM      2  C   UNL     1      -4.108  12.491  19.782  0.00  0.00    +0.000 C 
ATOM      3  C   UNL     1      -3.343  11.956  18.796  0.00  0.00    +0.000 C 
ATOM      4  C   UNL     1      -1.888  12.286  18.491  0.00  0.00    +0.000 C 
ATOM      5  O   UNL     1      -1.222  13.203  19.340  0.00  0.00    +0.000 OA
ATOM      6  C   UNL     1       0.118  12.925  19.298  0.00  0.00    +0.000 C 
ATOM      7  O   UNL     1       0.976  13.643  19.785  0.00  0.00    +0.000 OA
ATOM      8  C   UNL     1       0.365  11.627  18.563  0.00  0.00    +0.000 C 
ATOM      9  C   UNL     1      -1.037  11.035  18.595  0.00  0.00    +0.000 C 
ATOM     10  C   UNL     1      -1.443  10.063  17.498  0.00  0.00    +0.000 C 
ATOM     11  C   UNL     1      -2.911   9.673  17.702  0.00  0.00    +0.000 C 
ATOM     12  C   UNL     1      -3.888  10.881  17.815  0.00  0.00    +0.000 C 
ATOM     13  C   UNL     1      -4.118  11.501  16.421  0.00  0.00    +0.000 C 
ATOM     14  C   UNL     1      -5.222  10.317  18.255  0.00  0.00    +0.000 C 
ATOM     15  C   UNL     1      -5.987  10.862  19.202  0.00  0.00    +0.000 C 
ATOM     16  C   UNL     1      -5.543  12.065  19.924  0.00  0.00    +0.000 C 
ATOM     17  O   UNL     1      -6.339  12.662  20.642  0.00  0.00    +0.000 OA
ENDROOT
BRANCH   8  18
ATOM     18  C   UNL     1       1.426  10.814  19.303  0.00  0.00    +0.000 C 
BRANCH  18  19
ATOM     19  S   UNL     1       0.651   9.514  20.325  0.00  0.00    +0.000 S 
BRANCH  19  20
ATOM     20  C   UNL     1       1.510   8.077  19.727  0.00  0.00    +0.000 A 
ATOM     21  C   UNL     1       2.245   8.158  18.543  0.00  0.00    +0.000 A 
ATOM     22  C   UNL     1       2.986   7.059  18.099  0.00  0.00    +0.000 A 
ATOM     23  C   UNL     1       3.011   5.867  18.835  0.00  0.00    +0.000 A 
ATOM     24  C   UNL     1       3.847   4.718  18.344  0.00  0.00    +0.000 C 
ATOM     25  C   UNL     1       2.267   5.797  20.023  0.00  0.00    +0.000 A 
ATOM     26 BR   UNL     1       2.246   4.237  21.108  0.00  0.00    +0.000 Br
ATOM     27  C   UNL     1       1.521   6.894  20.465  0.00  0.00    +0.000 A 
ENDBRANCH  19  20
ENDBRANCH  18  19
ENDBRANCH   8  18
TORSDOF 3
ENDMDL
MODEL 8
REMARK VINA RESULT:      -7.3      0.974      1.096
REMARK  Name = 
REMARK  6 active torsions:
REMARK  status: ('A' for Active; 'I' for Inactive)
REMARK    1  A    between atoms: C_1  and  C_2
REMARK    2  A    between atoms: C_8  and  C_9
REMARK    3  A    between atoms: C_9  and  S_10
REMARK    4  A    between atoms: S_10  and  C_11
REMARK    5  A    between atoms: C_14  and  C_15
REMARK    6  A    between atoms: C_22  and  C_23
REMARK                            x       y       z     vdW  Elec       q    Type
REMARK                         _______ _______ _______ _____ _____    ______ ____
ROOT
ATOM      1  C   UNL     1      -3.512  13.535  20.988  0.00  0.00    +0.000 C 
ATOM      2  C   UNL     1      -4.048  12.571  19.964  0.00  0.00    +0.000 C 
ATOM      3  C   UNL     1      -3.416  12.008  18.903  0.00  0.00    +0.000 C 
ATOM      4  C   UNL     1      -1.977  12.246  18.468  0.00  0.00    +0.000 C 
ATOM      5  O   UNL     1      -1.173  13.097  19.265  0.00  0.00    +0.000 OA
ATOM      6  C   UNL     1       0.135  12.731  19.092  0.00  0.00    +0.000 C 
ATOM      7  O   UNL     1       1.081  13.380  19.508  0.00  0.00    +0.000 OA
ATOM      8  C   UNL     1       0.223  11.436  18.316  0.00  0.00    +0.000 C 
ATOM      9  C   UNL     1      -1.208  10.939  18.471  0.00  0.00    +0.000 C 
ATOM     10  C   UNL     1      -1.780  10.021  17.401  0.00  0.00    +0.000 C 
ATOM     11  C   UNL     1      -3.246   9.726  17.736  0.00  0.00    +0.000 C 
ATOM     12  C   UNL     1      -4.122  10.994  17.960  0.00  0.00    +0.000 C 
ATOM     13  C   UNL     1      -4.438  11.659  16.604  0.00  0.00    +0.000 C 
ATOM     14  C   UNL     1      -5.445  10.511  18.514  0.00  0.00    +0.000 C 
ATOM     15  C   UNL     1      -6.080  11.085  19.538  0.00  0.00    +0.000 C 
ATOM     16  C   UNL     1      -5.490  12.238  20.234  0.00  0.00    +0.000 C 
ATOM     17  O   UNL     1      -6.173  12.872  21.033  0.00  0.00    +0.000 OA
ENDROOT
BRANCH   8  18
ATOM     18  C   UNL     1       1.289  10.538  18.940  0.00  0.00    +0.000 C 
BRANCH  18  19
ATOM     19  S   UNL     1       0.589   9.555  20.310  0.00  0.00    +0.000 S 
BRANCH  19  20
ATOM     20  C   UNL     1       1.453   8.018  20.081  0.00  0.00    +0.000 A 
ATOM     21  C   UNL     1       1.172   6.940  20.921  0.00  0.00    +0.000 A 
ATOM     22  C   UNL     1       1.787   5.703  20.708  0.00  0.00    +0.000 A 
ATOM     23  C   UNL     1       2.686   5.523  19.647  0.00  0.00    +0.000 A 
ATOM     24  C   UNL     1       3.302   4.169  19.428  0.00  0.00    +0.000 C 
ATOM     25  C   UNL     1       2.962   6.616  18.810  0.00  0.00    +0.000 A 
ATOM     26 BR   UNL     1       4.148   6.477  17.332  0.00  0.00    +0.000 Br
ATOM     27  C   UNL     1       2.350   7.854  19.026  0.00  0.00    +0.000 A 
ENDBRANCH  19  20
ENDBRANCH  18  19
ENDBRANCH   8  18
TORSDOF 3
ENDMDL
MODEL 9
REMARK VINA RESULT:      -7.2      4.559      8.345
REMARK  Name = 
REMARK  6 active torsions:
REMARK  status: ('A' for Active; 'I' for Inactive)
REMARK    1  A    between atoms: C_1  and  C_2
REMARK    2  A    between atoms: C_8  and  C_9
REMARK    3  A    between atoms: C_9  and  S_10
REMARK    4  A    between atoms: S_10  and  C_11
REMARK    5  A    between atoms: C_14  and  C_15
REMARK    6  A    between atoms: C_22  and  C_23
REMARK                            x       y       z     vdW  Elec       q    Type
REMARK                         _______ _______ _______ _____ _____    ______ ____
ROOT
ATOM      1  C   UNL     1       0.996   8.612  22.030  0.00  0.00    +0.000 C 
ATOM      2  C   UNL     1       1.005   8.977  20.570  0.00  0.00    +0.000 C 
ATOM      3  C   UNL     1       0.426  10.036  19.948  0.00  0.00    +0.000 C 
ATOM      4  C   UNL     1      -0.417  11.125  20.596  0.00  0.00    +0.000 C 
ATOM      5  O   UNL     1      -0.588  11.086  22.002  0.00  0.00    +0.000 OA
ATOM      6  C   UNL     1      -0.822  12.362  22.437  0.00  0.00    +0.000 C 
ATOM      7  O   UNL     1      -1.179  12.638  23.571  0.00  0.00    +0.000 OA
ATOM      8  C   UNL     1      -0.586  13.353  21.320  0.00  0.00    +0.000 C 
ATOM      9  C   UNL     1       0.215  12.483  20.361  0.00  0.00    +0.000 C 
ATOM     10  C   UNL     1       0.171  12.804  18.875  0.00  0.00    +0.000 C 
ATOM     11  C   UNL     1       0.984  11.749  18.118  0.00  0.00    +0.000 C 
ATOM     12  C   UNL     1       0.570  10.278  18.419  0.00  0.00    +0.000 C 
ATOM     13  C   UNL     1      -0.756   9.949  17.702  0.00  0.00    +0.000 C 
ATOM     14  C   UNL     1       1.624   9.395  17.789  0.00  0.00    +0.000 C 
ATOM     15  C   UNL     1       2.169   8.336  18.391  0.00  0.00    +0.000 C 
ATOM     16  C   UNL     1       1.788   7.977  19.765  0.00  0.00    +0.000 C 
ATOM     17  O   UNL     1       2.144   6.897  20.225  0.00  0.00    +0.000 OA
ENDROOT
BRANCH   8  18
ATOM     18  C   UNL     1       0.160  14.570  21.864  0.00  0.00    +0.000 C 
BRANCH  18  19
ATOM     19  S   UNL     1      -0.887  16.063  21.779  0.00  0.00    +0.000 S 
BRANCH  19  20
ATOM     20  C   UNL     1      -0.476  16.655  20.154  0.00  0.00    +0.000 A 
ATOM     21  C   UNL     1      -1.408  17.410  19.441  0.00  0.00    +0.000 A 
ATOM     22  C   UNL     1      -1.074  17.945  18.194  0.00  0.00    +0.000 A 
ATOM     23  C   UNL     1       0.200  17.743  17.645  0.00  0.00    +0.000 A 
ATOM     24  C   UNL     1       0.535  18.363  16.317  0.00  0.00    +0.000 C 
ATOM     25  C   UNL     1       1.129  16.980  18.371  0.00  0.00    +0.000 A 
ATOM     26 BR   UNL     1       2.888  16.660  17.730  0.00  0.00    +0.000 Br
ATOM     27  C   UNL     1       0.793  16.440  19.615  0.00  0.00    +0.000 A 
ENDBRANCH  19  20
ENDBRANCH  18  19
ENDBRANCH   8  18
TORSDOF 3
ENDMDL
