MODEL 1
REMARK VINA RESULT:      -7.4      0.000      0.000
REMARK  Name = 
REMARK  6 active torsions:
REMARK  status: ('A' for Active; 'I' for Inactive)
REMARK    1  A    between atoms: C_1  and  C_2
REMARK    2  A    between atoms: C_2  and  C_3
REMARK    3  A    between atoms: C_2  and  C_15
REMARK    4  A    between atoms: C_3  and  O_5
REMARK    5  A    between atoms: O_5  and  C_6
REMARK    6  A    between atoms: N_13  and  C_14
REMARK                            x       y       z     vdW  Elec       q    Type
REMARK                         _______ _______ _______ _____ _____    ______ ____
ROOT
ATOM      1  C   UNL     1       6.837   5.796  19.346  0.00  0.00    +0.000 C 
ATOM      2  O   UNL     1       7.434   5.127  20.186  0.00  0.00    +0.000 OA
ENDROOT
BRANCH   1   4
ATOM      3  C   UNL     1       7.620   7.766  17.631  0.00  0.00    +0.000 C 
ATOM      4  C   UNL     1       7.469   6.271  17.959  0.00  0.00    +0.000 C 
BRANCH   4   5
ATOM      5  C   UNL     1       6.830   5.613  16.751  0.00  0.00    +0.000 A 
ATOM      6  C   UNL     1       5.847   6.298  16.006  0.00  0.00    +0.000 A 
ATOM      7  C   UNL     1       5.290   5.709  14.883  0.00  0.00    +0.000 A 
ATOM      8  C   UNL     1       5.748   4.434  14.500  0.00  0.00    +0.000 A 
ATOM      9 BR   UNL     1       5.103   3.661  12.903  0.00  0.00    +0.000 Br
ATOM     10  C   UNL     1       6.687   3.742  15.248  0.00  0.00    +0.000 A 
ATOM     11  C   UNL     1       7.193   4.310  16.402  0.00  0.00    +0.000 A 
ENDBRANCH   4   5
ENDBRANCH   1   4
BRANCH   1  12
ATOM     12  O   UNL     1       5.522   6.084  19.515  0.00  0.00    +0.000 OA
BRANCH  12  13
ATOM     13  C   UNL     1       4.455   5.094  19.390  0.00  0.00    +0.000 C 
ATOM     14  C   UNL     1       3.306   5.424  18.403  0.00  0.00    +0.000 C 
ATOM     15  C   UNL     1       2.318   4.223  18.241  0.00  0.00    +0.000 C 
ATOM     16  C   UNL     1       2.696   3.255  17.101  0.00  0.00    +0.000 C 
ATOM     17  C   UNL     1       3.490   2.133  17.772  0.00  0.00    +0.000 C 
ATOM     18  C   UNL     1       3.704   2.658  19.193  0.00  0.00    +0.000 C 
ATOM     19  C   UNL     1       4.915   3.640  19.209  0.00  0.00    +0.000 C 
ATOM     20  N   UNL     1       2.448   3.400  19.460  0.00  0.00    +0.000 NA
ATOM     21  C   UNL     1       1.293   2.533  19.704  0.00  0.00    +0.000 C 
ENDBRANCH  12  13
ENDBRANCH   1  12
TORSDOF 4
ENDMDL
MODEL 2
REMARK VINA RESULT:      -7.3      1.043      1.175
REMARK  Name = 
REMARK  6 active torsions:
REMARK  status: ('A' for Active; 'I' for Inactive)
REMARK    1  A    between atoms: C_1  and  C_2
REMARK    2  A    between atoms: C_2  and  C_3
REMARK    3  A    between atoms: C_2  and  C_15
REMARK    4  A    between atoms: C_3  and  O_5
REMARK    5  A    between atoms: O_5  and  C_6
REMARK    6  A    between atoms: N_13  and  C_14
REMARK                            x       y       z     vdW  Elec       q    Type
REMARK                         _______ _______ _______ _____ _____    ______ ____
ROOT
ATOM      1  C   UNL     1       7.040   5.330  18.503  0.00  0.00    +0.000 C 
ATOM      2  O   UNL     1       7.880   4.441  18.619  0.00  0.00    +0.000 OA
ENDROOT
BRANCH   1   4
ATOM      3  C   UNL     1       5.906   7.436  17.194  0.00  0.00    +0.000 C 
ATOM      4  C   UNL     1       6.845   6.218  17.191  0.00  0.00    +0.000 C 
BRANCH   4   5
ATOM      5  C   UNL     1       6.511   5.402  15.957  0.00  0.00    +0.000 A 
ATOM      6  C   UNL     1       5.217   4.866  15.790  0.00  0.00    +0.000 A 
ATOM      7  C   UNL     1       4.903   4.150  14.646  0.00  0.00    +0.000 A 
ATOM      8  C   UNL     1       5.895   3.999  13.659  0.00  0.00    +0.000 A 
ATOM      9 BR   UNL     1       5.462   3.141  12.034  0.00  0.00    +0.000 Br
ATOM     10  C   UNL     1       7.179   4.492  13.834  0.00  0.00    +0.000 A 
ATOM     11  C   UNL     1       7.502   5.152  15.005  0.00  0.00    +0.000 A 
ENDBRANCH   4   5
ENDBRANCH   1   4
BRANCH   1  12
ATOM     12  O   UNL     1       6.128   5.537  19.486  0.00  0.00    +0.000 OA
BRANCH  12  13
ATOM     13  C   UNL     1       4.833   4.863  19.543  0.00  0.00    +0.000 C 
ATOM     14  C   UNL     1       3.588   5.705  19.164  0.00  0.00    +0.000 C 
ATOM     15  C   UNL     1       2.292   4.832  19.108  0.00  0.00    +0.000 C 
ATOM     16  C   UNL     1       2.008   4.229  17.718  0.00  0.00    +0.000 C 
ATOM     17  C   UNL     1       2.604   2.820  17.761  0.00  0.00    +0.000 C 
ATOM     18  C   UNL     1       3.381   2.810  19.078  0.00  0.00    +0.000 C 
ATOM     19  C   UNL     1       4.771   3.485  18.868  0.00  0.00    +0.000 C 
ATOM     20  N   UNL     1       2.539   3.653  19.961  0.00  0.00    +0.000 NA
ATOM     21  C   UNL     1       1.312   2.992  20.411  0.00  0.00    +0.000 C 
ENDBRANCH  12  13
ENDBRANCH   1  12
TORSDOF 4
ENDMDL
MODEL 3
REMARK VINA RESULT:      -7.2      1.122      1.377
REMARK  Name = 
REMARK  6 active torsions:
REMARK  status: ('A' for Active; 'I' for Inactive)
REMARK    1  A    between atoms: C_1  and  C_2
REMARK    2  A    between atoms: C_2  and  C_3
REMARK    3  A    between atoms: C_2  and  C_15
REMARK    4  A    between atoms: C_3  and  O_5
REMARK    5  A    between atoms: O_5  and  C_6
REMARK    6  A    between atoms: N_13  and  C_14
REMARK                            x       y       z     vdW  Elec       q    Type
REMARK                         _______ _______ _______ _____ _____    ______ ____
ROOT
ATOM      1  C   UNL     1       7.180   5.247  18.315  0.00  0.00    +0.000 C 
ATOM      2  O   UNL     1       7.926   4.273  18.379  0.00  0.00    +0.000 OA
ENDROOT
BRANCH   1   4
ATOM      3  C   UNL     1       6.209   7.486  17.099  0.00  0.00    +0.000 C 
ATOM      4  C   UNL     1       7.053   6.202  17.041  0.00  0.00    +0.000 C 
BRANCH   4   5
ATOM      5  C   UNL     1       6.658   5.466  15.776  0.00  0.00    +0.000 A 
ATOM      6  C   UNL     1       7.567   5.365  14.701  0.00  0.00    +0.000 A 
ATOM      7  C   UNL     1       7.218   4.663  13.558  0.00  0.00    +0.000 A 
ATOM      8  C   UNL     1       5.956   4.040  13.516  0.00  0.00    +0.000 A 
ATOM      9 BR   UNL     1       5.503   2.969  12.029  0.00  0.00    +0.000 Br
ATOM     10  C   UNL     1       5.047   4.166  14.554  0.00  0.00    +0.000 A 
ATOM     11  C   UNL     1       5.377   4.920  15.664  0.00  0.00    +0.000 A 
ENDBRANCH   4   5
ENDBRANCH   1   4
BRANCH   1  12
ATOM     12  O   UNL     1       6.312   5.507  19.325  0.00  0.00    +0.000 OA
BRANCH  12  13
ATOM     13  C   UNL     1       4.985   4.903  19.426  0.00  0.00    +0.000 C 
ATOM     14  C   UNL     1       3.787   5.764  18.951  0.00  0.00    +0.000 C 
ATOM     15  C   UNL     1       2.450   4.952  18.960  0.00  0.00    +0.000 C 
ATOM     16  C   UNL     1       2.151   4.233  17.629  0.00  0.00    +0.000 C 
ATOM     17  C   UNL     1       2.677   2.809  17.813  0.00  0.00    +0.000 C 
ATOM     18  C   UNL     1       3.440   2.887  19.137  0.00  0.00    +0.000 C 
ATOM     19  C   UNL     1       4.863   3.471  18.884  0.00  0.00    +0.000 C 
ATOM     20  N   UNL     1       2.630   3.849  19.924  0.00  0.00    +0.000 NA
ATOM     21  C   UNL     1       1.369   3.293  20.416  0.00  0.00    +0.000 C 
ENDBRANCH  12  13
ENDBRANCH   1  12
TORSDOF 4
ENDMDL
MODEL 4
REMARK VINA RESULT:      -7.0      1.368      2.135
REMARK  Name = 
REMARK  6 active torsions:
REMARK  status: ('A' for Active; 'I' for Inactive)
REMARK    1  A    between atoms: C_1  and  C_2
REMARK    2  A    between atoms: C_2  and  C_3
REMARK    3  A    between atoms: C_2  and  C_15
REMARK    4  A    between atoms: C_3  and  O_5
REMARK    5  A    between atoms: O_5  and  C_6
REMARK    6  A    between atoms: N_13  and  C_14
REMARK                            x       y       z     vdW  Elec       q    Type
REMARK                         _______ _______ _______ _____ _____    ______ ____
ROOT
ATOM      1  C   UNL     1       6.866   5.208  18.377  0.00  0.00    +0.000 C 
ATOM      2  O   UNL     1       7.789   4.407  18.503  0.00  0.00    +0.000 OA
ENDROOT
BRANCH   1   4
ATOM      3  C   UNL     1       5.540   7.195  17.061  0.00  0.00    +0.000 C 
ATOM      4  C   UNL     1       6.613   6.093  17.072  0.00  0.00    +0.000 C 
BRANCH   4   5
ATOM      5  C   UNL     1       6.417   5.268  15.815  0.00  0.00    +0.000 A 
ATOM      6  C   UNL     1       5.268   4.463  15.667  0.00  0.00    +0.000 A 
ATOM      7  C   UNL     1       5.072   3.736  14.503  0.00  0.00    +0.000 A 
ATOM      8  C   UNL     1       6.031   3.846  13.479  0.00  0.00    +0.000 A 
ATOM      9 BR   UNL     1       5.731   2.972  11.833  0.00  0.00    +0.000 Br
ATOM     10  C   UNL     1       7.180   4.607  13.633  0.00  0.00    +0.000 A 
ATOM     11  C   UNL     1       7.398   5.279  14.821  0.00  0.00    +0.000 A 
ENDBRANCH   4   5
ENDBRANCH   1   4
BRANCH   1  12
ATOM     12  O   UNL     1       5.913   5.305  19.338  0.00  0.00    +0.000 OA
BRANCH  12  13
ATOM     13  C   UNL     1       4.638   4.593  19.287  0.00  0.00    +0.000 C 
ATOM     14  C   UNL     1       4.623   3.143  19.835  0.00  0.00    +0.000 C 
ATOM     15  C   UNL     1       3.176   2.552  19.872  0.00  0.00    +0.000 C 
ATOM     16  C   UNL     1       2.435   2.805  21.201  0.00  0.00    +0.000 C 
ATOM     17  C   UNL     1       1.600   4.064  20.963  0.00  0.00    +0.000 C 
ATOM     18  C   UNL     1       2.101   4.565  19.607  0.00  0.00    +0.000 C 
ATOM     19  C   UNL     1       3.420   5.373  19.805  0.00  0.00    +0.000 C 
ATOM     20  N   UNL     1       2.385   3.304  18.878  0.00  0.00    +0.000 NA
ATOM     21  C   UNL     1       1.182   2.598  18.435  0.00  0.00    +0.000 C 
ENDBRANCH  12  13
ENDBRANCH   1  12
TORSDOF 4
ENDMDL
MODEL 5
REMARK VINA RESULT:      -7.0      1.244      1.701
REMARK  Name = 
REMARK  6 active torsions:
REMARK  status: ('A' for Active; 'I' for Inactive)
REMARK    1  A    between atoms: C_1  and  C_2
REMARK    2  A    between atoms: C_2  and  C_3
REMARK    3  A    between atoms: C_2  and  C_15
REMARK    4  A    between atoms: C_3  and  O_5
REMARK    5  A    between atoms: O_5  and  C_6
REMARK    6  A    between atoms: N_13  and  C_14
REMARK                            x       y       z     vdW  Elec       q    Type
REMARK                         _______ _______ _______ _____ _____    ______ ____
ROOT
ATOM      1  C   UNL     1       6.788   5.159  18.682  0.00  0.00    +0.000 C 
ATOM      2  O   UNL     1       7.465   5.329  19.693  0.00  0.00    +0.000 OA
ENDROOT
BRANCH   1   4
ATOM      3  C   UNL     1       5.878   7.424  17.467  0.00  0.00    +0.000 C 
ATOM      4  C   UNL     1       6.757   6.162  17.440  0.00  0.00    +0.000 C 
BRANCH   4   5
ATOM      5  C   UNL     1       6.504   5.471  16.115  0.00  0.00    +0.000 A 
ATOM      6  C   UNL     1       7.581   5.163  15.257  0.00  0.00    +0.000 A 
ATOM      7  C   UNL     1       7.352   4.500  14.062  0.00  0.00    +0.000 A 
ATOM      8  C   UNL     1       6.032   4.126  13.748  0.00  0.00    +0.000 A 
ATOM      9 BR   UNL     1       5.703   3.109  12.192  0.00  0.00    +0.000 Br
ATOM     10  C   UNL     1       4.966   4.457  14.570  0.00  0.00    +0.000 A 
ATOM     11  C   UNL     1       5.194   5.172  15.730  0.00  0.00    +0.000 A 
ENDBRANCH   4   5
ENDBRANCH   1   4
BRANCH   1  12
ATOM     12  O   UNL     1       6.088   4.008  18.516  0.00  0.00    +0.000 OA
BRANCH  12  13
ATOM     13  C   UNL     1       4.814   3.735  19.176  0.00  0.00    +0.000 C 
ATOM     14  C   UNL     1       3.908   4.956  19.481  0.00  0.00    +0.000 C 
ATOM     15  C   UNL     1       2.514   4.519  20.037  0.00  0.00    +0.000 C 
ATOM     16  C   UNL     1       1.447   4.305  18.944  0.00  0.00    +0.000 C 
ATOM     17  C   UNL     1       1.472   2.805  18.645  0.00  0.00    +0.000 C 
ATOM     18  C   UNL     1       2.700   2.316  19.414  0.00  0.00    +0.000 C 
ATOM     19  C   UNL     1       3.984   2.591  18.573  0.00  0.00    +0.000 C 
ATOM     20  N   UNL     1       2.693   3.175  20.623  0.00  0.00    +0.000 NA
ATOM     21  C   UNL     1       1.655   2.819  21.592  0.00  0.00    +0.000 C 
ENDBRANCH  12  13
ENDBRANCH   1  12
TORSDOF 4
ENDMDL
MODEL 6
REMARK VINA RESULT:      -7.0      1.381      2.217
REMARK  Name = 
REMARK  6 active torsions:
REMARK  status: ('A' for Active; 'I' for Inactive)
REMARK    1  A    between atoms: C_1  and  C_2
REMARK    2  A    between atoms: C_2  and  C_3
REMARK    3  A    between atoms: C_2  and  C_15
REMARK    4  A    between atoms: C_3  and  O_5
REMARK    5  A    between atoms: O_5  and  C_6
REMARK    6  A    between atoms: N_13  and  C_14
REMARK                            x       y       z     vdW  Elec       q    Type
REMARK                         _______ _______ _______ _____ _____    ______ ____
ROOT
ATOM      1  C   UNL     1       6.873   5.154  18.270  0.00  0.00    +0.000 C 
ATOM      2  O   UNL     1       7.795   4.343  18.312  0.00  0.00    +0.000 OA
ENDROOT
BRANCH   1   4
ATOM      3  C   UNL     1       5.443   7.152  17.087  0.00  0.00    +0.000 C 
ATOM      4  C   UNL     1       6.565   6.102  17.023  0.00  0.00    +0.000 C 
BRANCH   4   5
ATOM      5  C   UNL     1       6.392   5.344  15.721  0.00  0.00    +0.000 A 
ATOM      6  C   UNL     1       7.405   5.378  14.740  0.00  0.00    +0.000 A 
ATOM      7  C   UNL     1       7.261   4.657  13.565  0.00  0.00    +0.000 A 
ATOM      8  C   UNL     1       6.099   3.881  13.396  0.00  0.00    +0.000 A 
ATOM      9 BR   UNL     1       5.931   2.787  11.867  0.00  0.00    +0.000 Br
ATOM     10  C   UNL     1       5.085   3.873  14.340  0.00  0.00    +0.000 A 
ATOM     11  C   UNL     1       5.208   4.643  15.481  0.00  0.00    +0.000 A 
ENDBRANCH   4   5
ENDBRANCH   1   4
BRANCH   1  12
ATOM     12  O   UNL     1       5.969   5.211  19.280  0.00  0.00    +0.000 OA
BRANCH  12  13
ATOM     13  C   UNL     1       4.679   4.527  19.250  0.00  0.00    +0.000 C 
ATOM     14  C   UNL     1       4.636   3.088  19.825  0.00  0.00    +0.000 C 
ATOM     15  C   UNL     1       3.177   2.529  19.882  0.00  0.00    +0.000 C 
ATOM     16  C   UNL     1       2.449   2.823  21.210  0.00  0.00    +0.000 C 
ATOM     17  C   UNL     1       1.640   4.096  20.952  0.00  0.00    +0.000 C 
ATOM     18  C   UNL     1       2.144   4.560  19.584  0.00  0.00    +0.000 C 
ATOM     19  C   UNL     1       3.481   5.342  19.760  0.00  0.00    +0.000 C 
ATOM     20  N   UNL     1       2.396   3.280  18.878  0.00  0.00    +0.000 NA
ATOM     21  C   UNL     1       1.176   2.591  18.455  0.00  0.00    +0.000 C 
ENDBRANCH  12  13
ENDBRANCH   1  12
TORSDOF 4
ENDMDL
MODEL 7
REMARK VINA RESULT:      -6.9      1.130      1.913
REMARK  Name = 
REMARK  6 active torsions:
REMARK  status: ('A' for Active; 'I' for Inactive)
REMARK    1  A    between atoms: C_1  and  C_2
REMARK    2  A    between atoms: C_2  and  C_3
REMARK    3  A    between atoms: C_2  and  C_15
REMARK    4  A    between atoms: C_3  and  O_5
REMARK    5  A    between atoms: O_5  and  C_6
REMARK    6  A    between atoms: N_13  and  C_14
REMARK                            x       y       z     vdW  Elec       q    Type
REMARK                         _______ _______ _______ _____ _____    ______ ____
ROOT
ATOM      1  C   UNL     1       6.781   5.206  18.955  0.00  0.00    +0.000 C 
ATOM      2  O   UNL     1       7.053   5.574  20.095  0.00  0.00    +0.000 OA
ENDROOT
BRANCH   1   4
ATOM      3  C   UNL     1       7.002   7.518  17.525  0.00  0.00    +0.000 C 
ATOM      4  C   UNL     1       7.198   5.996  17.631  0.00  0.00    +0.000 C 
BRANCH   4   5
ATOM      5  C   UNL     1       6.632   5.384  16.364  0.00  0.00    +0.000 A 
ATOM      6  C   UNL     1       5.411   5.852  15.834  0.00  0.00    +0.000 A 
ATOM      7  C   UNL     1       4.913   5.316  14.657  0.00  0.00    +0.000 A 
ATOM      8  C   UNL     1       5.667   4.323  14.003  0.00  0.00    +0.000 A 
ATOM      9 BR   UNL     1       5.081   3.667  12.333  0.00  0.00    +0.000 Br
ATOM     10  C   UNL     1       6.849   3.836  14.538  0.00  0.00    +0.000 A 
ATOM     11  C   UNL     1       7.308   4.331  15.744  0.00  0.00    +0.000 A 
ENDBRANCH   4   5
ENDBRANCH   1   4
BRANCH   1  12
ATOM     12  O   UNL     1       6.182   4.006  18.751  0.00  0.00    +0.000 OA
BRANCH  12  13
ATOM     13  C   UNL     1       4.758   3.765  18.968  0.00  0.00    +0.000 C 
ATOM     14  C   UNL     1       4.382   2.707  20.037  0.00  0.00    +0.000 C 
ATOM     15  C   UNL     1       2.839   2.659  20.287  0.00  0.00    +0.000 C 
ATOM     16  C   UNL     1       2.360   3.606  21.406  0.00  0.00    +0.000 C 
ATOM     17  C   UNL     1       1.909   4.880  20.688  0.00  0.00    +0.000 C 
ATOM     18  C   UNL     1       2.378   4.655  19.249  0.00  0.00    +0.000 C 
ATOM     19  C   UNL     1       3.889   5.021  19.130  0.00  0.00    +0.000 C 
ATOM     20  N   UNL     1       2.195   3.194  19.071  0.00  0.00    +0.000 NA
ATOM     21  C   UNL     1       0.796   2.789  18.926  0.00  0.00    +0.000 C 
ENDBRANCH  12  13
ENDBRANCH   1  12
TORSDOF 4
ENDMDL
MODEL 8
REMARK VINA RESULT:      -6.7      1.511      2.358
REMARK  Name = 
REMARK  6 active torsions:
REMARK  status: ('A' for Active; 'I' for Inactive)
REMARK    1  A    between atoms: C_1  and  C_2
REMARK    2  A    between atoms: C_2  and  C_3
REMARK    3  A    between atoms: C_2  and  C_15
REMARK    4  A    between atoms: C_3  and  O_5
REMARK    5  A    between atoms: O_5  and  C_6
REMARK    6  A    between atoms: N_13  and  C_14
REMARK                            x       y       z     vdW  Elec       q    Type
REMARK                         _______ _______ _______ _____ _____    ______ ____
ROOT
ATOM      1  C   UNL     1       5.088   6.443  18.058  0.00  0.00    +0.000 C 
ATOM      2  O   UNL     1       4.336   7.321  17.644  0.00  0.00    +0.000 OA
ENDROOT
BRANCH   1   4
ATOM      3  C   UNL     1       7.564   7.197  17.199  0.00  0.00    +0.000 C 
ATOM      4  C   UNL     1       6.509   6.099  17.416  0.00  0.00    +0.000 C 
BRANCH   4   5
ATOM      5  C   UNL     1       6.410   5.314  16.122  0.00  0.00    +0.000 A 
ATOM      6  C   UNL     1       5.351   4.403  15.924  0.00  0.00    +0.000 A 
ATOM      7  C   UNL     1       5.242   3.713  14.728  0.00  0.00    +0.000 A 
ATOM      8  C   UNL     1       6.193   3.965  13.722  0.00  0.00    +0.000 A 
ATOM      9 BR   UNL     1       5.998   3.138  12.036  0.00  0.00    +0.000 Br
ATOM     10  C   UNL     1       7.255   4.832  13.924  0.00  0.00    +0.000 A 
ATOM     11  C   UNL     1       7.393   5.470  15.142  0.00  0.00    +0.000 A 
ENDBRANCH   4   5
ENDBRANCH   1   4
BRANCH   1  12
ATOM     12  O   UNL     1       4.785   5.765  19.194  0.00  0.00    +0.000 OA
BRANCH  12  13
ATOM     13  C   UNL     1       3.705   4.786  19.288  0.00  0.00    +0.000 C 
ATOM     14  C   UNL     1       4.114   3.316  19.559  0.00  0.00    +0.000 C 
ATOM     15  C   UNL     1       2.869   2.401  19.796  0.00  0.00    +0.000 C 
ATOM     16  C   UNL     1       2.441   2.302  21.274  0.00  0.00    +0.000 C 
ATOM     17  C   UNL     1       1.339   3.350  21.446  0.00  0.00    +0.000 C 
ATOM     18  C   UNL     1       1.382   4.122  20.126  0.00  0.00    +0.000 C 
ATOM     19  C   UNL     1       2.521   5.185  20.181  0.00  0.00    +0.000 C 
ATOM     20  N   UNL     1       1.724   3.066  19.141  0.00  0.00    +0.000 NA
ATOM     21  C   UNL     1       0.615   2.158  18.844  0.00  0.00    +0.000 C 
ENDBRANCH  12  13
ENDBRANCH   1  12
TORSDOF 4
ENDMDL
MODEL 9
REMARK VINA RESULT:      -6.6      2.731      5.403
REMARK  Name = 
REMARK  6 active torsions:
REMARK  status: ('A' for Active; 'I' for Inactive)
REMARK    1  A    between atoms: C_1  and  C_2
REMARK    2  A    between atoms: C_2  and  C_3
REMARK    3  A    between atoms: C_2  and  C_15
REMARK    4  A    between atoms: C_3  and  O_5
REMARK    5  A    between atoms: O_5  and  C_6
REMARK    6  A    between atoms: N_13  and  C_14
REMARK                            x       y       z     vdW  Elec       q    Type
REMARK                         _______ _______ _______ _____ _____    ______ ____
ROOT
ATOM      1  C   UNL     1       3.025   2.602  20.521  0.00  0.00    +0.000 C 
ATOM      2  O   UNL     1       3.243   2.415  21.716  0.00  0.00    +0.000 OA
ENDROOT
BRANCH   1   4
ATOM      3  C   UNL     1       0.878   2.413  18.851  0.00  0.00    +0.000 C 
ATOM      4  C   UNL     1       1.656   3.178  19.936  0.00  0.00    +0.000 C 
BRANCH   4   5
ATOM      5  C   UNL     1       1.757   4.620  19.478  0.00  0.00    +0.000 A 
ATOM      6  C   UNL     1       2.020   5.644  20.412  0.00  0.00    +0.000 A 
ATOM      7  C   UNL     1       2.146   6.957  19.988  0.00  0.00    +0.000 A 
ATOM      8  C   UNL     1       2.032   7.228  18.611  0.00  0.00    +0.000 A 
ATOM      9 BR   UNL     1       2.328   8.985  17.987  0.00  0.00    +0.000 Br
ATOM     10  C   UNL     1       1.739   6.232  17.694  0.00  0.00    +0.000 A 
ATOM     11  C   UNL     1       1.552   4.934  18.132  0.00  0.00    +0.000 A 
ENDBRANCH   4   5
ENDBRANCH   1   4
BRANCH   1  12
ATOM     12  O   UNL     1       4.016   2.424  19.612  0.00  0.00    +0.000 OA
BRANCH  12  13
ATOM     13  C   UNL     1       4.471   3.468  18.696  0.00  0.00    +0.000 C 
ATOM     14  C   UNL     1       5.731   4.267  19.118  0.00  0.00    +0.000 C 
ATOM     15  C   UNL     1       6.206   5.238  17.987  0.00  0.00    +0.000 C 
ATOM     16  C   UNL     1       7.226   4.609  17.016  0.00  0.00    +0.000 C 
ATOM     17  C   UNL     1       6.397   4.106  15.833  0.00  0.00    +0.000 C 
ATOM     18  C   UNL     1       4.956   4.274  16.319  0.00  0.00    +0.000 C 
ATOM     19  C   UNL     1       4.566   3.061  17.218  0.00  0.00    +0.000 C 
ATOM     20  N   UNL     1       5.029   5.508  17.138  0.00  0.00    +0.000 NA
ATOM     21  C   UNL     1       5.151   6.733  16.346  0.00  0.00    +0.000 C 
ENDBRANCH  12  13
ENDBRANCH   1  12
TORSDOF 4
ENDMDL
