MODEL 1
REMARK VINA RESULT:      -8.9      0.000      0.000
REMARK  Name = 
REMARK  8 active torsions:
REMARK  status: ('A' for Active; 'I' for Inactive)
REMARK    1  A    between atoms: C_1  and  C_2
REMARK    2  A    between atoms: C_2  and  C_3
REMARK    3  A    between atoms: C_2  and  N_4
REMARK    4  A    between atoms: C_6  and  C_7
REMARK    5  A    between atoms: C_7  and  C_9
REMARK    6  A    between atoms: C_13  and  N_14
REMARK    7  A    between atoms: C_15  and  C_17
REMARK    8  A    between atoms: C_17  and  C_18
REMARK                            x       y       z     vdW  Elec       q    Type
REMARK                         _______ _______ _______ _____ _____    ______ ____
ROOT
ATOM      1  C   UNL     1       1.791   8.561  19.008  0.00  0.00    +0.000 A 
ATOM      2  C   UNL     1       1.280   8.307  20.274  0.00  0.00    +0.000 A 
ATOM      3  N   UNL     1       1.473   7.154  20.946  0.00  0.00    +0.000 NA
ATOM      4  C   UNL     1       2.207   6.200  20.320  0.00  0.00    +0.000 A 
ATOM      5  C   UNL     1       2.747   6.328  19.042  0.00  0.00    +0.000 A 
ATOM      6  C   UNL     1       2.505   7.535  18.365  0.00  0.00    +0.000 A 
ENDROOT
BRANCH   5   7
ATOM      7  N   UNL     1       3.513   5.312  18.405  0.00  0.00    +0.000 N 
ATOM      8  C   UNL     1       4.791   4.932  18.788  0.00  0.00    +0.000 C 
ATOM      9  O   UNL     1       5.454   5.469  19.673  0.00  0.00    +0.000 OA
ATOM     10  H   UNL     1       3.137   4.916  17.550  0.00  0.00    +0.000 HD
BRANCH   8  11
ATOM     11  C   UNL     1       5.395   3.792  17.980  0.00  0.00    +0.000 C 
BRANCH  11  12
ATOM     12  C   UNL     1       5.968   4.239  16.662  0.00  0.00    +0.000 A 
ATOM     13  C   UNL     1       6.928   5.241  16.605  0.00  0.00    +0.000 A 
ATOM     14  N   UNL     1       7.519   5.654  15.465  0.00  0.00    +0.000 NA
ATOM     15  C   UNL     1       7.177   5.027  14.325  0.00  0.00    +0.000 A 
ATOM     16  C   UNL     1       7.805   5.390  13.147  0.00  0.00    +0.000 A 
ATOM     17  C   UNL     1       7.518   4.733  11.955  0.00  0.00    +0.000 A 
ATOM     18  C   UNL     1       6.567   3.733  11.983  0.00  0.00    +0.000 A 
ATOM     19  N   UNL     1       5.910   3.353  13.103  0.00  0.00    +0.000 NA
ATOM     20  C   UNL     1       6.227   3.988  14.254  0.00  0.00    +0.000 A 
ATOM     21  C   UNL     1       5.627   3.616  15.454  0.00  0.00    +0.000 A 
ENDBRANCH  11  12
ENDBRANCH   8  11
ENDBRANCH   5   7
BRANCH   1  22
ATOM     22  C   UNL     1       1.542   9.869  18.346  0.00  0.00    +0.000 C 
ATOM     23  O   UNL     1       2.266  10.201  17.416  0.00  0.00    +0.000 OA
BRANCH  22  26
ATOM     24  N   UNL     1      -0.757  12.251  19.944  0.00  0.00    +0.000 N 
ATOM     25  C   UNL     1       0.499  11.724  19.758  0.00  0.00    +0.000 A 
ATOM     26  C   UNL     1       0.431  10.711  18.810  0.00  0.00    +0.000 A 
ATOM     27  C   UNL     1      -0.929  10.683  18.362  0.00  0.00    +0.000 A 
ATOM     28  C   UNL     1      -1.672   9.939  17.443  0.00  0.00    +0.000 A 
ATOM     29  N   UNL     1      -2.994  10.187  17.289  0.00  0.00    +0.000 NA
ATOM     30  C   UNL     1      -3.546  11.158  18.043  0.00  0.00    +0.000 A 
ATOM     31  N   UNL     1      -2.943  11.928  18.964  0.00  0.00    +0.000 NA
ATOM     32  C   UNL     1      -1.634  11.643  19.079  0.00  0.00    +0.000 A 
BRANCH  24  34
ATOM     33  C   UNL     1      -1.089  12.725  22.349  0.00  0.00    +0.000 C 
ATOM     34  C   UNL     1      -1.111  13.279  20.923  0.00  0.00    +0.000 C 
ATOM     35  C   UNL     1      -0.214  14.510  20.797  0.00  0.00    +0.000 C 
ENDBRANCH  24  34
ENDBRANCH  22  26
ENDBRANCH   1  22
TORSDOF 6
ENDMDL
MODEL 2
REMARK VINA RESULT:      -8.8      2.408      4.089
REMARK  Name = 
REMARK  8 active torsions:
REMARK  status: ('A' for Active; 'I' for Inactive)
REMARK    1  A    between atoms: C_1  and  C_2
REMARK    2  A    between atoms: C_2  and  C_3
REMARK    3  A    between atoms: C_2  and  N_4
REMARK    4  A    between atoms: C_6  and  C_7
REMARK    5  A    between atoms: C_7  and  C_9
REMARK    6  A    between atoms: C_13  and  N_14
REMARK    7  A    between atoms: C_15  and  C_17
REMARK    8  A    between atoms: C_17  and  C_18
REMARK                            x       y       z     vdW  Elec       q    Type
REMARK                         _______ _______ _______ _____ _____    ______ ____
ROOT
ATOM      1  C   UNL     1      -0.337  10.859  20.709  0.00  0.00    +0.000 A 
ATOM      2  C   UNL     1      -0.422  11.314  22.018  0.00  0.00    +0.000 A 
ATOM      3  N   UNL     1      -0.122  10.562  23.097  0.00  0.00    +0.000 NA
ATOM      4  C   UNL     1       0.274   9.286  22.859  0.00  0.00    +0.000 A 
ATOM      5  C   UNL     1       0.371   8.710  21.594  0.00  0.00    +0.000 A 
ATOM      6  C   UNL     1       0.029   9.518  20.497  0.00  0.00    +0.000 A 
ENDROOT
BRANCH   5   7
ATOM      7  N   UNL     1       0.788   7.369  21.369  0.00  0.00    +0.000 N 
ATOM      8  C   UNL     1       1.733   6.985  20.429  0.00  0.00    +0.000 C 
ATOM      9  O   UNL     1       2.276   7.737  19.622  0.00  0.00    +0.000 OA
ATOM     10  H   UNL     1       0.282   6.638  21.857  0.00  0.00    +0.000 HD
BRANCH   8  11
ATOM     11  C   UNL     1       2.047   5.496  20.400  0.00  0.00    +0.000 C 
BRANCH  11  12
ATOM     12  C   UNL     1       3.074   5.127  19.362  0.00  0.00    +0.000 A 
ATOM     13  C   UNL     1       2.693   4.797  18.068  0.00  0.00    +0.000 A 
ATOM     14  N   UNL     1       3.561   4.508  17.077  0.00  0.00    +0.000 NA
ATOM     15  C   UNL     1       4.873   4.579  17.361  0.00  0.00    +0.000 A 
ATOM     16  C   UNL     1       5.790   4.341  16.353  0.00  0.00    +0.000 A 
ATOM     17  C   UNL     1       7.156   4.453  16.590  0.00  0.00    +0.000 A 
ATOM     18  C   UNL     1       7.563   4.779  17.869  0.00  0.00    +0.000 A 
ATOM     19  N   UNL     1       6.709   5.003  18.894  0.00  0.00    +0.000 NA
ATOM     20  C   UNL     1       5.386   4.915  18.631  0.00  0.00    +0.000 A 
ATOM     21  C   UNL     1       4.449   5.180  19.625  0.00  0.00    +0.000 A 
ENDBRANCH  11  12
ENDBRANCH   8  11
ENDBRANCH   5   7
BRANCH   1  22
ATOM     22  C   UNL     1      -0.672  11.762  19.577  0.00  0.00    +0.000 C 
ATOM     23  O   UNL     1       0.225  12.427  19.073  0.00  0.00    +0.000 OA
BRANCH  22  26
ATOM     24  N   UNL     1      -4.271  12.200  18.969  0.00  0.00    +0.000 N 
ATOM     25  C   UNL     1      -3.145  12.380  19.737  0.00  0.00    +0.000 A 
ATOM     26  C   UNL     1      -2.055  11.818  19.084  0.00  0.00    +0.000 A 
ATOM     27  C   UNL     1      -2.552  11.339  17.829  0.00  0.00    +0.000 A 
ATOM     28  C   UNL     1      -2.017  10.694  16.714  0.00  0.00    +0.000 A 
ATOM     29  N   UNL     1      -2.822  10.364  15.676  0.00  0.00    +0.000 NA
ATOM     30  C   UNL     1      -4.129  10.680  15.767  0.00  0.00    +0.000 A 
ATOM     31  N   UNL     1      -4.761  11.285  16.786  0.00  0.00    +0.000 NA
ATOM     32  C   UNL     1      -3.919  11.590  17.789  0.00  0.00    +0.000 A 
BRANCH  24  34
ATOM     33  C   UNL     1      -6.406  11.381  19.914  0.00  0.00    +0.000 C 
ATOM     34  C   UNL     1      -5.631  12.576  19.354  0.00  0.00    +0.000 C 
ATOM     35  C   UNL     1      -5.636  13.746  20.338  0.00  0.00    +0.000 C 
ENDBRANCH  24  34
ENDBRANCH  22  26
ENDBRANCH   1  22
TORSDOF 6
ENDMDL
MODEL 3
REMARK VINA RESULT:      -8.6      1.682     10.015
REMARK  Name = 
REMARK  8 active torsions:
REMARK  status: ('A' for Active; 'I' for Inactive)
REMARK    1  A    between atoms: C_1  and  C_2
REMARK    2  A    between atoms: C_2  and  C_3
REMARK    3  A    between atoms: C_2  and  N_4
REMARK    4  A    between atoms: C_6  and  C_7
REMARK    5  A    between atoms: C_7  and  C_9
REMARK    6  A    between atoms: C_13  and  N_14
REMARK    7  A    between atoms: C_15  and  C_17
REMARK    8  A    between atoms: C_17  and  C_18
REMARK                            x       y       z     vdW  Elec       q    Type
REMARK                         _______ _______ _______ _____ _____    ______ ____
ROOT
ATOM      1  C   UNL     1       2.456   4.816  18.608  0.00  0.00    +0.000 A 
ATOM      2  C   UNL     1       2.196   4.218  19.833  0.00  0.00    +0.000 A 
ATOM      3  N   UNL     1       1.807   4.896  20.934  0.00  0.00    +0.000 NA
ATOM      4  C   UNL     1       1.679   6.240  20.807  0.00  0.00    +0.000 A 
ATOM      5  C   UNL     1       1.938   6.954  19.638  0.00  0.00    +0.000 A 
ATOM      6  C   UNL     1       2.363   6.216  18.521  0.00  0.00    +0.000 A 
ENDROOT
BRANCH   5   7
ATOM      7  N   UNL     1       1.798   8.365  19.530  0.00  0.00    +0.000 N 
ATOM      8  C   UNL     1       1.954   9.084  18.354  0.00  0.00    +0.000 C 
ATOM      9  O   UNL     1       2.304   8.610  17.275  0.00  0.00    +0.000 OA
ATOM     10  H   UNL     1       1.681   8.887  20.392  0.00  0.00    +0.000 HD
BRANCH   8  11
ATOM     11  C   UNL     1       1.714  10.583  18.476  0.00  0.00    +0.000 C 
BRANCH  11  12
ATOM     12  C   UNL     1       0.272  10.933  18.730  0.00  0.00    +0.000 A 
ATOM     13  C   UNL     1      -0.071  11.928  19.636  0.00  0.00    +0.000 A 
ATOM     14  N   UNL     1      -1.338  12.326  19.873  0.00  0.00    +0.000 NA
ATOM     15  C   UNL     1      -2.317  11.743  19.160  0.00  0.00    +0.000 A 
ATOM     16  C   UNL     1      -3.621  12.167  19.341  0.00  0.00    +0.000 A 
ATOM     17  C   UNL     1      -4.657  11.626  18.587  0.00  0.00    +0.000 A 
ATOM     18  C   UNL     1      -4.344  10.633  17.679  0.00  0.00    +0.000 A 
ATOM     19  N   UNL     1      -3.090  10.169  17.478  0.00  0.00    +0.000 NA
ATOM     20  C   UNL     1      -2.096  10.730  18.203  0.00  0.00    +0.000 A 
ATOM     21  C   UNL     1      -0.774  10.337  18.013  0.00  0.00    +0.000 A 
ENDBRANCH  11  12
ENDBRANCH   8  11
ENDBRANCH   5   7
BRANCH   1  22
ATOM     22  C   UNL     1       2.865   3.990  17.442  0.00  0.00    +0.000 C 
ATOM     23  O   UNL     1       2.046   3.222  16.952  0.00  0.00    +0.000 OA
BRANCH  22  26
ATOM     24  N   UNL     1       5.962   4.183  15.469  0.00  0.00    +0.000 N 
ATOM     25  C   UNL     1       4.598   4.028  15.567  0.00  0.00    +0.000 A 
ATOM     26  C   UNL     1       4.224   4.130  16.900  0.00  0.00    +0.000 A 
ATOM     27  C   UNL     1       5.423   4.428  17.624  0.00  0.00    +0.000 A 
ATOM     28  C   UNL     1       5.764   4.659  18.958  0.00  0.00    +0.000 A 
ATOM     29  N   UNL     1       7.054   4.902  19.291  0.00  0.00    +0.000 NA
ATOM     30  C   UNL     1       7.969   4.910  18.302  0.00  0.00    +0.000 A 
ATOM     31  N   UNL     1       7.769   4.690  16.992  0.00  0.00    +0.000 NA
ATOM     32  C   UNL     1       6.475   4.454  16.714  0.00  0.00    +0.000 A 
BRANCH  24  34
ATOM     33  C   UNL     1       5.895   3.521  13.087  0.00  0.00    +0.000 C 
ATOM     34  C   UNL     1       6.745   4.056  14.241  0.00  0.00    +0.000 C 
ATOM     35  C   UNL     1       7.418   5.375  13.863  0.00  0.00    +0.000 C 
ENDBRANCH  24  34
ENDBRANCH  22  26
ENDBRANCH   1  22
TORSDOF 6
ENDMDL
MODEL 4
REMARK VINA RESULT:      -8.6      2.696     11.137
REMARK  Name = 
REMARK  8 active torsions:
REMARK  status: ('A' for Active; 'I' for Inactive)
REMARK    1  A    between atoms: C_1  and  C_2
REMARK    2  A    between atoms: C_2  and  C_3
REMARK    3  A    between atoms: C_2  and  N_4
REMARK    4  A    between atoms: C_6  and  C_7
REMARK    5  A    between atoms: C_7  and  C_9
REMARK    6  A    between atoms: C_13  and  N_14
REMARK    7  A    between atoms: C_15  and  C_17
REMARK    8  A    between atoms: C_17  and  C_18
REMARK                            x       y       z     vdW  Elec       q    Type
REMARK                         _______ _______ _______ _____ _____    ______ ____
ROOT
ATOM      1  C   UNL     1       1.811   8.350  19.166  0.00  0.00    +0.000 A 
ATOM      2  C   UNL     1       1.851   7.592  20.327  0.00  0.00    +0.000 A 
ATOM      3  N   UNL     1       1.153   7.887  21.444  0.00  0.00    +0.000 NA
ATOM      4  C   UNL     1       0.381   9.002  21.402  0.00  0.00    +0.000 A 
ATOM      5  C   UNL     1       0.281   9.855  20.304  0.00  0.00    +0.000 A 
ATOM      6  C   UNL     1       1.040   9.526  19.169  0.00  0.00    +0.000 A 
ENDROOT
BRANCH   5   7
ATOM      7  N   UNL     1      -0.535  11.020  20.284  0.00  0.00    +0.000 N 
ATOM      8  C   UNL     1      -0.145  12.263  20.761  0.00  0.00    +0.000 C 
ATOM      9  O   UNL     1       0.920  12.502  21.326  0.00  0.00    +0.000 OA
ATOM     10  H   UNL     1      -1.501  10.904  19.999  0.00  0.00    +0.000 HD
BRANCH   8  11
ATOM     11  C   UNL     1      -1.176  13.371  20.595  0.00  0.00    +0.000 C 
BRANCH  11  12
ATOM     12  C   UNL     1      -2.377  13.200  21.486  0.00  0.00    +0.000 A 
ATOM     13  C   UNL     1      -2.332  13.576  22.822  0.00  0.00    +0.000 A 
ATOM     14  N   UNL     1      -3.384  13.499  23.662  0.00  0.00    +0.000 NA
ATOM     15  C   UNL     1      -4.551  13.063  23.158  0.00  0.00    +0.000 A 
ATOM     16  C   UNL     1      -5.663  13.023  23.980  0.00  0.00    +0.000 A 
ATOM     17  C   UNL     1      -6.901  12.626  23.486  0.00  0.00    +0.000 A 
ATOM     18  C   UNL     1      -6.974  12.246  22.160  0.00  0.00    +0.000 A 
ATOM     19  N   UNL     1      -5.914  12.248  21.320  0.00  0.00    +0.000 NA
ATOM     20  C   UNL     1      -4.728  12.664  21.817  0.00  0.00    +0.000 A 
ATOM     21  C   UNL     1      -3.606  12.739  20.997  0.00  0.00    +0.000 A 
ENDBRANCH  11  12
ENDBRANCH   8  11
ENDBRANCH   5   7
BRANCH   1  22
ATOM     22  C   UNL     1       2.601   7.941  17.974  0.00  0.00    +0.000 C 
ATOM     23  O   UNL     1       2.606   8.676  16.994  0.00  0.00    +0.000 OA
BRANCH  22  26
ATOM     24  N   UNL     1       5.077   5.227  18.105  0.00  0.00    +0.000 N 
ATOM     25  C   UNL     1       4.741   6.560  18.154  0.00  0.00    +0.000 A 
ATOM     26  C   UNL     1       3.365   6.687  18.012  0.00  0.00    +0.000 A 
ATOM     27  C   UNL     1       2.851   5.352  17.944  0.00  0.00    +0.000 A 
ATOM     28  C   UNL     1       1.594   4.762  17.812  0.00  0.00    +0.000 A 
ATOM     29  N   UNL     1       1.484   3.414  17.764  0.00  0.00    +0.000 NA
ATOM     30  C   UNL     1       2.615   2.686  17.847  0.00  0.00    +0.000 A 
ATOM     31  N   UNL     1       3.876   3.134  17.961  0.00  0.00    +0.000 NA
ATOM     32  C   UNL     1       3.930   4.477  18.005  0.00  0.00    +0.000 A 
BRANCH  24  34
ATOM     33  C   UNL     1       7.064   4.680  16.737  0.00  0.00    +0.000 C 
ATOM     34  C   UNL     1       6.438   4.692  18.134  0.00  0.00    +0.000 C 
ATOM     35  C   UNL     1       7.321   5.447  19.126  0.00  0.00    +0.000 C 
ENDBRANCH  24  34
ENDBRANCH  22  26
ENDBRANCH   1  22
TORSDOF 6
ENDMDL
MODEL 5
REMARK VINA RESULT:      -8.6      2.891     11.236
REMARK  Name = 
REMARK  8 active torsions:
REMARK  status: ('A' for Active; 'I' for Inactive)
REMARK    1  A    between atoms: C_1  and  C_2
REMARK    2  A    between atoms: C_2  and  C_3
REMARK    3  A    between atoms: C_2  and  N_4
REMARK    4  A    between atoms: C_6  and  C_7
REMARK    5  A    between atoms: C_7  and  C_9
REMARK    6  A    between atoms: C_13  and  N_14
REMARK    7  A    between atoms: C_15  and  C_17
REMARK    8  A    between atoms: C_17  and  C_18
REMARK                            x       y       z     vdW  Elec       q    Type
REMARK                         _______ _______ _______ _____ _____    ______ ____
ROOT
ATOM      1  C   UNL     1       1.366   8.855  18.952  0.00  0.00    +0.000 A 
ATOM      2  C   UNL     1       1.510   8.671  20.320  0.00  0.00    +0.000 A 
ATOM      3  N   UNL     1       0.686   9.211  21.243  0.00  0.00    +0.000 NA
ATOM      4  C   UNL     1      -0.327   9.983  20.777  0.00  0.00    +0.000 A 
ATOM      5  C   UNL     1      -0.555  10.262  19.431  0.00  0.00    +0.000 A 
ATOM      6  C   UNL     1       0.336   9.700  18.502  0.00  0.00    +0.000 A 
ENDROOT
BRANCH   5   7
ATOM      7  N   UNL     1      -1.625  11.076  18.966  0.00  0.00    +0.000 N 
ATOM      8  C   UNL     1      -2.594  10.664  18.062  0.00  0.00    +0.000 C 
ATOM      9  O   UNL     1      -2.613   9.575  17.492  0.00  0.00    +0.000 OA
ATOM     10  H   UNL     1      -1.613  12.054  19.234  0.00  0.00    +0.000 HD
BRANCH   8  11
ATOM     11  C   UNL     1      -3.664  11.699  17.745  0.00  0.00    +0.000 C 
BRANCH  11  12
ATOM     12  C   UNL     1      -4.815  11.676  18.715  0.00  0.00    +0.000 A 
ATOM     13  C   UNL     1      -5.883  10.806  18.534  0.00  0.00    +0.000 A 
ATOM     14  N   UNL     1      -6.919  10.698  19.390  0.00  0.00    +0.000 NA
ATOM     15  C   UNL     1      -6.892  11.457  20.499  0.00  0.00    +0.000 A 
ATOM     16  C   UNL     1      -7.914  11.331  21.423  0.00  0.00    +0.000 A 
ATOM     17  C   UNL     1      -7.898  12.060  22.607  0.00  0.00    +0.000 A 
ATOM     18  C   UNL     1      -6.849  12.934  22.812  0.00  0.00    +0.000 A 
ATOM     19  N   UNL     1      -5.836  13.110  21.933  0.00  0.00    +0.000 NA
ATOM     20  C   UNL     1      -5.859  12.369  20.802  0.00  0.00    +0.000 A 
ATOM     21  C   UNL     1      -4.825  12.462  19.875  0.00  0.00    +0.000 A 
ENDBRANCH  11  12
ENDBRANCH   8  11
ENDBRANCH   5   7
BRANCH   1  22
ATOM     22  C   UNL     1       2.312   8.208  18.004  0.00  0.00    +0.000 C 
ATOM     23  O   UNL     1       2.730   8.862  17.056  0.00  0.00    +0.000 OA
BRANCH  22  26
ATOM     24  N   UNL     1       2.718   4.660  18.878  0.00  0.00    +0.000 N 
ATOM     25  C   UNL     1       1.958   5.804  18.787  0.00  0.00    +0.000 A 
ATOM     26  C   UNL     1       2.730   6.819  18.239  0.00  0.00    +0.000 A 
ATOM     27  C   UNL     1       3.996   6.227  17.926  0.00  0.00    +0.000 A 
ATOM     28  C   UNL     1       5.199   6.658  17.365  0.00  0.00    +0.000 A 
ATOM     29  N   UNL     1       6.230   5.790  17.234  0.00  0.00    +0.000 NA
ATOM     30  C   UNL     1       6.046   4.524  17.658  0.00  0.00    +0.000 A 
ATOM     31  N   UNL     1       4.947   3.996  18.223  0.00  0.00    +0.000 NA
ATOM     32  C   UNL     1       3.955   4.897  18.331  0.00  0.00    +0.000 A 
BRANCH  24  34
ATOM     33  C   UNL     1       1.560   3.632  20.807  0.00  0.00    +0.000 C 
ATOM     34  C   UNL     1       2.286   3.399  19.480  0.00  0.00    +0.000 C 
ATOM     35  C   UNL     1       1.426   2.580  18.519  0.00  0.00    +0.000 C 
ENDBRANCH  24  34
ENDBRANCH  22  26
ENDBRANCH   1  22
TORSDOF 6
ENDMDL
MODEL 6
REMARK VINA RESULT:      -8.6      1.677      9.500
REMARK  Name = 
REMARK  8 active torsions:
REMARK  status: ('A' for Active; 'I' for Inactive)
REMARK    1  A    between atoms: C_1  and  C_2
REMARK    2  A    between atoms: C_2  and  C_3
REMARK    3  A    between atoms: C_2  and  N_4
REMARK    4  A    between atoms: C_6  and  C_7
REMARK    5  A    between atoms: C_7  and  C_9
REMARK    6  A    between atoms: C_13  and  N_14
REMARK    7  A    between atoms: C_15  and  C_17
REMARK    8  A    between atoms: C_17  and  C_18
REMARK                            x       y       z     vdW  Elec       q    Type
REMARK                         _______ _______ _______ _____ _____    ______ ____
ROOT
ATOM      1  C   UNL     1       3.017   4.237  19.013  0.00  0.00    +0.000 A 
ATOM      2  C   UNL     1       2.298   3.482  19.930  0.00  0.00    +0.000 A 
ATOM      3  N   UNL     1       1.430   4.005  20.821  0.00  0.00    +0.000 NA
ATOM      4  C   UNL     1       1.278   5.353  20.802  0.00  0.00    +0.000 A 
ATOM      5  C   UNL     1       1.962   6.216  19.948  0.00  0.00    +0.000 A 
ATOM      6  C   UNL     1       2.874   5.636  19.051  0.00  0.00    +0.000 A 
ENDROOT
BRANCH   5   7
ATOM      7  N   UNL     1       1.786   7.627  19.948  0.00  0.00    +0.000 N 
ATOM      8  C   UNL     1       1.785   8.421  18.810  0.00  0.00    +0.000 C 
ATOM      9  O   UNL     1       2.009   8.023  17.669  0.00  0.00    +0.000 OA
ATOM     10  H   UNL     1       1.767   8.092  20.849  0.00  0.00    +0.000 HD
BRANCH   8  11
ATOM     11  C   UNL     1       1.537   9.902  19.056  0.00  0.00    +0.000 C 
BRANCH  11  12
ATOM     12  C   UNL     1       0.100  10.304  18.850  0.00  0.00    +0.000 A 
ATOM     13  C   UNL     1      -0.565  11.079  19.792  0.00  0.00    +0.000 A 
ATOM     14  N   UNL     1      -1.833  11.516  19.648  0.00  0.00    +0.000 NA
ATOM     15  C   UNL     1      -2.471  11.206  18.506  0.00  0.00    +0.000 A 
ATOM     16  C   UNL     1      -3.753  11.684  18.303  0.00  0.00    +0.000 A 
ATOM     17  C   UNL     1      -4.429  11.430  17.115  0.00  0.00    +0.000 A 
ATOM     18  C   UNL     1      -3.792  10.660  16.162  0.00  0.00    +0.000 A 
ATOM     19  N   UNL     1      -2.548  10.153  16.318  0.00  0.00    +0.000 NA
ATOM     20  C   UNL     1      -1.900  10.437  17.470  0.00  0.00    +0.000 A 
ATOM     21  C   UNL     1      -0.599   9.989  17.678  0.00  0.00    +0.000 A 
ENDBRANCH  11  12
ENDBRANCH   8  11
ENDBRANCH   5   7
BRANCH   1  22
ATOM     22  C   UNL     1       3.941   3.575  18.056  0.00  0.00    +0.000 C 
ATOM     23  O   UNL     1       3.688   2.433  17.692  0.00  0.00    +0.000 OA
BRANCH  22  26
ATOM     24  N   UNL     1       6.918   5.654  17.479  0.00  0.00    +0.000 N 
ATOM     25  C   UNL     1       5.965   5.112  18.309  0.00  0.00    +0.000 A 
ATOM     26  C   UNL     1       5.114   4.310  17.560  0.00  0.00    +0.000 A 
ATOM     27  C   UNL     1       5.632   4.324  16.225  0.00  0.00    +0.000 A 
ATOM     28  C   UNL     1       5.285   3.747  15.004  0.00  0.00    +0.000 A 
ATOM     29  N   UNL     1       6.025   4.008  13.901  0.00  0.00    +0.000 NA
ATOM     30  C   UNL     1       7.086   4.829  14.033  0.00  0.00    +0.000 A 
ATOM     31  N   UNL     1       7.511   5.451  15.145  0.00  0.00    +0.000 NA
ATOM     32  C   UNL     1       6.743   5.160  16.210  0.00  0.00    +0.000 A 
BRANCH  24  34
ATOM     33  C   UNL     1       7.522   8.052  17.540  0.00  0.00    +0.000 C 
ATOM     34  C   UNL     1       7.942   6.620  17.878  0.00  0.00    +0.000 C 
ATOM     35  C   UNL     1       8.299   6.485  19.358  0.00  0.00    +0.000 C 
ENDBRANCH  24  34
ENDBRANCH  22  26
ENDBRANCH   1  22
TORSDOF 6
ENDMDL
MODEL 7
REMARK VINA RESULT:      -8.5      1.875     10.033
REMARK  Name = 
REMARK  8 active torsions:
REMARK  status: ('A' for Active; 'I' for Inactive)
REMARK    1  A    between atoms: C_1  and  C_2
REMARK    2  A    between atoms: C_2  and  C_3
REMARK    3  A    between atoms: C_2  and  N_4
REMARK    4  A    between atoms: C_6  and  C_7
REMARK    5  A    between atoms: C_7  and  C_9
REMARK    6  A    between atoms: C_13  and  N_14
REMARK    7  A    between atoms: C_15  and  C_17
REMARK    8  A    between atoms: C_17  and  C_18
REMARK                            x       y       z     vdW  Elec       q    Type
REMARK                         _______ _______ _______ _____ _____    ______ ____
ROOT
ATOM      1  C   UNL     1       2.541   4.896  18.588  0.00  0.00    +0.000 A 
ATOM      2  C   UNL     1       2.500   4.363  19.869  0.00  0.00    +0.000 A 
ATOM      3  N   UNL     1       2.161   5.070  20.968  0.00  0.00    +0.000 NA
ATOM      4  C   UNL     1       1.856   6.379  20.779  0.00  0.00    +0.000 A 
ATOM      5  C   UNL     1       1.887   7.030  19.547  0.00  0.00    +0.000 A 
ATOM      6  C   UNL     1       2.267   6.266  18.431  0.00  0.00    +0.000 A 
ENDROOT
BRANCH   5   7
ATOM      7  N   UNL     1       1.564   8.404  19.375  0.00  0.00    +0.000 N 
ATOM      8  C   UNL     1       1.072   9.229  20.375  0.00  0.00    +0.000 C 
ATOM      9  O   UNL     1       0.782   8.866  21.514  0.00  0.00    +0.000 OA
ATOM     10  H   UNL     1       1.597   8.773  18.430  0.00  0.00    +0.000 HD
BRANCH   8  11
ATOM     11  C   UNL     1       0.838  10.676  19.963  0.00  0.00    +0.000 C 
BRANCH  11  12
ATOM     12  C   UNL     1      -0.524  10.909  19.365  0.00  0.00    +0.000 A 
ATOM     13  C   UNL     1      -1.481  11.653  20.042  0.00  0.00    +0.000 A 
ATOM     14  N   UNL     1      -2.701  11.942  19.543  0.00  0.00    +0.000 NA
ATOM     15  C   UNL     1      -2.984  11.509  18.302  0.00  0.00    +0.000 A 
ATOM     16  C   UNL     1      -4.205  11.836  17.741  0.00  0.00    +0.000 A 
ATOM     17  C   UNL     1      -4.518  11.451  16.442  0.00  0.00    +0.000 A 
ATOM     18  C   UNL     1      -3.584  10.708  15.746  0.00  0.00    +0.000 A 
ATOM     19  N   UNL     1      -2.384  10.346  16.255  0.00  0.00    +0.000 NA
ATOM     20  C   UNL     1      -2.092  10.756  17.510  0.00  0.00    +0.000 A 
ATOM     21  C   UNL     1      -0.857  10.462  18.079  0.00  0.00    +0.000 A 
ENDBRANCH  11  12
ENDBRANCH   8  11
ENDBRANCH   5   7
BRANCH   1  22
ATOM     22  C   UNL     1       2.910   4.038  17.431  0.00  0.00    +0.000 C 
ATOM     23  O   UNL     1       2.067   3.275  16.975  0.00  0.00    +0.000 OA
BRANCH  22  26
ATOM     24  N   UNL     1       5.962   4.149  15.385  0.00  0.00    +0.000 N 
ATOM     25  C   UNL     1       4.598   4.027  15.515  0.00  0.00    +0.000 A 
ATOM     26  C   UNL     1       4.258   4.144  16.857  0.00  0.00    +0.000 A 
ATOM     27  C   UNL     1       5.481   4.419  17.550  0.00  0.00    +0.000 A 
ATOM     28  C   UNL     1       5.858   4.649  18.874  0.00  0.00    +0.000 A 
ATOM     29  N   UNL     1       7.161   4.864  19.175  0.00  0.00    +0.000 NA
ATOM     30  C   UNL     1       8.053   4.846  18.165  0.00  0.00    +0.000 A 
ATOM     31  N   UNL     1       7.816   4.624  16.861  0.00  0.00    +0.000 NA
ATOM     32  C   UNL     1       6.511   4.416  16.616  0.00  0.00    +0.000 A 
BRANCH  24  34
ATOM     33  C   UNL     1       5.805   3.563  12.987  0.00  0.00    +0.000 C 
ATOM     34  C   UNL     1       6.713   3.998  14.139  0.00  0.00    +0.000 C 
ATOM     35  C   UNL     1       7.480   5.272  13.784  0.00  0.00    +0.000 C 
ENDBRANCH  24  34
ENDBRANCH  22  26
ENDBRANCH   1  22
TORSDOF 6
ENDMDL
MODEL 8
REMARK VINA RESULT:      -8.5      2.063      9.549
REMARK  Name = 
REMARK  8 active torsions:
REMARK  status: ('A' for Active; 'I' for Inactive)
REMARK    1  A    between atoms: C_1  and  C_2
REMARK    2  A    between atoms: C_2  and  C_3
REMARK    3  A    between atoms: C_2  and  N_4
REMARK    4  A    between atoms: C_6  and  C_7
REMARK    5  A    between atoms: C_7  and  C_9
REMARK    6  A    between atoms: C_13  and  N_14
REMARK    7  A    between atoms: C_15  and  C_17
REMARK    8  A    between atoms: C_17  and  C_18
REMARK                            x       y       z     vdW  Elec       q    Type
REMARK                         _______ _______ _______ _____ _____    ______ ____
ROOT
ATOM      1  C   UNL     1       2.944   3.934  18.773  0.00  0.00    +0.000 A 
ATOM      2  C   UNL     1       3.244   2.939  19.693  0.00  0.00    +0.000 A 
ATOM      3  N   UNL     1       2.796   2.930  20.966  0.00  0.00    +0.000 NA
ATOM      4  C   UNL     1       2.015   3.974  21.343  0.00  0.00    +0.000 A 
ATOM      5  C   UNL     1       1.669   5.043  20.518  0.00  0.00    +0.000 A 
ATOM      6  C   UNL     1       2.174   5.028  19.208  0.00  0.00    +0.000 A 
ENDROOT
BRANCH   5   7
ATOM      7  N   UNL     1       0.850   6.128  20.937  0.00  0.00    +0.000 N 
ATOM      8  C   UNL     1       1.210   7.465  20.855  0.00  0.00    +0.000 C 
ATOM      9  O   UNL     1       2.305   7.882  20.482  0.00  0.00    +0.000 OA
ATOM     10  H   UNL     1      -0.009   5.898  21.425  0.00  0.00    +0.000 HD
BRANCH   8  11
ATOM     11  C   UNL     1       0.150   8.450  21.327  0.00  0.00    +0.000 C 
BRANCH  11  12
ATOM     12  C   UNL     1       0.228   9.782  20.631  0.00  0.00    +0.000 A 
ATOM     13  C   UNL     1      -0.428   9.996  19.425  0.00  0.00    +0.000 A 
ATOM     14  N   UNL     1      -0.443  11.177  18.775  0.00  0.00    +0.000 NA
ATOM     15  C   UNL     1       0.190  12.213  19.352  0.00  0.00    +0.000 A 
ATOM     16  C   UNL     1       0.148  13.451  18.737  0.00  0.00    +0.000 A 
ATOM     17  C   UNL     1       0.746  14.560  19.326  0.00  0.00    +0.000 A 
ATOM     18  C   UNL     1       1.406  14.376  20.525  0.00  0.00    +0.000 A 
ATOM     19  N   UNL     1       1.493  13.183  21.158  0.00  0.00    +0.000 NA
ATOM     20  C   UNL     1       0.881  12.127  20.580  0.00  0.00    +0.000 A 
ATOM     21  C   UNL     1       0.887  10.880  21.199  0.00  0.00    +0.000 A 
ENDBRANCH  11  12
ENDBRANCH   8  11
ENDBRANCH   5   7
BRANCH   1  22
ATOM     22  C   UNL     1       3.469   3.856  17.384  0.00  0.00    +0.000 C 
ATOM     23  O   UNL     1       2.781   3.312  16.528  0.00  0.00    +0.000 OA
BRANCH  22  26
ATOM     24  N   UNL     1       6.733   5.544  17.281  0.00  0.00    +0.000 N 
ATOM     25  C   UNL     1       5.619   5.108  17.959  0.00  0.00    +0.000 A 
ATOM     26  C   UNL     1       4.779   4.445  17.074  0.00  0.00    +0.000 A 
ATOM     27  C   UNL     1       5.466   4.429  15.817  0.00  0.00    +0.000 A 
ATOM     28  C   UNL     1       5.211   3.936  14.537  0.00  0.00    +0.000 A 
ATOM     29  N   UNL     1       6.117   4.128  13.549  0.00  0.00    +0.000 NA
ATOM     30  C   UNL     1       7.246   4.799  13.851  0.00  0.00    +0.000 A 
ATOM     31  N   UNL     1       7.597   5.330  15.034  0.00  0.00    +0.000 NA
ATOM     32  C   UNL     1       6.666   5.112  15.979  0.00  0.00    +0.000 A 
BRANCH  24  34
ATOM     33  C   UNL     1       7.583   7.847  17.587  0.00  0.00    +0.000 C 
ATOM     34  C   UNL     1       7.809   6.356  17.848  0.00  0.00    +0.000 C 
ATOM     35  C   UNL     1       7.998   6.081  19.340  0.00  0.00    +0.000 C 
ENDBRANCH  24  34
ENDBRANCH  22  26
ENDBRANCH   1  22
TORSDOF 6
ENDMDL
MODEL 9
REMARK VINA RESULT:      -8.4      2.471     10.806
REMARK  Name = 
REMARK  8 active torsions:
REMARK  status: ('A' for Active; 'I' for Inactive)
REMARK    1  A    between atoms: C_1  and  C_2
REMARK    2  A    between atoms: C_2  and  C_3
REMARK    3  A    between atoms: C_2  and  N_4
REMARK    4  A    between atoms: C_6  and  C_7
REMARK    5  A    between atoms: C_7  and  C_9
REMARK    6  A    between atoms: C_13  and  N_14
REMARK    7  A    between atoms: C_15  and  C_17
REMARK    8  A    between atoms: C_17  and  C_18
REMARK                            x       y       z     vdW  Elec       q    Type
REMARK                         _______ _______ _______ _____ _____    ______ ____
ROOT
ATOM      1  C   UNL     1       1.826   8.367  19.050  0.00  0.00    +0.000 A 
ATOM      2  C   UNL     1       1.820   7.608  20.212  0.00  0.00    +0.000 A 
ATOM      3  N   UNL     1       1.085   7.907  21.303  0.00  0.00    +0.000 NA
ATOM      4  C   UNL     1       0.321   9.026  21.234  0.00  0.00    +0.000 A 
ATOM      5  C   UNL     1       0.265   9.880  20.135  0.00  0.00    +0.000 A 
ATOM      6  C   UNL     1       1.063   9.548  19.027  0.00  0.00    +0.000 A 
ENDROOT
BRANCH   5   7
ATOM      7  N   UNL     1      -0.542  11.050  20.086  0.00  0.00    +0.000 N 
ATOM      8  C   UNL     1      -0.511  12.068  21.028  0.00  0.00    +0.000 C 
ATOM      9  O   UNL     1       0.159  12.059  22.059  0.00  0.00    +0.000 OA
ATOM     10  H   UNL     1      -1.261  11.088  19.372  0.00  0.00    +0.000 HD
BRANCH   8  11
ATOM     11  C   UNL     1      -1.438  13.241  20.743  0.00  0.00    +0.000 C 
BRANCH  11  12
ATOM     12  C   UNL     1      -2.846  12.817  20.416  0.00  0.00    +0.000 A 
ATOM     13  C   UNL     1      -3.161  12.297  19.167  0.00  0.00    +0.000 A 
ATOM     14  N   UNL     1      -4.387  11.852  18.825  0.00  0.00    +0.000 NA
ATOM     15  C   UNL     1      -5.346  11.886  19.766  0.00  0.00    +0.000 A 
ATOM     16  C   UNL     1      -6.601  11.387  19.464  0.00  0.00    +0.000 A 
ATOM     17  C   UNL     1      -7.606  11.357  20.424  0.00  0.00    +0.000 A 
ATOM     18  C   UNL     1      -7.320  11.870  21.674  0.00  0.00    +0.000 A 
ATOM     19  N   UNL     1      -6.118  12.387  22.015  0.00  0.00    +0.000 NA
ATOM     20  C   UNL     1      -5.148  12.379  21.073  0.00  0.00    +0.000 A 
ATOM     21  C   UNL     1      -3.872  12.850  21.369  0.00  0.00    +0.000 A 
ENDBRANCH  11  12
ENDBRANCH   8  11
ENDBRANCH   5   7
BRANCH   1  22
ATOM     22  C   UNL     1       2.656   7.954  17.888  0.00  0.00    +0.000 C 
ATOM     23  O   UNL     1       2.686   8.681  16.902  0.00  0.00    +0.000 OA
BRANCH  22  26
ATOM     24  N   UNL     1       5.148   5.261  18.108  0.00  0.00    +0.000 N 
ATOM     25  C   UNL     1       4.803   6.592  18.127  0.00  0.00    +0.000 A 
ATOM     26  C   UNL     1       3.429   6.706  17.961  0.00  0.00    +0.000 A 
ATOM     27  C   UNL     1       2.925   5.367  17.908  0.00  0.00    +0.000 A 
ATOM     28  C   UNL     1       1.674   4.766  17.766  0.00  0.00    +0.000 A 
ATOM     29  N   UNL     1       1.574   3.415  17.740  0.00  0.00    +0.000 NA
ATOM     30  C   UNL     1       2.709   2.697  17.854  0.00  0.00    +0.000 A 
ATOM     31  N   UNL     1       3.965   3.157  17.981  0.00  0.00    +0.000 NA
ATOM     32  C   UNL     1       4.009   4.501  18.002  0.00  0.00    +0.000 A 
BRANCH  24  34
ATOM     33  C   UNL     1       7.102   4.547  16.768  0.00  0.00    +0.000 C 
ATOM     34  C   UNL     1       6.513   4.736  18.168  0.00  0.00    +0.000 C 
ATOM     35  C   UNL     1       7.417   5.614  19.032  0.00  0.00    +0.000 C 
ENDBRANCH  24  34
ENDBRANCH  22  26
ENDBRANCH   1  22
TORSDOF 6
ENDMDL
