MODEL 1
REMARK VINA RESULT:      -7.7      0.000      0.000
REMARK  Name = 
REMARK  7 active torsions:
REMARK  status: ('A' for Active; 'I' for Inactive)
REMARK    1  A    between atoms: C_1  and  C_2
REMARK    2  A    between atoms: C_5  and  C_6
REMARK    3  A    between atoms: C_6  and  N_7
REMARK    4  A    between atoms: C_8  and  C_10
REMARK    5  A    between atoms: C_15  and  S_16
REMARK    6  A    between atoms: S_16  and  N_17
REMARK    7  A    between atoms: N_21  and  C_22
REMARK                            x       y       z     vdW  Elec       q    Type
REMARK                         _______ _______ _______ _____ _____    ______ ____
ROOT
ATOM      1  C   UNL     1       3.466   5.291  19.087  0.00  0.00    +0.000 A 
ATOM      2  C   UNL     1       2.963   4.627  17.961  0.00  0.00    +0.000 A 
ATOM      3  C   UNL     1       3.842   4.210  16.949  0.00  0.00    +0.000 A 
ATOM      4  C   UNL     1       5.215   4.446  17.054  0.00  0.00    +0.000 A 
ATOM      5 CL   UNL     1       6.203   3.886  15.751  0.00  0.00    +0.000 Cl
ATOM      6  C   UNL     1       5.714   5.089  18.187  0.00  0.00    +0.000 A 
ATOM      7  C   UNL     1       4.843   5.503  19.204  0.00  0.00    +0.000 A 
ENDROOT
BRANCH   1   9
ATOM      8  N   UNL     1       2.264   7.078  20.205  0.00  0.00    +0.000 N 
ATOM      9  C   UNL     1       2.543   5.725  20.169  0.00  0.00    +0.000 C 
ATOM     10  O   UNL     1       2.084   4.905  20.953  0.00  0.00    +0.000 OA
ATOM     11  H   UNL     1       2.380   7.619  19.361  0.00  0.00    +0.000 HD
BRANCH   8  12
ATOM     12  C   UNL     1       1.341   7.613  21.173  0.00  0.00    +0.000 C 
BRANCH  12  17
ATOM     13  C   UNL     1      -1.051  12.081  21.184  0.00  0.00    +0.000 C 
ATOM     14  C   UNL     1      -0.243  10.931  20.688  0.00  0.00    +0.000 A 
ATOM     15  C   UNL     1       0.299  10.734  19.437  0.00  0.00    +0.000 A 
ATOM     16  C   UNL     1       0.987   9.505  19.458  0.00  0.00    +0.000 A 
ATOM     17  C   UNL     1       0.846   8.947  20.718  0.00  0.00    +0.000 A 
ATOM     18  N   UNL     1       0.085   9.832  21.465  0.00  0.00    +0.000 N 
ATOM     19  C   UNL     1      -0.348   9.674  22.839  0.00  0.00    +0.000 C 
ENDBRANCH  12  17
ENDBRANCH   8  12
ENDBRANCH   1   9
BRANCH   6  20
ATOM     20  S   UNL     1       7.430   5.436  18.402  0.00  0.00    +0.000 S 
ATOM     21  O   UNL     1       8.202   4.300  17.955  0.00  0.00    +0.000 OA
ATOM     22  O   UNL     1       7.695   6.770  17.919  0.00  0.00    +0.000 OA
BRANCH  20  23
ATOM     23  N   UNL     1       7.601   5.544  20.064  0.00  0.00    +0.000 NA
ATOM     24  H   UNL     1       8.466   5.082  20.353  0.00  0.00    +0.000 HD
ATOM     25  H   UNL     1       7.532   6.517  20.362  0.00  0.00    +0.000 HD
ENDBRANCH  20  23
ENDBRANCH   6  20
TORSDOF 5
ENDMDL
MODEL 2
REMARK VINA RESULT:      -7.7      0.868      1.085
REMARK  Name = 
REMARK  7 active torsions:
REMARK  status: ('A' for Active; 'I' for Inactive)
REMARK    1  A    between atoms: C_1  and  C_2
REMARK    2  A    between atoms: C_5  and  C_6
REMARK    3  A    between atoms: C_6  and  N_7
REMARK    4  A    between atoms: C_8  and  C_10
REMARK    5  A    between atoms: C_15  and  S_16
REMARK    6  A    between atoms: S_16  and  N_17
REMARK    7  A    between atoms: N_21  and  C_22
REMARK                            x       y       z     vdW  Elec       q    Type
REMARK                         _______ _______ _______ _____ _____    ______ ____
ROOT
ATOM      1  C   UNL     1       3.504   5.156  18.947  0.00  0.00    +0.000 A 
ATOM      2  C   UNL     1       2.919   4.391  17.930  0.00  0.00    +0.000 A 
ATOM      3  C   UNL     1       3.709   3.924  16.868  0.00  0.00    +0.000 A 
ATOM      4  C   UNL     1       5.076   4.210  16.816  0.00  0.00    +0.000 A 
ATOM      5 CL   UNL     1       5.953   3.582  15.466  0.00  0.00    +0.000 Cl
ATOM      6  C   UNL     1       5.659   4.955  17.842  0.00  0.00    +0.000 A 
ATOM      7  C   UNL     1       4.876   5.420  18.908  0.00  0.00    +0.000 A 
ENDROOT
BRANCH   1   9
ATOM      8  N   UNL     1       2.348   6.986  20.044  0.00  0.00    +0.000 N 
ATOM      9  C   UNL     1       2.675   5.644  20.082  0.00  0.00    +0.000 C 
ATOM     10  O   UNL     1       2.329   4.874  20.967  0.00  0.00    +0.000 OA
ATOM     11  H   UNL     1       2.357   7.462  19.154  0.00  0.00    +0.000 HD
BRANCH   8  12
ATOM     12  C   UNL     1       1.503   7.565  21.058  0.00  0.00    +0.000 C 
BRANCH  12  17
ATOM     13  C   UNL     1      -1.020  11.960  21.004  0.00  0.00    +0.000 C 
ATOM     14  C   UNL     1      -0.184  10.824  20.522  0.00  0.00    +0.000 A 
ATOM     15  C   UNL     1       0.350  10.617  19.269  0.00  0.00    +0.000 A 
ATOM     16  C   UNL     1       1.074   9.409  19.308  0.00  0.00    +0.000 A 
ATOM     17  C   UNL     1       0.964   8.874  20.581  0.00  0.00    +0.000 A 
ATOM     18  N   UNL     1       0.185   9.752  21.318  0.00  0.00    +0.000 N 
ATOM     19  C   UNL     1      -0.227   9.610  22.700  0.00  0.00    +0.000 C 
ENDBRANCH  12  17
ENDBRANCH   8  12
ENDBRANCH   1   9
BRANCH   6  20
ATOM     20  S   UNL     1       7.373   5.372  17.857  0.00  0.00    +0.000 S 
ATOM     21  O   UNL     1       7.685   6.048  19.095  0.00  0.00    +0.000 OA
ATOM     22  O   UNL     1       8.129   4.229  17.405  0.00  0.00    +0.000 OA
BRANCH  20  23
ATOM     23  N   UNL     1       7.513   6.490  16.618  0.00  0.00    +0.000 NA
ATOM     24  H   UNL     1       7.031   6.146  15.786  0.00  0.00    +0.000 HD
ATOM     25  H   UNL     1       7.192   7.405  16.933  0.00  0.00    +0.000 HD
ENDBRANCH  20  23
ENDBRANCH   6  20
TORSDOF 5
ENDMDL
MODEL 3
REMARK VINA RESULT:      -7.4      5.051      8.501
REMARK  Name = 
REMARK  7 active torsions:
REMARK  status: ('A' for Active; 'I' for Inactive)
REMARK    1  A    between atoms: C_1  and  C_2
REMARK    2  A    between atoms: C_5  and  C_6
REMARK    3  A    between atoms: C_6  and  N_7
REMARK    4  A    between atoms: C_8  and  C_10
REMARK    5  A    between atoms: C_15  and  S_16
REMARK    6  A    between atoms: S_16  and  N_17
REMARK    7  A    between atoms: N_21  and  C_22
REMARK                            x       y       z     vdW  Elec       q    Type
REMARK                         _______ _______ _______ _____ _____    ______ ____
ROOT
ATOM      1  C   UNL     1       1.067   9.416  19.369  0.00  0.00    +0.000 A 
ATOM      2  C   UNL     1       1.054   9.021  20.712  0.00  0.00    +0.000 A 
ATOM      3  C   UNL     1       0.236   9.700  21.629  0.00  0.00    +0.000 A 
ATOM      4  C   UNL     1      -0.571  10.763  21.215  0.00  0.00    +0.000 A 
ATOM      5 CL   UNL     1      -1.541  11.523  22.426  0.00  0.00    +0.000 Cl
ATOM      6  C   UNL     1      -0.571  11.138  19.871  0.00  0.00    +0.000 A 
ATOM      7  C   UNL     1       0.240  10.462  18.949  0.00  0.00    +0.000 A 
ENDROOT
BRANCH   1   9
ATOM      8  N   UNL     1       2.491   7.520  18.847  0.00  0.00    +0.000 N 
ATOM      9  C   UNL     1       1.923   8.694  18.389  0.00  0.00    +0.000 C 
ATOM     10  O   UNL     1       2.084   9.145  17.263  0.00  0.00    +0.000 OA
ATOM     11  H   UNL     1       2.055   7.041  19.621  0.00  0.00    +0.000 HD
BRANCH   8  12
ATOM     12  C   UNL     1       3.295   6.703  17.974  0.00  0.00    +0.000 C 
BRANCH  12  17
ATOM     13  C   UNL     1       3.531   1.675  18.560  0.00  0.00    +0.000 C 
ATOM     14  C   UNL     1       2.955   3.025  18.304  0.00  0.00    +0.000 A 
ATOM     15  C   UNL     1       1.659   3.362  17.976  0.00  0.00    +0.000 A 
ATOM     16  C   UNL     1       1.602   4.764  17.848  0.00  0.00    +0.000 A 
ATOM     17  C   UNL     1       2.867   5.276  18.080  0.00  0.00    +0.000 A 
ATOM     18  N   UNL     1       3.691   4.197  18.356  0.00  0.00    +0.000 N 
ATOM     19  C   UNL     1       5.112   4.228  18.642  0.00  0.00    +0.000 C 
ENDBRANCH  12  17
ENDBRANCH   8  12
ENDBRANCH   1   9
BRANCH   6  20
ATOM     20  S   UNL     1      -1.549  12.472  19.259  0.00  0.00    +0.000 S 
ATOM     21  O   UNL     1      -2.947  12.125  19.374  0.00  0.00    +0.000 OA
ATOM     22  O   UNL     1      -1.029  13.708  19.790  0.00  0.00    +0.000 OA
BRANCH  20  23
ATOM     23  N   UNL     1      -1.171  12.518  17.628  0.00  0.00    +0.000 NA
ATOM     24  H   UNL     1      -1.996  12.788  17.089  0.00  0.00    +0.000 HD
ATOM     25  H   UNL     1      -0.361  13.118  17.472  0.00  0.00    +0.000 HD
ENDBRANCH  20  23
ENDBRANCH   6  20
TORSDOF 5
ENDMDL
MODEL 4
REMARK VINA RESULT:      -7.3      2.083      2.638
REMARK  Name = 
REMARK  7 active torsions:
REMARK  status: ('A' for Active; 'I' for Inactive)
REMARK    1  A    between atoms: C_1  and  C_2
REMARK    2  A    between atoms: C_5  and  C_6
REMARK    3  A    between atoms: C_6  and  N_7
REMARK    4  A    between atoms: C_8  and  C_10
REMARK    5  A    between atoms: C_15  and  S_16
REMARK    6  A    between atoms: S_16  and  N_17
REMARK    7  A    between atoms: N_21  and  C_22
REMARK                            x       y       z     vdW  Elec       q    Type
REMARK                         _______ _______ _______ _____ _____    ______ ____
ROOT
ATOM      1  C   UNL     1       2.662   6.764  18.058  0.00  0.00    +0.000 A 
ATOM      2  C   UNL     1       1.735   5.720  18.170  0.00  0.00    +0.000 A 
ATOM      3  C   UNL     1       2.171   4.390  18.075  0.00  0.00    +0.000 A 
ATOM      4  C   UNL     1       3.522   4.093  17.874  0.00  0.00    +0.000 A 
ATOM      5 CL   UNL     1       3.947   2.421  17.777  0.00  0.00    +0.000 Cl
ATOM      6  C   UNL     1       4.445   5.136  17.784  0.00  0.00    +0.000 A 
ATOM      7  C   UNL     1       4.017   6.467  17.883  0.00  0.00    +0.000 A 
ENDROOT
BRANCH   1   9
ATOM      8  N   UNL     1       1.638   8.524  19.378  0.00  0.00    +0.000 N 
ATOM      9  C   UNL     1       2.210   8.177  18.169  0.00  0.00    +0.000 C 
ATOM     10  O   UNL     1       2.355   8.946  17.228  0.00  0.00    +0.000 OA
ATOM     11  H   UNL     1       1.862   7.975  20.195  0.00  0.00    +0.000 HD
BRANCH   8  12
ATOM     12  C   UNL     1       1.211   9.878  19.628  0.00  0.00    +0.000 C 
BRANCH  12  17
ATOM     13  C   UNL     1      -1.884  11.520  23.289  0.00  0.00    +0.000 C 
ATOM     14  C   UNL     1      -0.870  10.681  22.591  0.00  0.00    +0.000 A 
ATOM     15  C   UNL     1      -0.168   9.597  23.071  0.00  0.00    +0.000 A 
ATOM     16  C   UNL     1       0.663   9.132  22.033  0.00  0.00    +0.000 A 
ATOM     17  C   UNL     1       0.480   9.946  20.929  0.00  0.00    +0.000 A 
ATOM     18  N   UNL     1      -0.463  10.898  21.284  0.00  0.00    +0.000 N 
ATOM     19  C   UNL     1      -0.966  11.983  20.466  0.00  0.00    +0.000 C 
ENDBRANCH  12  17
ENDBRANCH   8  12
ENDBRANCH   1   9
BRANCH   6  20
ATOM     20  S   UNL     1       6.167   4.859  17.524  0.00  0.00    +0.000 S 
ATOM     21  O   UNL     1       6.756   4.360  18.745  0.00  0.00    +0.000 OA
ATOM     22  O   UNL     1       6.339   4.175  16.265  0.00  0.00    +0.000 OA
BRANCH  20  23
ATOM     23  N   UNL     1       6.775   6.396  17.259  0.00  0.00    +0.000 NA
ATOM     24  H   UNL     1       6.040   6.998  16.882  0.00  0.00    +0.000 HD
ATOM     25  H   UNL     1       7.206   6.755  18.110  0.00  0.00    +0.000 HD
ENDBRANCH  20  23
ENDBRANCH   6  20
TORSDOF 5
ENDMDL
MODEL 5
REMARK VINA RESULT:      -7.2      3.215      3.870
REMARK  Name = 
REMARK  7 active torsions:
REMARK  status: ('A' for Active; 'I' for Inactive)
REMARK    1  A    between atoms: C_1  and  C_2
REMARK    2  A    between atoms: C_5  and  C_6
REMARK    3  A    between atoms: C_6  and  N_7
REMARK    4  A    between atoms: C_8  and  C_10
REMARK    5  A    between atoms: C_15  and  S_16
REMARK    6  A    between atoms: S_16  and  N_17
REMARK    7  A    between atoms: N_21  and  C_22
REMARK                            x       y       z     vdW  Elec       q    Type
REMARK                         _______ _______ _______ _____ _____    ______ ____
ROOT
ATOM      1  C   UNL     1       2.450   7.898  18.502  0.00  0.00    +0.000 A 
ATOM      2  C   UNL     1       2.086   7.170  19.642  0.00  0.00    +0.000 A 
ATOM      3  C   UNL     1       2.681   5.923  19.891  0.00  0.00    +0.000 A 
ATOM      4  C   UNL     1       3.638   5.402  19.016  0.00  0.00    +0.000 A 
ATOM      5 CL   UNL     1       4.309   3.862  19.423  0.00  0.00    +0.000 Cl
ATOM      6  C   UNL     1       4.013   6.141  17.893  0.00  0.00    +0.000 A 
ATOM      7  C   UNL     1       3.426   7.388  17.641  0.00  0.00    +0.000 A 
ENDROOT
BRANCH   1   9
ATOM      8  N   UNL     1       0.770   9.560  19.057  0.00  0.00    +0.000 N 
ATOM      9  C   UNL     1       1.832   9.225  18.238  0.00  0.00    +0.000 C 
ATOM     10  O   UNL     1       2.267   9.940  17.345  0.00  0.00    +0.000 OA
ATOM     11  H   UNL     1       0.693   9.112  19.958  0.00  0.00    +0.000 HD
BRANCH   8  12
ATOM     12  C   UNL     1       0.124  10.842  18.934  0.00  0.00    +0.000 C 
BRANCH  12  17
ATOM     13  C   UNL     1      -4.837  11.357  18.034  0.00  0.00    +0.000 C 
ATOM     14  C   UNL     1      -3.438  10.863  17.899  0.00  0.00    +0.000 A 
ATOM     15  C   UNL     1      -2.940   9.903  17.044  0.00  0.00    +0.000 A 
ATOM     16  C   UNL     1      -1.556   9.794  17.284  0.00  0.00    +0.000 A 
ATOM     17  C   UNL     1      -1.217  10.674  18.297  0.00  0.00    +0.000 A 
ATOM     18  N   UNL     1      -2.383  11.323  18.670  0.00  0.00    +0.000 N 
ATOM     19  C   UNL     1      -2.537  12.321  19.710  0.00  0.00    +0.000 C 
ENDBRANCH  12  17
ENDBRANCH   8  12
ENDBRANCH   1   9
BRANCH   6  20
ATOM     20  S   UNL     1       5.205   5.559  16.730  0.00  0.00    +0.000 S 
ATOM     21  O   UNL     1       6.514   5.585  17.341  0.00  0.00    +0.000 OA
ATOM     22  O   UNL     1       4.689   4.371  16.095  0.00  0.00    +0.000 OA
BRANCH  20  23
ATOM     23  N   UNL     1       5.182   6.727  15.530  0.00  0.00    +0.000 NA
ATOM     24  H   UNL     1       5.448   6.310  14.636  0.00  0.00    +0.000 HD
ATOM     25  H   UNL     1       4.277   7.197  15.514  0.00  0.00    +0.000 HD
ENDBRANCH  20  23
ENDBRANCH   6  20
TORSDOF 5
ENDMDL
MODEL 6
REMARK VINA RESULT:      -7.2      3.039      3.934
REMARK  Name = 
REMARK  7 active torsions:
REMARK  status: ('A' for Active; 'I' for Inactive)
REMARK    1  A    between atoms: C_1  and  C_2
REMARK    2  A    between atoms: C_5  and  C_6
REMARK    3  A    between atoms: C_6  and  N_7
REMARK    4  A    between atoms: C_8  and  C_10
REMARK    5  A    between atoms: C_15  and  S_16
REMARK    6  A    between atoms: S_16  and  N_17
REMARK    7  A    between atoms: N_21  and  C_22
REMARK                            x       y       z     vdW  Elec       q    Type
REMARK                         _______ _______ _______ _____ _____    ______ ____
ROOT
ATOM      1  C   UNL     1       2.725   6.999  18.071  0.00  0.00    +0.000 A 
ATOM      2  C   UNL     1       3.900   6.757  17.348  0.00  0.00    +0.000 A 
ATOM      3  C   UNL     1       4.392   5.447  17.238  0.00  0.00    +0.000 A 
ATOM      4  C   UNL     1       3.719   4.379  17.838  0.00  0.00    +0.000 A 
ATOM      5 CL   UNL     1       4.412   2.809  17.635  0.00  0.00    +0.000 Cl
ATOM      6  C   UNL     1       2.537   4.622  18.539  0.00  0.00    +0.000 A 
ATOM      7  C   UNL     1       2.038   5.927  18.648  0.00  0.00    +0.000 A 
ENDROOT
BRANCH   1   9
ATOM      8  N   UNL     1       1.589   8.692  19.387  0.00  0.00    +0.000 N 
ATOM      9  C   UNL     1       2.191   8.383  18.182  0.00  0.00    +0.000 C 
ATOM     10  O   UNL     1       2.300   9.162  17.245  0.00  0.00    +0.000 OA
ATOM     11  H   UNL     1       1.837   8.154  20.204  0.00  0.00    +0.000 HD
BRANCH   8  12
ATOM     12  C   UNL     1       1.082  10.018  19.636  0.00  0.00    +0.000 C 
BRANCH  12  17
ATOM     13  C   UNL     1      -1.977  11.533  23.381  0.00  0.00    +0.000 C 
ATOM     14  C   UNL     1      -0.957  10.730  22.651  0.00  0.00    +0.000 A 
ATOM     15  C   UNL     1      -0.218   9.657  23.103  0.00  0.00    +0.000 A 
ATOM     16  C   UNL     1       0.603   9.227  22.042  0.00  0.00    +0.000 A 
ATOM     17  C   UNL     1       0.376  10.051  20.952  0.00  0.00    +0.000 A 
ATOM     18  N   UNL     1      -0.582  10.973  21.340  0.00  0.00    +0.000 N 
ATOM     19  C   UNL     1      -1.129  12.056  20.547  0.00  0.00    +0.000 C 
ENDBRANCH  12  17
ENDBRANCH   8  12
ENDBRANCH   1   9
BRANCH   6  20
ATOM     20  S   UNL     1       1.626   3.339  19.335  0.00  0.00    +0.000 S 
ATOM     21  O   UNL     1       0.800   2.669  18.357  0.00  0.00    +0.000 OA
ATOM     22  O   UNL     1       2.518   2.609  20.202  0.00  0.00    +0.000 OA
BRANCH  20  23
ATOM     23  N   UNL     1       0.609   4.169  20.375  0.00  0.00    +0.000 NA
ATOM     24  H   UNL     1      -0.044   3.518  20.814  0.00  0.00    +0.000 HD
ATOM     25  H   UNL     1       1.156   4.717  21.038  0.00  0.00    +0.000 HD
ENDBRANCH  20  23
ENDBRANCH   6  20
TORSDOF 5
ENDMDL
MODEL 7
REMARK VINA RESULT:      -7.2      2.434      3.105
REMARK  Name = 
REMARK  7 active torsions:
REMARK  status: ('A' for Active; 'I' for Inactive)
REMARK    1  A    between atoms: C_1  and  C_2
REMARK    2  A    between atoms: C_5  and  C_6
REMARK    3  A    between atoms: C_6  and  N_7
REMARK    4  A    between atoms: C_8  and  C_10
REMARK    5  A    between atoms: C_15  and  S_16
REMARK    6  A    between atoms: S_16  and  N_17
REMARK    7  A    between atoms: N_21  and  C_22
REMARK                            x       y       z     vdW  Elec       q    Type
REMARK                         _______ _______ _______ _____ _____    ______ ____
ROOT
ATOM      1  C   UNL     1       2.753   7.216  18.672  0.00  0.00    +0.000 A 
ATOM      2  C   UNL     1       2.483   6.385  19.766  0.00  0.00    +0.000 A 
ATOM      3  C   UNL     1       3.146   5.153  19.885  0.00  0.00    +0.000 A 
ATOM      4  C   UNL     1       4.078   4.749  18.925  0.00  0.00    +0.000 A 
ATOM      5 CL   UNL     1       4.838   3.217  19.174  0.00  0.00    +0.000 Cl
ATOM      6  C   UNL     1       4.359   5.590  17.848  0.00  0.00    +0.000 A 
ATOM      7  C   UNL     1       3.704   6.823  17.726  0.00  0.00    +0.000 A 
ENDROOT
BRANCH   1   9
ATOM      8  N   UNL     1       1.409   8.967  19.680  0.00  0.00    +0.000 N 
ATOM      9  C   UNL     1       2.062   8.528  18.545  0.00  0.00    +0.000 C 
ATOM     10  O   UNL     1       2.098   9.142  17.487  0.00  0.00    +0.000 OA
ATOM     11  H   UNL     1       1.702   8.610  20.577  0.00  0.00    +0.000 HD
BRANCH   8  12
ATOM     12  C   UNL     1       0.750  10.249  19.699  0.00  0.00    +0.000 C 
BRANCH  12  17
ATOM     13  C   UNL     1      -2.291  12.236  23.233  0.00  0.00    +0.000 C 
ATOM     14  C   UNL     1      -1.338  11.294  22.581  0.00  0.00    +0.000 A 
ATOM     15  C   UNL     1      -0.755  10.158  23.100  0.00  0.00    +0.000 A 
ATOM     16  C   UNL     1       0.062   9.600  22.097  0.00  0.00    +0.000 A 
ATOM     17  C   UNL     1      -0.011  10.408  20.974  0.00  0.00    +0.000 A 
ATOM     18  N   UNL     1      -0.872  11.448  21.285  0.00  0.00    +0.000 N 
ATOM     19  C   UNL     1      -1.247  12.561  20.435  0.00  0.00    +0.000 C 
ENDBRANCH  12  17
ENDBRANCH   8  12
ENDBRANCH   1   9
BRANCH   6  20
ATOM     20  S   UNL     1       5.513   5.160  16.585  0.00  0.00    +0.000 S 
ATOM     21  O   UNL     1       6.840   5.112  17.154  0.00  0.00    +0.000 OA
ATOM     22  O   UNL     1       4.975   4.059  15.823  0.00  0.00    +0.000 OA
BRANCH  20  23
ATOM     23  N   UNL     1       5.455   6.468  15.541  0.00  0.00    +0.000 NA
ATOM     24  H   UNL     1       6.265   7.071  15.697  0.00  0.00    +0.000 HD
ATOM     25  H   UNL     1       5.360   6.145  14.578  0.00  0.00    +0.000 HD
ENDBRANCH  20  23
ENDBRANCH   6  20
TORSDOF 5
ENDMDL
MODEL 8
REMARK VINA RESULT:      -7.2      3.059      3.736
REMARK  Name = 
REMARK  7 active torsions:
REMARK  status: ('A' for Active; 'I' for Inactive)
REMARK    1  A    between atoms: C_1  and  C_2
REMARK    2  A    between atoms: C_5  and  C_6
REMARK    3  A    between atoms: C_6  and  N_7
REMARK    4  A    between atoms: C_8  and  C_10
REMARK    5  A    between atoms: C_15  and  S_16
REMARK    6  A    between atoms: S_16  and  N_17
REMARK    7  A    between atoms: N_21  and  C_22
REMARK                            x       y       z     vdW  Elec       q    Type
REMARK                         _______ _______ _______ _____ _____    ______ ____
ROOT
ATOM      1  C   UNL     1       2.327   6.819  19.489  0.00  0.00    +0.000 A 
ATOM      2  C   UNL     1       2.991   6.928  18.261  0.00  0.00    +0.000 A 
ATOM      3  C   UNL     1       3.574   5.791  17.681  0.00  0.00    +0.000 A 
ATOM      4  C   UNL     1       3.494   4.547  18.313  0.00  0.00    +0.000 A 
ATOM      5 CL   UNL     1       4.243   3.214  17.506  0.00  0.00    +0.000 Cl
ATOM      6  C   UNL     1       2.813   4.438  19.526  0.00  0.00    +0.000 A 
ATOM      7  C   UNL     1       2.224   5.569  20.108  0.00  0.00    +0.000 A 
ENDROOT
BRANCH   1   9
ATOM      8  N   UNL     1       1.456   9.071  19.242  0.00  0.00    +0.000 N 
ATOM      9  C   UNL     1       1.696   8.018  20.104  0.00  0.00    +0.000 C 
ATOM     10  O   UNL     1       1.425   8.026  21.297  0.00  0.00    +0.000 OA
ATOM     11  H   UNL     1       1.374   8.880  18.255  0.00  0.00    +0.000 HD
BRANCH   8  12
ATOM     12  C   UNL     1       0.799  10.266  19.708  0.00  0.00    +0.000 C 
BRANCH  12  17
ATOM     13  C   UNL     1      -3.887  11.831  18.579  0.00  0.00    +0.000 C 
ATOM     14  C   UNL     1      -2.579  11.130  18.445  0.00  0.00    +0.000 A 
ATOM     15  C   UNL     1      -2.153  10.282  17.445  0.00  0.00    +0.000 A 
ATOM     16  C   UNL     1      -0.839   9.881  17.756  0.00  0.00    +0.000 A 
ATOM     17  C   UNL     1      -0.474  10.470  18.955  0.00  0.00    +0.000 A 
ATOM     18  N   UNL     1      -1.554  11.233  19.371  0.00  0.00    +0.000 N 
ATOM     19  C   UNL     1      -1.657  12.019  20.584  0.00  0.00    +0.000 C 
ENDBRANCH  12  17
ENDBRANCH   8  12
ENDBRANCH   1   9
BRANCH   6  20
ATOM     20  S   UNL     1       2.668   2.913  20.399  0.00  0.00    +0.000 S 
ATOM     21  O   UNL     1       1.624   2.119  19.793  0.00  0.00    +0.000 OA
ATOM     22  O   UNL     1       3.991   2.382  20.622  0.00  0.00    +0.000 OA
BRANCH  20  23
ATOM     23  N   UNL     1       2.135   3.380  21.916  0.00  0.00    +0.000 NA
ATOM     24  H   UNL     1       1.806   4.347  21.884  0.00  0.00    +0.000 HD
ATOM     25  H   UNL     1       1.442   2.718  22.264  0.00  0.00    +0.000 HD
ENDBRANCH  20  23
ENDBRANCH   6  20
TORSDOF 5
ENDMDL
MODEL 9
REMARK VINA RESULT:      -7.1      2.994      3.650
REMARK  Name = 
REMARK  7 active torsions:
REMARK  status: ('A' for Active; 'I' for Inactive)
REMARK    1  A    between atoms: C_1  and  C_2
REMARK    2  A    between atoms: C_5  and  C_6
REMARK    3  A    between atoms: C_6  and  N_7
REMARK    4  A    between atoms: C_8  and  C_10
REMARK    5  A    between atoms: C_15  and  S_16
REMARK    6  A    between atoms: S_16  and  N_17
REMARK    7  A    between atoms: N_21  and  C_22
REMARK                            x       y       z     vdW  Elec       q    Type
REMARK                         _______ _______ _______ _____ _____    ______ ____
ROOT
ATOM      1  C   UNL     1       2.320   7.184  18.886  0.00  0.00    +0.000 A 
ATOM      2  C   UNL     1       1.834   6.733  20.119  0.00  0.00    +0.000 A 
ATOM      3  C   UNL     1       2.178   5.451  20.576  0.00  0.00    +0.000 A 
ATOM      4  C   UNL     1       3.005   4.620  19.815  0.00  0.00    +0.000 A 
ATOM      5 CL   UNL     1       3.367   3.065  20.476  0.00  0.00    +0.000 Cl
ATOM      6  C   UNL     1       3.504   5.083  18.597  0.00  0.00    +0.000 A 
ATOM      7  C   UNL     1       3.169   6.363  18.137  0.00  0.00    +0.000 A 
ENDROOT
BRANCH   1   9
ATOM      8  N   UNL     1       1.093   9.254  19.200  0.00  0.00    +0.000 N 
ATOM      9  C   UNL     1       1.970   8.546  18.400  0.00  0.00    +0.000 C 
ATOM     10  O   UNL     1       2.450   8.970  17.358  0.00  0.00    +0.000 OA
ATOM     11  H   UNL     1       1.018   9.006  20.175  0.00  0.00    +0.000 HD
BRANCH   8  12
ATOM     12  C   UNL     1       0.720  10.606  18.864  0.00  0.00    +0.000 C 
BRANCH  12  17
ATOM     13  C   UNL     1      -4.196  11.811  18.635  0.00  0.00    +0.000 C 
ATOM     14  C   UNL     1      -2.908  11.138  18.309  0.00  0.00    +0.000 A 
ATOM     15  C   UNL     1      -2.661  10.147  17.383  0.00  0.00    +0.000 A 
ATOM     16  C   UNL     1      -1.286   9.846  17.436  0.00  0.00    +0.000 A 
ATOM     17  C   UNL     1      -0.702  10.640  18.408  0.00  0.00    +0.000 A 
ATOM     18  N   UNL     1      -1.709  11.428  18.941  0.00  0.00    +0.000 N 
ATOM     19  C   UNL     1      -1.590  12.404  20.005  0.00  0.00    +0.000 C 
ENDBRANCH  12  17
ENDBRANCH   8  12
ENDBRANCH   1   9
BRANCH   6  20
ATOM     20  S   UNL     1       4.548   4.102  17.566  0.00  0.00    +0.000 S 
ATOM     21  O   UNL     1       3.968   2.787  17.421  0.00  0.00    +0.000 OA
ATOM     22  O   UNL     1       4.937   4.889  16.422  0.00  0.00    +0.000 OA
BRANCH  20  23
ATOM     23  N   UNL     1       5.949   3.942  18.469  0.00  0.00    +0.000 NA
ATOM     24  H   UNL     1       5.750   3.423  19.327  0.00  0.00    +0.000 HD
ATOM     25  H   UNL     1       6.689   3.532  17.900  0.00  0.00    +0.000 HD
ENDBRANCH  20  23
ENDBRANCH   6  20
TORSDOF 5
ENDMDL
