MODEL 1
REMARK VINA RESULT:      -6.1      0.000      0.000
REMARK  Name = 
REMARK  7 active torsions:
REMARK  status: ('A' for Active; 'I' for Inactive)
REMARK    1  A    between atoms: C_1  and  C_2
REMARK    2  A    between atoms: C_2  and  O_3
REMARK    3  A    between atoms: O_3  and  C_4
REMARK    4  A    between atoms: C_4  and  C_5
REMARK    5  A    between atoms: C_5  and  N_6
REMARK    6  A    between atoms: C_8  and  C_9
REMARK    7  A    between atoms: C_13  and  C_14
REMARK                            x       y       z     vdW  Elec       q    Type
REMARK                         _______ _______ _______ _____ _____    ______ ____
ROOT
ATOM      1  N   UNL     1       5.225   4.355  16.909  0.00  0.00    +0.000 N 
ATOM      2  N   UNL     1       4.091   3.705  17.256  0.00  0.00    +0.000 NA
ATOM      3  C   UNL     1       4.275   3.522  18.568  0.00  0.00    +0.000 A 
ATOM      4  N   UNL     1       5.464   3.997  19.050  0.00  0.00    +0.000 NA
ATOM      5  C   UNL     1       6.048   4.506  17.991  0.00  0.00    +0.000 A 
ENDROOT
BRANCH   3   6
ATOM      6  C   UNL     1       3.257   2.829  19.458  0.00  0.00    +0.000 C 
ATOM      7  C   UNL     1       1.907   3.499  19.642  0.00  0.00    +0.000 C 
ATOM      8  C   UNL     1       2.003   2.260  18.823  0.00  0.00    +0.000 C 
ENDBRANCH   3   6
BRANCH   5   9
ATOM      9  C   UNL     1       7.448   5.103  18.033  0.00  0.00    +0.000 C 
ATOM     10  C   UNL     1       7.612   6.605  17.966  0.00  0.00    +0.000 C 
ATOM     11  C   UNL     1       7.786   5.912  19.274  0.00  0.00    +0.000 C 
ENDBRANCH   5   9
BRANCH   1  12
ATOM     12  C   UNL     1       5.418   4.792  15.543  0.00  0.00    +0.000 C 
BRANCH  12  13
ATOM     13  C   UNL     1       6.232   3.817  14.702  0.00  0.00    +0.000 C 
BRANCH  13  14
ATOM     14  O   UNL     1       6.477   4.381  13.408  0.00  0.00    +0.000 OA
BRANCH  14  16
ATOM     15  C   UNL     1       4.850   3.378  11.949  0.00  0.00    +0.000 C 
ATOM     16  C   UNL     1       6.303   3.402  12.381  0.00  0.00    +0.000 C 
ENDBRANCH  14  16
ENDBRANCH  13  14
ENDBRANCH  12  13
ENDBRANCH   1  12
TORSDOF 6
ENDMDL
MODEL 2
REMARK VINA RESULT:      -5.9      1.962      2.249
REMARK  Name = 
REMARK  7 active torsions:
REMARK  status: ('A' for Active; 'I' for Inactive)
REMARK    1  A    between atoms: C_1  and  C_2
REMARK    2  A    between atoms: C_2  and  O_3
REMARK    3  A    between atoms: O_3  and  C_4
REMARK    4  A    between atoms: C_4  and  C_5
REMARK    5  A    between atoms: C_5  and  N_6
REMARK    6  A    between atoms: C_8  and  C_9
REMARK    7  A    between atoms: C_13  and  C_14
REMARK                            x       y       z     vdW  Elec       q    Type
REMARK                         _______ _______ _______ _____ _____    ______ ____
ROOT
ATOM      1  N   UNL     1       4.449   6.113  18.013  0.00  0.00    +0.000 N 
ATOM      2  N   UNL     1       3.187   6.079  18.498  0.00  0.00    +0.000 NA
ATOM      3  C   UNL     1       3.355   5.409  19.642  0.00  0.00    +0.000 A 
ATOM      4  N   UNL     1       4.640   5.005  19.885  0.00  0.00    +0.000 NA
ATOM      5  C   UNL     1       5.306   5.448  18.845  0.00  0.00    +0.000 A 
ENDROOT
BRANCH   3   6
ATOM      6  C   UNL     1       2.214   5.101  20.597  0.00  0.00    +0.000 C 
ATOM      7  C   UNL     1       1.169   4.095  20.147  0.00  0.00    +0.000 C 
ATOM      8  C   UNL     1       2.135   3.719  21.216  0.00  0.00    +0.000 C 
ENDBRANCH   3   6
BRANCH   5   9
ATOM      9  C   UNL     1       6.791   5.174  18.645  0.00  0.00    +0.000 C 
ATOM     10  C   UNL     1       7.733   6.337  18.424  0.00  0.00    +0.000 C 
ATOM     11  C   UNL     1       7.710   5.663  19.753  0.00  0.00    +0.000 C 
ENDBRANCH   5   9
BRANCH   1  12
ATOM     12  C   UNL     1       4.728   6.804  16.773  0.00  0.00    +0.000 C 
BRANCH  12  13
ATOM     13  C   UNL     1       5.030   5.868  15.609  0.00  0.00    +0.000 C 
BRANCH  13  14
ATOM     14  O   UNL     1       6.388   6.041  15.187  0.00  0.00    +0.000 OA
BRANCH  14  16
ATOM     15  C   UNL     1       6.029   3.664  15.223  0.00  0.00    +0.000 C 
ATOM     16  C   UNL     1       7.033   4.779  15.004  0.00  0.00    +0.000 C 
ENDBRANCH  14  16
ENDBRANCH  13  14
ENDBRANCH  12  13
ENDBRANCH   1  12
TORSDOF 6
ENDMDL
MODEL 3
REMARK VINA RESULT:      -5.9      3.296      6.440
REMARK  Name = 
REMARK  7 active torsions:
REMARK  status: ('A' for Active; 'I' for Inactive)
REMARK    1  A    between atoms: C_1  and  C_2
REMARK    2  A    between atoms: C_2  and  O_3
REMARK    3  A    between atoms: O_3  and  C_4
REMARK    4  A    between atoms: C_4  and  C_5
REMARK    5  A    between atoms: C_5  and  N_6
REMARK    6  A    between atoms: C_8  and  C_9
REMARK    7  A    between atoms: C_13  and  C_14
REMARK                            x       y       z     vdW  Elec       q    Type
REMARK                         _______ _______ _______ _____ _____    ______ ____
ROOT
ATOM      1  N   UNL     1       3.436   5.348  18.162  0.00  0.00    +0.000 N 
ATOM      2  N   UNL     1       4.640   5.354  17.546  0.00  0.00    +0.000 NA
ATOM      3  C   UNL     1       4.572   4.239  16.810  0.00  0.00    +0.000 A 
ATOM      4  N   UNL     1       3.410   3.531  16.950  0.00  0.00    +0.000 NA
ATOM      5  C   UNL     1       2.717   4.239  17.810  0.00  0.00    +0.000 A 
ENDROOT
BRANCH   3   6
ATOM      6  C   UNL     1       5.698   3.779  15.900  0.00  0.00    +0.000 C 
ATOM      7  C   UNL     1       5.715   4.307  14.476  0.00  0.00    +0.000 C 
ATOM      8  C   UNL     1       6.731   4.794  15.450  0.00  0.00    +0.000 C 
ENDBRANCH   3   6
BRANCH   5   9
ATOM      9  C   UNL     1       1.354   3.797  18.328  0.00  0.00    +0.000 C 
ATOM     10  C   UNL     1       1.122   2.336  18.642  0.00  0.00    +0.000 C 
ATOM     11  C   UNL     1       1.320   3.298  19.762  0.00  0.00    +0.000 C 
ENDBRANCH   5   9
BRANCH   1  12
ATOM     12  C   UNL     1       3.070   6.436  19.043  0.00  0.00    +0.000 C 
BRANCH  12  13
ATOM     13  C   UNL     1       2.368   7.586  18.332  0.00  0.00    +0.000 C 
BRANCH  13  14
ATOM     14  O   UNL     1       1.808   8.483  19.298  0.00  0.00    +0.000 OA
BRANCH  14  16
ATOM     15  C   UNL     1       1.149   8.837  21.583  0.00  0.00    +0.000 C 
ATOM     16  C   UNL     1       1.593   7.823  20.548  0.00  0.00    +0.000 C 
ENDBRANCH  14  16
ENDBRANCH  13  14
ENDBRANCH  12  13
ENDBRANCH   1  12
TORSDOF 6
ENDMDL
MODEL 4
REMARK VINA RESULT:      -5.8      2.194      4.551
REMARK  Name = 
REMARK  7 active torsions:
REMARK  status: ('A' for Active; 'I' for Inactive)
REMARK    1  A    between atoms: C_1  and  C_2
REMARK    2  A    between atoms: C_2  and  O_3
REMARK    3  A    between atoms: O_3  and  C_4
REMARK    4  A    between atoms: C_4  and  C_5
REMARK    5  A    between atoms: C_5  and  N_6
REMARK    6  A    between atoms: C_8  and  C_9
REMARK    7  A    between atoms: C_13  and  C_14
REMARK                            x       y       z     vdW  Elec       q    Type
REMARK                         _______ _______ _______ _____ _____    ______ ____
ROOT
ATOM      1  N   UNL     1       6.053   4.964  18.375  0.00  0.00    +0.000 N 
ATOM      2  N   UNL     1       5.012   4.828  19.227  0.00  0.00    +0.000 NA
ATOM      3  C   UNL     1       4.184   4.052  18.520  0.00  0.00    +0.000 A 
ATOM      4  N   UNL     1       4.637   3.719  17.273  0.00  0.00    +0.000 NA
ATOM      5  C   UNL     1       5.806   4.310  17.199  0.00  0.00    +0.000 A 
ENDROOT
BRANCH   3   6
ATOM      6  C   UNL     1       2.837   3.586  19.045  0.00  0.00    +0.000 C 
ATOM      7  C   UNL     1       1.599   4.328  18.573  0.00  0.00    +0.000 C 
ATOM      8  C   UNL     1       1.859   2.948  18.077  0.00  0.00    +0.000 C 
ENDBRANCH   3   6
BRANCH   5   9
ATOM      9  C   UNL     1       6.667   4.272  15.944  0.00  0.00    +0.000 C 
ATOM     10  C   UNL     1       6.056   3.799  14.644  0.00  0.00    +0.000 C 
ATOM     11  C   UNL     1       6.288   5.256  14.850  0.00  0.00    +0.000 C 
ENDBRANCH   5   9
BRANCH   1  12
ATOM     12  C   UNL     1       7.222   5.717  18.776  0.00  0.00    +0.000 C 
BRANCH  12  13
ATOM     13  C   UNL     1       7.432   6.991  17.968  0.00  0.00    +0.000 C 
BRANCH  13  14
ATOM     14  O   UNL     1       8.439   7.798  18.589  0.00  0.00    +0.000 OA
BRANCH  14  16
ATOM     15  C   UNL     1       9.144  10.036  19.112  0.00  0.00    +0.000 C 
ATOM     16  C   UNL     1       8.328   9.163  18.179  0.00  0.00    +0.000 C 
ENDBRANCH  14  16
ENDBRANCH  13  14
ENDBRANCH  12  13
ENDBRANCH   1  12
TORSDOF 6
ENDMDL
MODEL 5
REMARK VINA RESULT:      -5.8      3.536      6.131
REMARK  Name = 
REMARK  7 active torsions:
REMARK  status: ('A' for Active; 'I' for Inactive)
REMARK    1  A    between atoms: C_1  and  C_2
REMARK    2  A    between atoms: C_2  and  O_3
REMARK    3  A    between atoms: O_3  and  C_4
REMARK    4  A    between atoms: C_4  and  C_5
REMARK    5  A    between atoms: C_5  and  N_6
REMARK    6  A    between atoms: C_8  and  C_9
REMARK    7  A    between atoms: C_13  and  C_14
REMARK                            x       y       z     vdW  Elec       q    Type
REMARK                         _______ _______ _______ _____ _____    ______ ____
ROOT
ATOM      1  N   UNL     1       3.126   5.564  17.869  0.00  0.00    +0.000 N 
ATOM      2  N   UNL     1       4.340   5.614  17.275  0.00  0.00    +0.000 NA
ATOM      3  C   UNL     1       4.440   4.384  16.760  0.00  0.00    +0.000 A 
ATOM      4  N   UNL     1       3.373   3.568  17.019  0.00  0.00    +0.000 NA
ATOM      5  C   UNL     1       2.566   4.325  17.724  0.00  0.00    +0.000 A 
ENDROOT
BRANCH   3   6
ATOM      6  C   UNL     1       5.645   3.916  15.963  0.00  0.00    +0.000 C 
ATOM      7  C   UNL     1       5.677   4.235  14.478  0.00  0.00    +0.000 C 
ATOM      8  C   UNL     1       6.596   4.956  15.402  0.00  0.00    +0.000 C 
ENDBRANCH   3   6
BRANCH   5   9
ATOM      9  C   UNL     1       1.254   3.811  18.302  0.00  0.00    +0.000 C 
ATOM     10  C   UNL     1       1.151   2.362  18.725  0.00  0.00    +0.000 C 
ATOM     11  C   UNL     1       1.286   3.417  19.769  0.00  0.00    +0.000 C 
ENDBRANCH   5   9
BRANCH   1  12
ATOM     12  C   UNL     1       2.595   6.738  18.528  0.00  0.00    +0.000 C 
BRANCH  12  13
ATOM     13  C   UNL     1       2.995   8.046  17.856  0.00  0.00    +0.000 C 
BRANCH  13  14
ATOM     14  O   UNL     1       1.833   8.689  17.320  0.00  0.00    +0.000 OA
BRANCH  14  16
ATOM     15  C   UNL     1       2.060  10.928  18.166  0.00  0.00    +0.000 C 
ATOM     16  C   UNL     1       1.289   9.626  18.252  0.00  0.00    +0.000 C 
ENDBRANCH  14  16
ENDBRANCH  13  14
ENDBRANCH  12  13
ENDBRANCH   1  12
TORSDOF 6
ENDMDL
MODEL 6
REMARK VINA RESULT:      -5.8      0.941      1.204
REMARK  Name = 
REMARK  7 active torsions:
REMARK  status: ('A' for Active; 'I' for Inactive)
REMARK    1  A    between atoms: C_1  and  C_2
REMARK    2  A    between atoms: C_2  and  O_3
REMARK    3  A    between atoms: O_3  and  C_4
REMARK    4  A    between atoms: C_4  and  C_5
REMARK    5  A    between atoms: C_5  and  N_6
REMARK    6  A    between atoms: C_8  and  C_9
REMARK    7  A    between atoms: C_13  and  C_14
REMARK                            x       y       z     vdW  Elec       q    Type
REMARK                         _______ _______ _______ _____ _____    ______ ____
ROOT
ATOM      1  N   UNL     1       4.964   4.152  17.365  0.00  0.00    +0.000 N 
ATOM      2  N   UNL     1       3.793   3.752  17.913  0.00  0.00    +0.000 NA
ATOM      3  C   UNL     1       4.023   3.953  19.215  0.00  0.00    +0.000 A 
ATOM      4  N   UNL     1       5.271   4.429  19.509  0.00  0.00    +0.000 NA
ATOM      5  C   UNL     1       5.848   4.536  18.335  0.00  0.00    +0.000 A 
ENDROOT
BRANCH   3   6
ATOM      6  C   UNL     1       2.991   3.663  20.292  0.00  0.00    +0.000 C 
ATOM      7  C   UNL     1       2.164   4.828  20.809  0.00  0.00    +0.000 C 
ATOM      8  C   UNL     1       1.521   3.798  19.946  0.00  0.00    +0.000 C 
ENDBRANCH   3   6
BRANCH   5   9
ATOM      9  C   UNL     1       7.296   4.975  18.168  0.00  0.00    +0.000 C 
ATOM     10  C   UNL     1       7.606   6.445  17.987  0.00  0.00    +0.000 C 
ATOM     11  C   UNL     1       7.872   5.803  19.305  0.00  0.00    +0.000 C 
ENDBRANCH   5   9
BRANCH   1  12
ATOM     12  C   UNL     1       5.130   4.138  15.928  0.00  0.00    +0.000 C 
BRANCH  12  13
ATOM     13  C   UNL     1       5.442   5.507  15.338  0.00  0.00    +0.000 C 
BRANCH  13  14
ATOM     14  O   UNL     1       6.461   5.384  14.339  0.00  0.00    +0.000 OA
BRANCH  14  16
ATOM     15  C   UNL     1       6.408   3.819  12.515  0.00  0.00    +0.000 C 
ATOM     16  C   UNL     1       6.678   4.014  13.994  0.00  0.00    +0.000 C 
ENDBRANCH  14  16
ENDBRANCH  13  14
ENDBRANCH  12  13
ENDBRANCH   1  12
TORSDOF 6
ENDMDL
MODEL 7
REMARK VINA RESULT:      -5.8      1.605      4.131
REMARK  Name = 
REMARK  7 active torsions:
REMARK  status: ('A' for Active; 'I' for Inactive)
REMARK    1  A    between atoms: C_1  and  C_2
REMARK    2  A    between atoms: C_2  and  O_3
REMARK    3  A    between atoms: O_3  and  C_4
REMARK    4  A    between atoms: C_4  and  C_5
REMARK    5  A    between atoms: C_5  and  N_6
REMARK    6  A    between atoms: C_8  and  C_9
REMARK    7  A    between atoms: C_13  and  C_14
REMARK                            x       y       z     vdW  Elec       q    Type
REMARK                         _______ _______ _______ _____ _____    ______ ____
ROOT
ATOM      1  N   UNL     1       6.123   4.518  17.665  0.00  0.00    +0.000 N 
ATOM      2  N   UNL     1       5.451   4.039  18.737  0.00  0.00    +0.000 NA
ATOM      3  C   UNL     1       4.284   3.685  18.188  0.00  0.00    +0.000 A 
ATOM      4  N   UNL     1       4.182   3.938  16.848  0.00  0.00    +0.000 NA
ATOM      5  C   UNL     1       5.342   4.470  16.543  0.00  0.00    +0.000 A 
ENDROOT
BRANCH   3   6
ATOM      6  C   UNL     1       3.149   3.066  18.986  0.00  0.00    +0.000 C 
ATOM      7  C   UNL     1       2.049   3.988  19.482  0.00  0.00    +0.000 C 
ATOM      8  C   UNL     1       1.762   3.036  18.374  0.00  0.00    +0.000 C 
ENDBRANCH   3   6
BRANCH   5   9
ATOM      9  C   UNL     1       5.670   4.979  15.145  0.00  0.00    +0.000 C 
ATOM     10  C   UNL     1       7.078   4.825  14.615  0.00  0.00    +0.000 C 
ATOM     11  C   UNL     1       6.010   3.915  14.116  0.00  0.00    +0.000 C 
ENDBRANCH   5   9
BRANCH   1  12
ATOM     12  C   UNL     1       7.486   4.981  17.814  0.00  0.00    +0.000 C 
BRANCH  12  13
ATOM     13  C   UNL     1       7.590   6.421  18.298  0.00  0.00    +0.000 C 
BRANCH  13  14
ATOM     14  O   UNL     1       7.206   7.315  17.247  0.00  0.00    +0.000 OA
BRANCH  14  16
ATOM     15  C   UNL     1       8.623   8.605  18.698  0.00  0.00    +0.000 C 
ATOM     16  C   UNL     1       7.784   8.609  17.436  0.00  0.00    +0.000 C 
ENDBRANCH  14  16
ENDBRANCH  13  14
ENDBRANCH  12  13
ENDBRANCH   1  12
TORSDOF 6
ENDMDL
MODEL 8
REMARK VINA RESULT:      -5.7      0.945      1.153
REMARK  Name = 
REMARK  7 active torsions:
REMARK  status: ('A' for Active; 'I' for Inactive)
REMARK    1  A    between atoms: C_1  and  C_2
REMARK    2  A    between atoms: C_2  and  O_3
REMARK    3  A    between atoms: O_3  and  C_4
REMARK    4  A    between atoms: C_4  and  C_5
REMARK    5  A    between atoms: C_5  and  N_6
REMARK    6  A    between atoms: C_8  and  C_9
REMARK    7  A    between atoms: C_13  and  C_14
REMARK                            x       y       z     vdW  Elec       q    Type
REMARK                         _______ _______ _______ _____ _____    ______ ____
ROOT
ATOM      1  N   UNL     1       4.528   4.384  17.164  0.00  0.00    +0.000 N 
ATOM      2  N   UNL     1       3.474   3.607  17.502  0.00  0.00    +0.000 NA
ATOM      3  C   UNL     1       3.448   3.750  18.831  0.00  0.00    +0.000 A 
ATOM      4  N   UNL     1       4.436   4.549  19.339  0.00  0.00    +0.000 NA
ATOM      5  C   UNL     1       5.108   4.926  18.277  0.00  0.00    +0.000 A 
ENDROOT
BRANCH   3   6
ATOM      6  C   UNL     1       2.418   3.071  19.717  0.00  0.00    +0.000 C 
ATOM      7  C   UNL     1       1.211   3.886  20.148  0.00  0.00    +0.000 C 
ATOM      8  C   UNL     1       1.039   2.796  19.150  0.00  0.00    +0.000 C 
ENDBRANCH   3   6
BRANCH   5   9
ATOM      9  C   UNL     1       6.359   5.791  18.362  0.00  0.00    +0.000 C 
ATOM     10  C   UNL     1       7.306   5.607  19.527  0.00  0.00    +0.000 C 
ATOM     11  C   UNL     1       7.681   5.061  18.192  0.00  0.00    +0.000 C 
ENDBRANCH   5   9
BRANCH   1  12
ATOM     12  C   UNL     1       4.888   4.548  15.772  0.00  0.00    +0.000 C 
BRANCH  12  13
ATOM     13  C   UNL     1       6.060   3.677  15.339  0.00  0.00    +0.000 C 
BRANCH  13  14
ATOM     14  O   UNL     1       6.636   4.202  14.137  0.00  0.00    +0.000 OA
BRANCH  14  16
ATOM     15  C   UNL     1       6.992   3.728  11.808  0.00  0.00    +0.000 C 
ATOM     16  C   UNL     1       6.041   3.609  12.982  0.00  0.00    +0.000 C 
ENDBRANCH  14  16
ENDBRANCH  13  14
ENDBRANCH  12  13
ENDBRANCH   1  12
TORSDOF 6
ENDMDL
MODEL 9
REMARK VINA RESULT:      -5.7      3.136      5.632
REMARK  Name = 
REMARK  7 active torsions:
REMARK  status: ('A' for Active; 'I' for Inactive)
REMARK    1  A    between atoms: C_1  and  C_2
REMARK    2  A    between atoms: C_2  and  O_3
REMARK    3  A    between atoms: O_3  and  C_4
REMARK    4  A    between atoms: C_4  and  C_5
REMARK    5  A    between atoms: C_5  and  N_6
REMARK    6  A    between atoms: C_8  and  C_9
REMARK    7  A    between atoms: C_13  and  C_14
REMARK                            x       y       z     vdW  Elec       q    Type
REMARK                         _______ _______ _______ _____ _____    ______ ____
ROOT
ATOM      1  N   UNL     1       3.777   4.270  17.628  0.00  0.00    +0.000 N 
ATOM      2  N   UNL     1       5.085   3.973  17.454  0.00  0.00    +0.000 NA
ATOM      3  C   UNL     1       5.675   5.106  17.848  0.00  0.00    +0.000 A 
ATOM      4  N   UNL     1       4.813   6.096  18.232  0.00  0.00    +0.000 NA
ATOM      5  C   UNL     1       3.628   5.554  18.076  0.00  0.00    +0.000 A 
ENDROOT
BRANCH   3   6
ATOM      6  C   UNL     1       7.183   5.295  17.856  0.00  0.00    +0.000 C 
ATOM      7  C   UNL     1       7.716   6.714  17.949  0.00  0.00    +0.000 C 
ATOM      8  C   UNL     1       7.845   5.806  19.121  0.00  0.00    +0.000 C 
ENDBRANCH   3   6
BRANCH   5   9
ATOM      9  C   UNL     1       2.336   6.320  18.325  0.00  0.00    +0.000 C 
ATOM     10  C   UNL     1       2.263   7.289  19.484  0.00  0.00    +0.000 C 
ATOM     11  C   UNL     1       2.402   7.821  18.100  0.00  0.00    +0.000 C 
ENDBRANCH   5   9
BRANCH   1  12
ATOM     12  C   UNL     1       2.766   3.273  17.353  0.00  0.00    +0.000 C 
BRANCH  12  13
ATOM     13  C   UNL     1       2.741   2.136  18.366  0.00  0.00    +0.000 C 
BRANCH  13  14
ATOM     14  O   UNL     1       1.400   1.924  18.824  0.00  0.00    +0.000 OA
BRANCH  14  16
ATOM     15  C   UNL     1       1.341   3.052  20.946  0.00  0.00    +0.000 C 
ATOM     16  C   UNL     1       0.899   3.081  19.496  0.00  0.00    +0.000 C 
ENDBRANCH  14  16
ENDBRANCH  13  14
ENDBRANCH  12  13
ENDBRANCH   1  12
TORSDOF 6
ENDMDL
