MODEL 1
REMARK VINA RESULT:      -7.3      0.000      0.000
REMARK  Name = 
REMARK  8 active torsions:
REMARK  status: ('A' for Active; 'I' for Inactive)
REMARK    1  A    between atoms: C_2  and  C_3
REMARK    2  A    between atoms: C_3  and  S_4
REMARK    3  A    between atoms: N_5  and  C_6
REMARK    4  A    between atoms: C_6  and  C_7
REMARK    5  A    between atoms: C_7  and  C_8
REMARK    6  A    between atoms: C_8  and  C_9
REMARK    7  A    between atoms: C_9  and  C_10
REMARK    8  A    between atoms: C_10  and  C_11
REMARK                            x       y       z     vdW  Elec       q    Type
REMARK                         _______ _______ _______ _____ _____    ______ ____
ROOT
ATOM      1  C   UNL     1       3.714   6.655  17.572  0.00  0.00    +0.000 C 
ENDROOT
BRANCH   1   2
ATOM      2  C   UNL     1       5.164   6.735  17.081  0.00  0.00    +0.000 C 
BRANCH   2   3
ATOM      3  C   UNL     1       6.161   5.862  17.850  0.00  0.00    +0.000 C 
BRANCH   3   4
ATOM      4  C   UNL     1       6.888   4.880  16.938  0.00  0.00    +0.000 C 
BRANCH   4   7
ATOM      5  N   UNL     1       7.949   5.546  13.547  0.00  0.00    +0.000 NA
ATOM      6  C   UNL     1       7.191   5.060  14.481  0.00  0.00    +0.000 C 
ATOM      7  N   UNL     1       7.385   5.534  15.750  0.00  0.00    +0.000 N 
ATOM      8  H   UNL     1       7.709   5.091  12.655  0.00  0.00    +0.000 HD
ATOM      9  H   UNL     1       8.253   6.060  15.835  0.00  0.00    +0.000 HD
BRANCH   6  10
ATOM     10  C   UNL     1       6.146   3.976  14.214  0.00  0.00    +0.000 C 
BRANCH  10  11
ATOM     11  S   UNL     1       6.128   3.425  12.491  0.00  0.00    +0.000 S 
ATOM     12  H   UNL     1       6.072   2.112  12.761  0.00  0.00    +0.000 HD
ENDBRANCH  10  11
ENDBRANCH   6  10
ENDBRANCH   4   7
ENDBRANCH   3   4
ENDBRANCH   2   3
ENDBRANCH   1   2
BRANCH   1  13
ATOM     13  C   UNL     1       3.589   6.245  19.046  0.00  0.00    +0.000 C 
BRANCH  13  14
ATOM     14  C   UNL     1       2.955   4.853  19.285  0.00  0.00    +0.000 C 
ATOM     15  C   UNL     1       4.007   3.826  19.779  0.00  0.00    +0.000 C 
ATOM     16  C   UNL     1       3.351   2.459  20.042  0.00  0.00    +0.000 C 
ATOM     17  C   UNL     1       2.270   2.612  21.120  0.00  0.00    +0.000 C 
ATOM     18  C   UNL     1       1.201   3.613  20.653  0.00  0.00    +0.000 C 
ATOM     19  C   UNL     1       0.559   3.100  19.354  0.00  0.00    +0.000 C 
ATOM     20  C   UNL     1       1.630   2.944  18.265  0.00  0.00    +0.000 C 
ATOM     21  C   UNL     1       2.707   1.954  18.741  0.00  0.00    +0.000 C 
ATOM     22  C   UNL     1       2.286   4.307  18.000  0.00  0.00    +0.000 C 
ATOM     23  C   UNL     1       1.863   4.975  20.385  0.00  0.00    +0.000 C 
ENDBRANCH  13  14
ENDBRANCH   1  13
TORSDOF 8
ENDMDL
MODEL 2
REMARK VINA RESULT:      -7.2      0.812      1.059
REMARK  Name = 
REMARK  8 active torsions:
REMARK  status: ('A' for Active; 'I' for Inactive)
REMARK    1  A    between atoms: C_2  and  C_3
REMARK    2  A    between atoms: C_3  and  S_4
REMARK    3  A    between atoms: N_5  and  C_6
REMARK    4  A    between atoms: C_6  and  C_7
REMARK    5  A    between atoms: C_7  and  C_8
REMARK    6  A    between atoms: C_8  and  C_9
REMARK    7  A    between atoms: C_9  and  C_10
REMARK    8  A    between atoms: C_10  and  C_11
REMARK                            x       y       z     vdW  Elec       q    Type
REMARK                         _______ _______ _______ _____ _____    ______ ____
ROOT
ATOM      1  C   UNL     1       4.465   6.521  17.765  0.00  0.00    +0.000 C 
ENDROOT
BRANCH   1   2
ATOM      2  C   UNL     1       5.997   6.484  17.721  0.00  0.00    +0.000 C 
BRANCH   2   3
ATOM      3  C   UNL     1       6.633   5.201  18.266  0.00  0.00    +0.000 C 
BRANCH   3   4
ATOM      4  C   UNL     1       7.326   4.393  17.174  0.00  0.00    +0.000 C 
BRANCH   4   7
ATOM      5  N   UNL     1       7.766   5.521  13.767  0.00  0.00    +0.000 NA
ATOM      6  C   UNL     1       7.185   4.901  14.749  0.00  0.00    +0.000 C 
ATOM      7  N   UNL     1       7.605   5.208  16.014  0.00  0.00    +0.000 N 
ATOM      8  H   UNL     1       7.368   5.182  12.880  0.00  0.00    +0.000 HD
ATOM      9  H   UNL     1       8.476   5.735  16.013  0.00  0.00    +0.000 HD
BRANCH   6  10
ATOM     10  C   UNL     1       6.105   3.841  14.530  0.00  0.00    +0.000 C 
BRANCH  10  11
ATOM     11  S   UNL     1       5.822   3.474  12.781  0.00  0.00    +0.000 S 
ATOM     12  H   UNL     1       4.941   2.483  12.983  0.00  0.00    +0.000 HD
ENDBRANCH  10  11
ENDBRANCH   6  10
ENDBRANCH   4   7
ENDBRANCH   3   4
ENDBRANCH   2   3
ENDBRANCH   1   2
BRANCH   1  13
ATOM     13  C   UNL     1       3.806   5.257  17.197  0.00  0.00    +0.000 C 
BRANCH  13  14
ATOM     14  C   UNL     1       3.095   4.364  18.243  0.00  0.00    +0.000 C 
ATOM     15  C   UNL     1       3.803   2.992  18.395  0.00  0.00    +0.000 C 
ATOM     16  C   UNL     1       3.102   2.134  19.462  0.00  0.00    +0.000 C 
ATOM     17  C   UNL     1       3.147   2.862  20.812  0.00  0.00    +0.000 C 
ATOM     18  C   UNL     1       2.437   4.221  20.699  0.00  0.00    +0.000 C 
ATOM     19  C   UNL     1       0.973   3.995  20.288  0.00  0.00    +0.000 C 
ATOM     20  C   UNL     1       0.913   3.268  18.936  0.00  0.00    +0.000 C 
ATOM     21  C   UNL     1       1.638   1.916  19.047  0.00  0.00    +0.000 C 
ATOM     22  C   UNL     1       1.612   4.124  17.868  0.00  0.00    +0.000 C 
ATOM     23  C   UNL     1       3.137   5.072  19.626  0.00  0.00    +0.000 C 
ENDBRANCH  13  14
ENDBRANCH   1  13
TORSDOF 8
ENDMDL
MODEL 3
REMARK VINA RESULT:      -7.2      0.457      1.784
REMARK  Name = 
REMARK  8 active torsions:
REMARK  status: ('A' for Active; 'I' for Inactive)
REMARK    1  A    between atoms: C_2  and  C_3
REMARK    2  A    between atoms: C_3  and  S_4
REMARK    3  A    between atoms: N_5  and  C_6
REMARK    4  A    between atoms: C_6  and  C_7
REMARK    5  A    between atoms: C_7  and  C_8
REMARK    6  A    between atoms: C_8  and  C_9
REMARK    7  A    between atoms: C_9  and  C_10
REMARK    8  A    between atoms: C_10  and  C_11
REMARK                            x       y       z     vdW  Elec       q    Type
REMARK                         _______ _______ _______ _____ _____    ______ ____
ROOT
ATOM      1  C   UNL     1       3.289   6.796  17.636  0.00  0.00    +0.000 C 
ENDROOT
BRANCH   1   2
ATOM      2  C   UNL     1       4.713   6.704  17.075  0.00  0.00    +0.000 C 
BRANCH   2   3
ATOM      3  C   UNL     1       5.147   5.305  16.625  0.00  0.00    +0.000 C 
BRANCH   3   4
ATOM      4  C   UNL     1       6.663   5.146  16.622  0.00  0.00    +0.000 C 
BRANCH   4   7
ATOM      5  N   UNL     1       8.068   5.534  13.314  0.00  0.00    +0.000 NA
ATOM      6  C   UNL     1       7.241   5.088  14.209  0.00  0.00    +0.000 C 
ATOM      7  N   UNL     1       7.250   5.710  15.428  0.00  0.00    +0.000 N 
ATOM      8  H   UNL     1       7.968   4.967  12.460  0.00  0.00    +0.000 HD
ATOM      9  H   UNL     1       8.061   6.313  15.547  0.00  0.00    +0.000 HD
BRANCH   6  10
ATOM     10  C   UNL     1       6.316   3.897  13.957  0.00  0.00    +0.000 C 
BRANCH  10  11
ATOM     11  S   UNL     1       6.290   3.382  12.222  0.00  0.00    +0.000 S 
ATOM     12  H   UNL     1       5.501   4.376  11.790  0.00  0.00    +0.000 HD
ENDBRANCH  10  11
ENDBRANCH   6  10
ENDBRANCH   4   7
ENDBRANCH   3   4
ENDBRANCH   2   3
ENDBRANCH   1   2
BRANCH   1  13
ATOM     13  C   UNL     1       3.188   6.404  19.117  0.00  0.00    +0.000 C 
BRANCH  13  14
ATOM     14  C   UNL     1       2.673   4.968  19.379  0.00  0.00    +0.000 C 
ATOM     15  C   UNL     1       1.973   4.378  18.127  0.00  0.00    +0.000 C 
ATOM     16  C   UNL     1       1.497   2.941  18.397  0.00  0.00    +0.000 C 
ATOM     17  C   UNL     1       2.705   2.061  18.745  0.00  0.00    +0.000 C 
ATOM     18  C   UNL     1       3.412   2.610  19.994  0.00  0.00    +0.000 C 
ATOM     19  C   UNL     1       2.426   2.615  21.174  0.00  0.00    +0.000 C 
ATOM     20  C   UNL     1       1.212   3.494  20.840  0.00  0.00    +0.000 C 
ATOM     21  C   UNL     1       0.515   2.952  19.580  0.00  0.00    +0.000 C 
ATOM     22  C   UNL     1       1.684   4.931  20.571  0.00  0.00    +0.000 C 
ATOM     23  C   UNL     1       3.880   4.050  19.721  0.00  0.00    +0.000 C 
ENDBRANCH  13  14
ENDBRANCH   1  13
TORSDOF 8
ENDMDL
MODEL 4
REMARK VINA RESULT:      -7.1      0.397      1.614
REMARK  Name = 
REMARK  8 active torsions:
REMARK  status: ('A' for Active; 'I' for Inactive)
REMARK    1  A    between atoms: C_2  and  C_3
REMARK    2  A    between atoms: C_3  and  S_4
REMARK    3  A    between atoms: N_5  and  C_6
REMARK    4  A    between atoms: C_6  and  C_7
REMARK    5  A    between atoms: C_7  and  C_8
REMARK    6  A    between atoms: C_8  and  C_9
REMARK    7  A    between atoms: C_9  and  C_10
REMARK    8  A    between atoms: C_10  and  C_11
REMARK                            x       y       z     vdW  Elec       q    Type
REMARK                         _______ _______ _______ _____ _____    ______ ____
ROOT
ATOM      1  C   UNL     1       3.951   6.528  17.752  0.00  0.00    +0.000 C 
ENDROOT
BRANCH   1   2
ATOM      2  C   UNL     1       5.222   6.517  16.895  0.00  0.00    +0.000 C 
BRANCH   2   3
ATOM      3  C   UNL     1       6.452   5.891  17.561  0.00  0.00    +0.000 C 
BRANCH   3   4
ATOM      4  C   UNL     1       7.143   4.877  16.655  0.00  0.00    +0.000 C 
BRANCH   4   7
ATOM      5  N   UNL     1       7.901   5.436  13.165  0.00  0.00    +0.000 NA
ATOM      6  C   UNL     1       7.207   5.017  14.178  0.00  0.00    +0.000 C 
ATOM      7  N   UNL     1       7.565   5.483  15.413  0.00  0.00    +0.000 N 
ATOM      8  H   UNL     1       7.536   4.995  12.309  0.00  0.00    +0.000 HD
ATOM      9  H   UNL     1       8.475   5.940  15.403  0.00  0.00    +0.000 HD
BRANCH   6  10
ATOM     10  C   UNL     1       6.059   4.016  14.034  0.00  0.00    +0.000 C 
BRANCH  10  11
ATOM     11  S   UNL     1       5.932   3.328  12.365  0.00  0.00    +0.000 S 
ATOM     12  H   UNL     1       5.323   4.390  11.818  0.00  0.00    +0.000 HD
ENDBRANCH  10  11
ENDBRANCH   6  10
ENDBRANCH   4   7
ENDBRANCH   3   4
ENDBRANCH   2   3
ENDBRANCH   1   2
BRANCH   1  13
ATOM     13  C   UNL     1       4.153   5.931  19.152  0.00  0.00    +0.000 C 
BRANCH  13  14
ATOM     14  C   UNL     1       3.327   4.655  19.444  0.00  0.00    +0.000 C 
ATOM     15  C   UNL     1       2.422   4.836  20.691  0.00  0.00    +0.000 C 
ATOM     16  C   UNL     1       1.585   3.570  20.944  0.00  0.00    +0.000 C 
ATOM     17  C   UNL     1       0.694   3.296  19.725  0.00  0.00    +0.000 C 
ATOM     18  C   UNL     1       1.563   3.095  18.473  0.00  0.00    +0.000 C 
ATOM     19  C   UNL     1       2.504   1.901  18.697  0.00  0.00    +0.000 C 
ATOM     20  C   UNL     1       3.404   2.162  19.913  0.00  0.00    +0.000 C 
ATOM     21  C   UNL     1       2.533   2.379  21.161  0.00  0.00    +0.000 C 
ATOM     22  C   UNL     1       4.242   3.425  19.663  0.00  0.00    +0.000 C 
ATOM     23  C   UNL     1       2.402   4.361  18.229  0.00  0.00    +0.000 C 
ENDBRANCH  13  14
ENDBRANCH   1  13
TORSDOF 8
ENDMDL
MODEL 5
REMARK VINA RESULT:      -6.9      5.010      6.379
REMARK  Name = 
REMARK  8 active torsions:
REMARK  status: ('A' for Active; 'I' for Inactive)
REMARK    1  A    between atoms: C_2  and  C_3
REMARK    2  A    between atoms: C_3  and  S_4
REMARK    3  A    between atoms: N_5  and  C_6
REMARK    4  A    between atoms: C_6  and  C_7
REMARK    5  A    between atoms: C_7  and  C_8
REMARK    6  A    between atoms: C_8  and  C_9
REMARK    7  A    between atoms: C_9  and  C_10
REMARK    8  A    between atoms: C_10  and  C_11
REMARK                            x       y       z     vdW  Elec       q    Type
REMARK                         _______ _______ _______ _____ _____    ______ ____
ROOT
ATOM      1  C   UNL     1       2.578   7.414  18.932  0.00  0.00    +0.000 C 
ENDROOT
BRANCH   1   2
ATOM      2  C   UNL     1       1.874   8.170  17.799  0.00  0.00    +0.000 C 
BRANCH   2   3
ATOM      3  C   UNL     1       1.904   9.698  17.918  0.00  0.00    +0.000 C 
BRANCH   3   4
ATOM      4  C   UNL     1       0.898  10.214  18.941  0.00  0.00    +0.000 C 
BRANCH   4   7
ATOM      5  N   UNL     1      -1.026  12.992  17.656  0.00  0.00    +0.000 NA
ATOM      6  C   UNL     1      -0.833  11.846  18.233  0.00  0.00    +0.000 C 
ATOM      7  N   UNL     1       0.447  11.546  18.610  0.00  0.00    +0.000 N 
ATOM      8  H   UNL     1      -2.023  13.076  17.412  0.00  0.00    +0.000 HD
ATOM      9  H   UNL     1       1.129  12.180  18.196  0.00  0.00    +0.000 HD
BRANCH   6  10
ATOM     10  C   UNL     1      -1.959  10.836  18.458  0.00  0.00    +0.000 C 
BRANCH  10  11
ATOM     11  S   UNL     1      -2.460   9.990  16.938  0.00  0.00    +0.000 S 
ATOM     12  H   UNL     1      -1.219   9.787  16.472  0.00  0.00    +0.000 HD
ENDBRANCH  10  11
ENDBRANCH   6  10
ENDBRANCH   4   7
ENDBRANCH   3   4
ENDBRANCH   2   3
ENDBRANCH   1   2
BRANCH   1  13
ATOM     13  C   UNL     1       3.354   6.179  18.454  0.00  0.00    +0.000 C 
BRANCH  13  14
ATOM     14  C   UNL     1       2.810   4.825  18.971  0.00  0.00    +0.000 C 
ATOM     15  C   UNL     1       2.075   4.043  17.851  0.00  0.00    +0.000 C 
ATOM     16  C   UNL     1       1.570   2.688  18.375  0.00  0.00    +0.000 C 
ATOM     17  C   UNL     1       2.764   1.852  18.857  0.00  0.00    +0.000 C 
ATOM     18  C   UNL     1       3.505   2.593  19.981  0.00  0.00    +0.000 C 
ATOM     19  C   UNL     1       2.540   2.830  21.154  0.00  0.00    +0.000 C 
ATOM     20  C   UNL     1       1.341   3.668  20.687  0.00  0.00    +0.000 C 
ATOM     21  C   UNL     1       0.610   2.932  19.551  0.00  0.00    +0.000 C 
ATOM     22  C   UNL     1       1.841   5.022  20.163  0.00  0.00    +0.000 C 
ATOM     23  C   UNL     1       4.001   3.950  19.453  0.00  0.00    +0.000 C 
ENDBRANCH  13  14
ENDBRANCH   1  13
TORSDOF 8
ENDMDL
MODEL 6
REMARK VINA RESULT:      -6.8      5.166      6.249
REMARK  Name = 
REMARK  8 active torsions:
REMARK  status: ('A' for Active; 'I' for Inactive)
REMARK    1  A    between atoms: C_2  and  C_3
REMARK    2  A    between atoms: C_3  and  S_4
REMARK    3  A    between atoms: N_5  and  C_6
REMARK    4  A    between atoms: C_6  and  C_7
REMARK    5  A    between atoms: C_7  and  C_8
REMARK    6  A    between atoms: C_8  and  C_9
REMARK    7  A    between atoms: C_9  and  C_10
REMARK    8  A    between atoms: C_10  and  C_11
REMARK                            x       y       z     vdW  Elec       q    Type
REMARK                         _______ _______ _______ _____ _____    ______ ____
ROOT
ATOM      1  C   UNL     1       2.547   7.468  18.950  0.00  0.00    +0.000 C 
ENDROOT
BRANCH   1   2
ATOM      2  C   UNL     1       1.913   8.193  17.756  0.00  0.00    +0.000 C 
BRANCH   2   3
ATOM      3  C   UNL     1       1.839   9.719  17.886  0.00  0.00    +0.000 C 
BRANCH   3   4
ATOM      4  C   UNL     1       0.847  10.158  18.957  0.00  0.00    +0.000 C 
BRANCH   4   7
ATOM      5  N   UNL     1      -1.400  12.545  17.434  0.00  0.00    +0.000 NA
ATOM      6  C   UNL     1      -1.059  11.432  18.009  0.00  0.00    +0.000 C 
ATOM      7  N   UNL     1       0.180  11.384  18.586  0.00  0.00    +0.000 N 
ATOM      8  H   UNL     1      -2.340  12.434  17.030  0.00  0.00    +0.000 HD
ATOM      9  H   UNL     1       0.766  12.168  18.305  0.00  0.00    +0.000 HD
BRANCH   6  10
ATOM     10  C   UNL     1      -1.964  10.200  18.020  0.00  0.00    +0.000 C 
BRANCH  10  11
ATOM     11  S   UNL     1      -3.696  10.595  17.675  0.00  0.00    +0.000 S 
ATOM     12  H   UNL     1      -4.196  10.029  18.783  0.00  0.00    +0.000 HD
ENDBRANCH  10  11
ENDBRANCH   6  10
ENDBRANCH   4   7
ENDBRANCH   3   4
ENDBRANCH   2   3
ENDBRANCH   1   2
BRANCH   1  13
ATOM     13  C   UNL     1       3.410   6.265  18.545  0.00  0.00    +0.000 C 
BRANCH  13  14
ATOM     14  C   UNL     1       2.885   4.892  19.031  0.00  0.00    +0.000 C 
ATOM     15  C   UNL     1       4.049   3.939  19.408  0.00  0.00    +0.000 C 
ATOM     16  C   UNL     1       3.507   2.593  19.918  0.00  0.00    +0.000 C 
ATOM     17  C   UNL     1       2.644   2.832  21.165  0.00  0.00    +0.000 C 
ATOM     18  C   UNL     1       1.469   3.761  20.821  0.00  0.00    +0.000 C 
ATOM     19  C   UNL     1       0.613   3.109  19.723  0.00  0.00    +0.000 C 
ATOM     20  C   UNL     1       1.464   2.866  18.468  0.00  0.00    +0.000 C 
ATOM     21  C   UNL     1       2.648   1.949  18.818  0.00  0.00    +0.000 C 
ATOM     22  C   UNL     1       2.006   4.208  17.955  0.00  0.00    +0.000 C 
ATOM     23  C   UNL     1       2.017   5.102  20.304  0.00  0.00    +0.000 C 
ENDBRANCH  13  14
ENDBRANCH   1  13
TORSDOF 8
ENDMDL
MODEL 7
REMARK VINA RESULT:      -6.8      1.715      2.575
REMARK  Name = 
REMARK  8 active torsions:
REMARK  status: ('A' for Active; 'I' for Inactive)
REMARK    1  A    between atoms: C_2  and  C_3
REMARK    2  A    between atoms: C_3  and  S_4
REMARK    3  A    between atoms: N_5  and  C_6
REMARK    4  A    between atoms: C_6  and  C_7
REMARK    5  A    between atoms: C_7  and  C_8
REMARK    6  A    between atoms: C_8  and  C_9
REMARK    7  A    between atoms: C_9  and  C_10
REMARK    8  A    between atoms: C_10  and  C_11
REMARK                            x       y       z     vdW  Elec       q    Type
REMARK                         _______ _______ _______ _____ _____    ______ ____
ROOT
ATOM      1  C   UNL     1       2.161   7.254  18.216  0.00  0.00    +0.000 C 
ENDROOT
BRANCH   1   2
ATOM      2  C   UNL     1       3.307   7.883  17.415  0.00  0.00    +0.000 C 
BRANCH   2   3
ATOM      3  C   UNL     1       4.606   7.070  17.390  0.00  0.00    +0.000 C 
BRANCH   3   4
ATOM      4  C   UNL     1       4.489   5.825  16.516  0.00  0.00    +0.000 C 
BRANCH   4   7
ATOM      5  N   UNL     1       7.703   5.588  14.880  0.00  0.00    +0.000 NA
ATOM      6  C   UNL     1       6.778   5.273  15.733  0.00  0.00    +0.000 C 
ATOM      7  N   UNL     1       5.529   5.786  15.514  0.00  0.00    +0.000 N 
ATOM      8  H   UNL     1       8.588   5.152  15.175  0.00  0.00    +0.000 HD
ATOM      9  H   UNL     1       5.535   6.529  14.818  0.00  0.00    +0.000 HD
BRANCH   6  10
ATOM     10  C   UNL     1       7.050   4.402  16.961  0.00  0.00    +0.000 C 
BRANCH  10  11
ATOM     11  S   UNL     1       7.593   5.361  18.397  0.00  0.00    +0.000 S 
ATOM     12  H   UNL     1       7.406   4.385  19.298  0.00  0.00    +0.000 HD
ENDBRANCH  10  11
ENDBRANCH   6  10
ENDBRANCH   4   7
ENDBRANCH   3   4
ENDBRANCH   2   3
ENDBRANCH   1   2
BRANCH   1  13
ATOM     13  C   UNL     1       2.619   6.591  19.523  0.00  0.00    +0.000 C 
BRANCH  13  14
ATOM     14  C   UNL     1       2.412   5.058  19.586  0.00  0.00    +0.000 C 
ATOM     15  C   UNL     1       1.384   4.668  20.680  0.00  0.00    +0.000 C 
ATOM     16  C   UNL     1       1.168   3.146  20.705  0.00  0.00    +0.000 C 
ATOM     17  C   UNL     1       0.633   2.685  19.342  0.00  0.00    +0.000 C 
ATOM     18  C   UNL     1       1.638   3.042  18.236  0.00  0.00    +0.000 C 
ATOM     19  C   UNL     1       2.978   2.344  18.522  0.00  0.00    +0.000 C 
ATOM     20  C   UNL     1       3.526   2.797  19.883  0.00  0.00    +0.000 C 
ATOM     21  C   UNL     1       2.512   2.453  20.987  0.00  0.00    +0.000 C 
ATOM     22  C   UNL     1       3.744   4.318  19.862  0.00  0.00    +0.000 C 
ATOM     23  C   UNL     1       1.856   4.565  18.220  0.00  0.00    +0.000 C 
ENDBRANCH  13  14
ENDBRANCH   1  13
TORSDOF 8
ENDMDL
MODEL 8
REMARK VINA RESULT:      -6.8      6.230      9.341
REMARK  Name = 
REMARK  8 active torsions:
REMARK  status: ('A' for Active; 'I' for Inactive)
REMARK    1  A    between atoms: C_2  and  C_3
REMARK    2  A    between atoms: C_3  and  S_4
REMARK    3  A    between atoms: N_5  and  C_6
REMARK    4  A    between atoms: C_6  and  C_7
REMARK    5  A    between atoms: C_7  and  C_8
REMARK    6  A    between atoms: C_8  and  C_9
REMARK    7  A    between atoms: C_9  and  C_10
REMARK    8  A    between atoms: C_10  and  C_11
REMARK                            x       y       z     vdW  Elec       q    Type
REMARK                         _______ _______ _______ _____ _____    ______ ____
ROOT
ATOM      1  C   UNL     1       8.640   8.826  18.494  0.00  0.00    +0.000 C 
ENDROOT
BRANCH   1   2
ATOM      2  C   UNL     1       7.868   7.808  17.647  0.00  0.00    +0.000 C 
BRANCH   2   3
ATOM      3  C   UNL     1       7.346   6.586  18.411  0.00  0.00    +0.000 C 
BRANCH   3   4
ATOM      4  C   UNL     1       7.252   5.350  17.523  0.00  0.00    +0.000 C 
BRANCH   4   7
ATOM      5  N   UNL     1       5.074   3.104  19.335  0.00  0.00    +0.000 NA
ATOM      6  C   UNL     1       5.406   3.943  18.402  0.00  0.00    +0.000 C 
ATOM      7  N   UNL     1       6.738   4.215  18.255  0.00  0.00    +0.000 N 
ATOM      8  H   UNL     1       4.049   3.009  19.345  0.00  0.00    +0.000 HD
ATOM      9  H   UNL     1       7.289   3.880  19.044  0.00  0.00    +0.000 HD
BRANCH   6  10
ATOM     10  C   UNL     1       4.373   4.644  17.518  0.00  0.00    +0.000 C 
BRANCH  10  11
ATOM     11  S   UNL     1       2.716   3.934  17.674  0.00  0.00    +0.000 S 
ATOM     12  H   UNL     1       3.042   2.712  17.227  0.00  0.00    +0.000 HD
ENDBRANCH  10  11
ENDBRANCH   6  10
ENDBRANCH   4   7
ENDBRANCH   3   4
ENDBRANCH   2   3
ENDBRANCH   1   2
BRANCH   1  13
ATOM     13  C   UNL     1       8.472  10.274  18.013  0.00  0.00    +0.000 C 
BRANCH  13  14
ATOM     14  C   UNL     1       9.498  11.278  18.594  0.00  0.00    +0.000 C 
ATOM     15  C   UNL     1      10.836  11.239  17.811  0.00  0.00    +0.000 C 
ATOM     16  C   UNL     1      11.830  12.265  18.381  0.00  0.00    +0.000 C 
ATOM     17  C   UNL     1      11.232  13.674  18.262  0.00  0.00    +0.000 C 
ATOM     18  C   UNL     1       9.910  13.751  19.042  0.00  0.00    +0.000 C 
ATOM     19  C   UNL     1      10.176  13.432  20.522  0.00  0.00    +0.000 C 
ATOM     20  C   UNL     1      10.773  12.024  20.657  0.00  0.00    +0.000 C 
ATOM     21  C   UNL     1      12.087  11.944  19.863  0.00  0.00    +0.000 C 
ATOM     22  C   UNL     1       9.783  10.996  20.089  0.00  0.00    +0.000 C 
ATOM     23  C   UNL     1       8.923  12.718  18.472  0.00  0.00    +0.000 C 
ENDBRANCH  13  14
ENDBRANCH   1  13
TORSDOF 8
ENDMDL
MODEL 9
REMARK VINA RESULT:      -6.7      5.435      6.550
REMARK  Name = 
REMARK  8 active torsions:
REMARK  status: ('A' for Active; 'I' for Inactive)
REMARK    1  A    between atoms: C_2  and  C_3
REMARK    2  A    between atoms: C_3  and  S_4
REMARK    3  A    between atoms: N_5  and  C_6
REMARK    4  A    between atoms: C_6  and  C_7
REMARK    5  A    between atoms: C_7  and  C_8
REMARK    6  A    between atoms: C_8  and  C_9
REMARK    7  A    between atoms: C_9  and  C_10
REMARK    8  A    between atoms: C_10  and  C_11
REMARK                            x       y       z     vdW  Elec       q    Type
REMARK                         _______ _______ _______ _____ _____    ______ ____
ROOT
ATOM      1  C   UNL     1       2.592   7.347  18.893  0.00  0.00    +0.000 C 
ENDROOT
BRANCH   1   2
ATOM      2  C   UNL     1       2.511   8.465  17.847  0.00  0.00    +0.000 C 
BRANCH   2   3
ATOM      3  C   UNL     1       1.177   9.218  17.801  0.00  0.00    +0.000 C 
BRANCH   3   4
ATOM      4  C   UNL     1       1.089  10.297  18.875  0.00  0.00    +0.000 C 
BRANCH   4   7
ATOM      5  N   UNL     1      -1.001  13.032  17.768  0.00  0.00    +0.000 NA
ATOM      6  C   UNL     1      -0.600  12.089  18.565  0.00  0.00    +0.000 C 
ATOM      7  N   UNL     1       0.635  11.553  18.323  0.00  0.00    +0.000 N 
ATOM      8  H   UNL     1      -1.945  13.326  18.053  0.00  0.00    +0.000 HD
ATOM      9  H   UNL     1       0.998  11.820  17.410  0.00  0.00    +0.000 HD
BRANCH   6  10
ATOM     10  C   UNL     1      -1.465  11.552  19.707  0.00  0.00    +0.000 C 
BRANCH  10  11
ATOM     11  S   UNL     1      -2.734  12.726  20.241  0.00  0.00    +0.000 S 
ATOM     12  H   UNL     1      -1.932  13.451  21.036  0.00  0.00    +0.000 HD
ENDBRANCH  10  11
ENDBRANCH   6  10
ENDBRANCH   4   7
ENDBRANCH   3   4
ENDBRANCH   2   3
ENDBRANCH   1   2
BRANCH   1  13
ATOM     13  C   UNL     1       3.368   6.113  18.411  0.00  0.00    +0.000 C 
BRANCH  13  14
ATOM     14  C   UNL     1       2.848   4.761  18.956  0.00  0.00    +0.000 C 
ATOM     15  C   UNL     1       4.014   3.853  19.428  0.00  0.00    +0.000 C 
ATOM     16  C   UNL     1       3.476   2.528  19.996  0.00  0.00    +0.000 C 
ATOM     17  C   UNL     1       2.564   2.821  21.195  0.00  0.00    +0.000 C 
ATOM     18  C   UNL     1       1.387   3.706  20.755  0.00  0.00    +0.000 C 
ATOM     19  C   UNL     1       0.583   2.977  19.666  0.00  0.00    +0.000 C 
ATOM     20  C   UNL     1       1.483   2.679  18.459  0.00  0.00    +0.000 C 
ATOM     21  C   UNL     1       2.669   1.807  18.904  0.00  0.00    +0.000 C 
ATOM     22  C   UNL     1       2.022   4.000  17.889  0.00  0.00    +0.000 C 
ATOM     23  C   UNL     1       1.931   5.026  20.182  0.00  0.00    +0.000 C 
ENDBRANCH  13  14
ENDBRANCH   1  13
TORSDOF 8
ENDMDL
