MODEL 1
REMARK VINA RESULT:      -7.6      0.000      0.000
REMARK  Name = 
REMARK  13 active torsions:
REMARK  status: ('A' for Active; 'I' for Inactive)
REMARK    1  A    between atoms: C_1  and  C_2
REMARK    2  A    between atoms: C_2  and  C_3
REMARK    3  A    between atoms: C_3  and  C_4
REMARK    4  A    between atoms: C_4  and  O_5
REMARK    5  A    between atoms: C_4  and  C_18
REMARK    6  A    between atoms: O_5  and  C_6
REMARK    7  A    between atoms: N_9  and  C_10
REMARK    8  A    between atoms: C_13  and  C_14
REMARK    9  A    between atoms: C_21  and  C_22
REMARK   10  A    between atoms: N_24  and  C_25
REMARK   11  A    between atoms: C_25  and  C_26
REMARK   12  A    between atoms: C_26  and  C_27
REMARK   13  A    between atoms: C_27  and  O_29
REMARK                            x       y       z     vdW  Elec       q    Type
REMARK                         _______ _______ _______ _____ _____    ______ ____
ROOT
ATOM      1  C   UNL     1       3.884   5.594  19.009  0.00  0.00    +0.000 C 
ENDROOT
BRANCH   1   2
ATOM      2  C   UNL     1       4.463   5.389  17.603  0.00  0.00    +0.000 A 
ATOM      3  C   UNL     1       4.597   4.120  17.016  0.00  0.00    +0.000 A 
ATOM      4  C   UNL     1       5.287   3.949  15.807  0.00  0.00    +0.000 A 
ATOM      5  C   UNL     1       5.890   5.040  15.175  0.00  0.00    +0.000 A 
ATOM      6  C   UNL     1       5.648   6.320  15.675  0.00  0.00    +0.000 A 
ATOM      7  C   UNL     1       4.898   6.490  16.845  0.00  0.00    +0.000 A 
BRANCH   5   8
ATOM      8  C   UNL     1       6.791   4.887  13.988  0.00  0.00    +0.000 C 
ATOM      9  O   UNL     1       7.854   5.494  13.922  0.00  0.00    +0.000 OA
ATOM     10  N   UNL     1       6.383   3.995  13.015  0.00  0.00    +0.000 N 
ATOM     11  H   UNL     1       5.594   3.387  13.192  0.00  0.00    +0.000 HD
BRANCH  10  12
ATOM     12  C   UNL     1       7.155   3.763  11.808  0.00  0.00    +0.000 C 
BRANCH  12  13
ATOM     13  C   UNL     1       7.297   2.286  11.485  0.00  0.00    +0.000 C 
BRANCH  13  14
ATOM     14  C   UNL     1       5.939   1.663  11.431  0.00  0.00    +0.000 C 
ATOM     15  O   UNL     1       4.891   2.296  11.366  0.00  0.00    +0.000 OA
BRANCH  14  16
ATOM     16  O   UNL     1       5.960   0.305  11.411  0.00  0.00    +0.000 OA
ATOM     17  H   UNL     1       6.133  -0.078  10.530  0.00  0.00    +0.000 HD
ENDBRANCH  14  16
ENDBRANCH  13  14
ENDBRANCH  12  13
ENDBRANCH  10  12
ENDBRANCH   5   8
ENDBRANCH   1   2
BRANCH   1  18
ATOM     18  C   UNL     1       4.062   4.353  19.941  0.00  0.00    +0.000 C 
BRANCH  18  20
ATOM     19  C   UNL     1       2.466   2.372  19.623  0.00  0.00    +0.000 C 
ATOM     20  C   UNL     1       2.776   3.649  20.391  0.00  0.00    +0.000 C 
ENDBRANCH  18  20
ENDBRANCH   1  18
BRANCH   1  21
ATOM     21  O   UNL     1       2.449   5.807  18.979  0.00  0.00    +0.000 OA
BRANCH  21  22
ATOM     22  C   UNL     1       2.036   7.085  19.138  0.00  0.00    +0.000 A 
ATOM     23  C   UNL     1       2.159   8.131  18.212  0.00  0.00    +0.000 A 
ATOM     24  N   UNL     1       1.662   9.282  18.677  0.00  0.00    +0.000 NA
ATOM     25  N   UNL     1       1.223   8.980  19.931  0.00  0.00    +0.000 N 
ATOM     26  C   UNL     1       1.485   7.664  20.249  0.00  0.00    +0.000 A 
BRANCH  25  27
ATOM     27  C   UNL     1       0.561   9.940  20.742  0.00  0.00    +0.000 A 
ATOM     28  C   UNL     1      -0.019   9.555  21.958  0.00  0.00    +0.000 A 
ATOM     29  C   UNL     1      -0.630  10.511  22.778  0.00  0.00    +0.000 A 
ATOM     30  C   UNL     1      -0.678  11.856  22.391  0.00  0.00    +0.000 A 
ATOM     31  C   UNL     1      -1.344  12.892  23.246  0.00  0.00    +0.000 C 
ATOM     32  C   UNL     1      -0.113  12.232  21.171  0.00  0.00    +0.000 A 
ATOM     33  C   UNL     1       0.505  11.286  20.352  0.00  0.00    +0.000 A 
ENDBRANCH  25  27
ENDBRANCH  21  22
ENDBRANCH   1  21
TORSDOF 11
ENDMDL
MODEL 2
REMARK VINA RESULT:      -7.6      4.615      6.841
REMARK  Name = 
REMARK  13 active torsions:
REMARK  status: ('A' for Active; 'I' for Inactive)
REMARK    1  A    between atoms: C_1  and  C_2
REMARK    2  A    between atoms: C_2  and  C_3
REMARK    3  A    between atoms: C_3  and  C_4
REMARK    4  A    between atoms: C_4  and  O_5
REMARK    5  A    between atoms: C_4  and  C_18
REMARK    6  A    between atoms: O_5  and  C_6
REMARK    7  A    between atoms: N_9  and  C_10
REMARK    8  A    between atoms: C_13  and  C_14
REMARK    9  A    between atoms: C_21  and  C_22
REMARK   10  A    between atoms: N_24  and  C_25
REMARK   11  A    between atoms: C_25  and  C_26
REMARK   12  A    between atoms: C_26  and  C_27
REMARK   13  A    between atoms: C_27  and  O_29
REMARK                            x       y       z     vdW  Elec       q    Type
REMARK                         _______ _______ _______ _____ _____    ______ ____
ROOT
ATOM      1  C   UNL     1       6.037   5.082  17.707  0.00  0.00    +0.000 C 
ENDROOT
BRANCH   1   2
ATOM      2  C   UNL     1       6.948   6.308  17.858  0.00  0.00    +0.000 A 
ATOM      3  C   UNL     1       7.909   6.416  18.875  0.00  0.00    +0.000 A 
ATOM      4  C   UNL     1       8.604   7.615  19.093  0.00  0.00    +0.000 A 
ATOM      5  C   UNL     1       8.324   8.746  18.319  0.00  0.00    +0.000 A 
ATOM      6  C   UNL     1       7.473   8.610  17.222  0.00  0.00    +0.000 A 
ATOM      7  C   UNL     1       6.837   7.390  16.968  0.00  0.00    +0.000 A 
BRANCH   5   8
ATOM      8  C   UNL     1       8.897  10.095  18.626  0.00  0.00    +0.000 C 
ATOM      9  O   UNL     1       8.735  11.038  17.860  0.00  0.00    +0.000 OA
ATOM     10  N   UNL     1       9.561  10.223  19.831  0.00  0.00    +0.000 N 
ATOM     11  H   UNL     1       9.518   9.473  20.509  0.00  0.00    +0.000 HD
BRANCH  10  12
ATOM     12  C   UNL     1      10.176  11.471  20.245  0.00  0.00    +0.000 C 
BRANCH  12  13
ATOM     13  C   UNL     1      11.661  11.519  19.931  0.00  0.00    +0.000 C 
BRANCH  13  14
ATOM     14  C   UNL     1      11.876  12.349  18.706  0.00  0.00    +0.000 C 
ATOM     15  O   UNL     1      12.048  13.563  18.717  0.00  0.00    +0.000 OA
BRANCH  14  16
ATOM     16  O   UNL     1      11.914  11.629  17.556  0.00  0.00    +0.000 OA
ATOM     17  H   UNL     1      11.035  11.448  17.170  0.00  0.00    +0.000 HD
ENDBRANCH  14  16
ENDBRANCH  13  14
ENDBRANCH  12  13
ENDBRANCH  10  12
ENDBRANCH   5   8
ENDBRANCH   1   2
BRANCH   1  18
ATOM     18  C   UNL     1       6.554   4.050  16.654  0.00  0.00    +0.000 C 
BRANCH  18  20
ATOM     19  C   UNL     1       6.356   4.432  14.127  0.00  0.00    +0.000 C 
ATOM     20  C   UNL     1       5.703   3.885  15.388  0.00  0.00    +0.000 C 
ENDBRANCH  18  20
ENDBRANCH   1  18
BRANCH   1  21
ATOM     21  O   UNL     1       4.717   5.442  17.227  0.00  0.00    +0.000 OA
BRANCH  21  22
ATOM     22  C   UNL     1       3.844   5.878  18.163  0.00  0.00    +0.000 A 
ATOM     23  C   UNL     1       3.338   5.147  19.248  0.00  0.00    +0.000 A 
ATOM     24  N   UNL     1       2.481   5.861  19.985  0.00  0.00    +0.000 NA
ATOM     25  N   UNL     1       2.417   7.069  19.359  0.00  0.00    +0.000 N 
ATOM     26  C   UNL     1       3.200   7.084  18.224  0.00  0.00    +0.000 A 
BRANCH  25  27
ATOM     27  C   UNL     1       1.647   8.142  19.882  0.00  0.00    +0.000 A 
ATOM     28  C   UNL     1       1.259   8.140  21.228  0.00  0.00    +0.000 A 
ATOM     29  C   UNL     1       0.540   9.222  21.753  0.00  0.00    +0.000 A 
ATOM     30  C   UNL     1       0.193  10.307  20.940  0.00  0.00    +0.000 A 
ATOM     31  C   UNL     1      -0.591  11.467  21.478  0.00  0.00    +0.000 C 
ATOM     32  C   UNL     1       0.569  10.297  19.595  0.00  0.00    +0.000 A 
ATOM     33  C   UNL     1       1.291   9.227  19.067  0.00  0.00    +0.000 A 
ENDBRANCH  25  27
ENDBRANCH  21  22
ENDBRANCH   1  21
TORSDOF 11
ENDMDL
MODEL 3
REMARK VINA RESULT:      -7.6      3.335      9.839
REMARK  Name = 
REMARK  13 active torsions:
REMARK  status: ('A' for Active; 'I' for Inactive)
REMARK    1  A    between atoms: C_1  and  C_2
REMARK    2  A    between atoms: C_2  and  C_3
REMARK    3  A    between atoms: C_3  and  C_4
REMARK    4  A    between atoms: C_4  and  O_5
REMARK    5  A    between atoms: C_4  and  C_18
REMARK    6  A    between atoms: O_5  and  C_6
REMARK    7  A    between atoms: N_9  and  C_10
REMARK    8  A    between atoms: C_13  and  C_14
REMARK    9  A    between atoms: C_21  and  C_22
REMARK   10  A    between atoms: N_24  and  C_25
REMARK   11  A    between atoms: C_25  and  C_26
REMARK   12  A    between atoms: C_26  and  C_27
REMARK   13  A    between atoms: C_27  and  O_29
REMARK                            x       y       z     vdW  Elec       q    Type
REMARK                         _______ _______ _______ _____ _____    ______ ____
ROOT
ATOM      1  C   UNL     1       2.487   5.328  19.418  0.00  0.00    +0.000 C 
ENDROOT
BRANCH   1   2
ATOM      2  C   UNL     1       2.103   6.802  19.609  0.00  0.00    +0.000 A 
ATOM      3  C   UNL     1       1.581   7.298  20.814  0.00  0.00    +0.000 A 
ATOM      4  C   UNL     1       1.079   8.605  20.903  0.00  0.00    +0.000 A 
ATOM      5  C   UNL     1       1.055   9.434  19.777  0.00  0.00    +0.000 A 
ATOM      6  C   UNL     1       1.695   8.999  18.615  0.00  0.00    +0.000 A 
ATOM      7  C   UNL     1       2.257   7.719  18.555  0.00  0.00    +0.000 A 
BRANCH   5   8
ATOM      8  C   UNL     1       0.366  10.763  19.769  0.00  0.00    +0.000 C 
ATOM      9  O   UNL     1       0.875  11.740  20.306  0.00  0.00    +0.000 OA
ATOM     10  N   UNL     1      -0.831  10.832  19.083  0.00  0.00    +0.000 N 
ATOM     11  H   UNL     1      -1.125  10.054  18.507  0.00  0.00    +0.000 HD
BRANCH  10  12
ATOM     12  C   UNL     1      -1.609  12.056  19.009  0.00  0.00    +0.000 C 
BRANCH  12  13
ATOM     13  C   UNL     1      -3.090  11.791  18.806  0.00  0.00    +0.000 C 
BRANCH  13  14
ATOM     14  C   UNL     1      -3.354  11.574  17.350  0.00  0.00    +0.000 C 
ATOM     15  O   UNL     1      -4.448  11.275  16.884  0.00  0.00    +0.000 OA
BRANCH  14  16
ATOM     16  O   UNL     1      -2.271  11.786  16.560  0.00  0.00    +0.000 OA
ATOM     17  H   UNL     1      -2.425  12.421  15.834  0.00  0.00    +0.000 HD
ENDBRANCH  14  16
ENDBRANCH  13  14
ENDBRANCH  12  13
ENDBRANCH  10  12
ENDBRANCH   5   8
ENDBRANCH   1   2
BRANCH   1  18
ATOM     18  C   UNL     1       1.587   4.342  20.231  0.00  0.00    +0.000 C 
BRANCH  18  20
ATOM     19  C   UNL     1       1.803   2.393  21.883  0.00  0.00    +0.000 C 
ATOM     20  C   UNL     1       2.183   2.959  20.522  0.00  0.00    +0.000 C 
ENDBRANCH  18  20
ENDBRANCH   1  18
BRANCH   1  21
ATOM     21  O   UNL     1       3.829   5.051  19.893  0.00  0.00    +0.000 OA
BRANCH  21  22
ATOM     22  C   UNL     1       4.790   4.977  18.945  0.00  0.00    +0.000 A 
ATOM     23  C   UNL     1       6.175   5.080  19.140  0.00  0.00    +0.000 A 
ATOM     24  N   UNL     1       6.858   4.978  17.995  0.00  0.00    +0.000 NA
ATOM     25  N   UNL     1       5.899   4.822  17.040  0.00  0.00    +0.000 N 
ATOM     26  C   UNL     1       4.635   4.866  17.589  0.00  0.00    +0.000 A 
BRANCH  25  27
ATOM     27  C   UNL     1       6.231   4.612  15.675  0.00  0.00    +0.000 A 
ATOM     28  C   UNL     1       5.383   3.860  14.851  0.00  0.00    +0.000 A 
ATOM     29  C   UNL     1       5.688   3.694  13.494  0.00  0.00    +0.000 A 
ATOM     30  C   UNL     1       6.845   4.265  12.950  0.00  0.00    +0.000 A 
ATOM     31  C   UNL     1       7.198   4.084  11.504  0.00  0.00    +0.000 C 
ATOM     32  C   UNL     1       7.695   5.000  13.778  0.00  0.00    +0.000 A 
ATOM     33  C   UNL     1       7.394   5.176  15.129  0.00  0.00    +0.000 A 
ENDBRANCH  25  27
ENDBRANCH  21  22
ENDBRANCH   1  21
TORSDOF 11
ENDMDL
MODEL 4
REMARK VINA RESULT:      -7.5      0.988      1.663
REMARK  Name = 
REMARK  13 active torsions:
REMARK  status: ('A' for Active; 'I' for Inactive)
REMARK    1  A    between atoms: C_1  and  C_2
REMARK    2  A    between atoms: C_2  and  C_3
REMARK    3  A    between atoms: C_3  and  C_4
REMARK    4  A    between atoms: C_4  and  O_5
REMARK    5  A    between atoms: C_4  and  C_18
REMARK    6  A    between atoms: O_5  and  C_6
REMARK    7  A    between atoms: N_9  and  C_10
REMARK    8  A    between atoms: C_13  and  C_14
REMARK    9  A    between atoms: C_21  and  C_22
REMARK   10  A    between atoms: N_24  and  C_25
REMARK   11  A    between atoms: C_25  and  C_26
REMARK   12  A    between atoms: C_26  and  C_27
REMARK   13  A    between atoms: C_27  and  O_29
REMARK                            x       y       z     vdW  Elec       q    Type
REMARK                         _______ _______ _______ _____ _____    ______ ____
ROOT
ATOM      1  C   UNL     1       3.375   4.729  20.040  0.00  0.00    +0.000 C 
ENDROOT
BRANCH   1   2
ATOM      2  C   UNL     1       4.314   4.613  18.833  0.00  0.00    +0.000 A 
ATOM      3  C   UNL     1       5.695   4.850  18.923  0.00  0.00    +0.000 A 
ATOM      4  C   UNL     1       6.498   4.907  17.774  0.00  0.00    +0.000 A 
ATOM      5  C   UNL     1       5.929   4.766  16.504  0.00  0.00    +0.000 A 
ATOM      6  C   UNL     1       4.586   4.396  16.412  0.00  0.00    +0.000 A 
ATOM      7  C   UNL     1       3.807   4.271  17.567  0.00  0.00    +0.000 A 
BRANCH   5   8
ATOM      8  C   UNL     1       6.702   5.002  15.243  0.00  0.00    +0.000 C 
ATOM      9  O   UNL     1       7.703   5.708  15.242  0.00  0.00    +0.000 OA
ATOM     10  N   UNL     1       6.256   4.342  14.114  0.00  0.00    +0.000 N 
ATOM     11  H   UNL     1       5.538   3.634  14.198  0.00  0.00    +0.000 HD
BRANCH  10  12
ATOM     12  C   UNL     1       6.905   4.494  12.824  0.00  0.00    +0.000 C 
BRANCH  12  13
ATOM     13  C   UNL     1       7.066   3.171  12.097  0.00  0.00    +0.000 C 
BRANCH  13  14
ATOM     14  C   UNL     1       5.715   2.645  11.732  0.00  0.00    +0.000 C 
ATOM     15  O   UNL     1       5.501   1.502  11.343  0.00  0.00    +0.000 OA
BRANCH  14  16
ATOM     16  O   UNL     1       4.711   3.540  11.915  0.00  0.00    +0.000 OA
ATOM     17  H   UNL     1       4.649   4.219  11.215  0.00  0.00    +0.000 HD
ENDBRANCH  14  16
ENDBRANCH  13  14
ENDBRANCH  12  13
ENDBRANCH  10  12
ENDBRANCH   5   8
ENDBRANCH   1   2
BRANCH   1  18
ATOM     18  C   UNL     1       3.088   3.360  20.738  0.00  0.00    +0.000 C 
BRANCH  18  20
ATOM     19  C   UNL     1       1.539   1.970  19.241  0.00  0.00    +0.000 C 
ATOM     20  C   UNL     1       1.689   2.768  20.528  0.00  0.00    +0.000 C 
ENDBRANCH  18  20
ENDBRANCH   1  18
BRANCH   1  21
ATOM     21  O   UNL     1       2.060   5.211  19.661  0.00  0.00    +0.000 OA
BRANCH  21  22
ATOM     22  C   UNL     1       1.860   6.543  19.778  0.00  0.00    +0.000 A 
ATOM     23  C   UNL     1       2.365   7.547  18.939  0.00  0.00    +0.000 A 
ATOM     24  N   UNL     1       1.997   8.770  19.332  0.00  0.00    +0.000 NA
ATOM     25  N   UNL     1       1.254   8.558  20.454  0.00  0.00    +0.000 N 
ATOM     26  C   UNL     1       1.199   7.216  20.769  0.00  0.00    +0.000 A 
BRANCH  25  27
ATOM     27  C   UNL     1       0.619   9.625  21.143  0.00  0.00    +0.000 A 
ATOM     28  C   UNL     1       0.708  10.933  20.651  0.00  0.00    +0.000 A 
ATOM     29  C   UNL     1       0.042  11.977  21.306  0.00  0.00    +0.000 A 
ATOM     30  C   UNL     1      -0.708  11.728  22.461  0.00  0.00    +0.000 A 
ATOM     31  C   UNL     1      -1.413  12.834  23.188  0.00  0.00    +0.000 C 
ATOM     32  C   UNL     1      -0.781  10.425  22.958  0.00  0.00    +0.000 A 
ATOM     33  C   UNL     1      -0.126   9.379  22.306  0.00  0.00    +0.000 A 
ENDBRANCH  25  27
ENDBRANCH  21  22
ENDBRANCH   1  21
TORSDOF 11
ENDMDL
MODEL 5
REMARK VINA RESULT:      -7.3      4.218      6.666
REMARK  Name = 
REMARK  13 active torsions:
REMARK  status: ('A' for Active; 'I' for Inactive)
REMARK    1  A    between atoms: C_1  and  C_2
REMARK    2  A    between atoms: C_2  and  C_3
REMARK    3  A    between atoms: C_3  and  C_4
REMARK    4  A    between atoms: C_4  and  O_5
REMARK    5  A    between atoms: C_4  and  C_18
REMARK    6  A    between atoms: O_5  and  C_6
REMARK    7  A    between atoms: N_9  and  C_10
REMARK    8  A    between atoms: C_13  and  C_14
REMARK    9  A    between atoms: C_21  and  C_22
REMARK   10  A    between atoms: N_24  and  C_25
REMARK   11  A    between atoms: C_25  and  C_26
REMARK   12  A    between atoms: C_26  and  C_27
REMARK   13  A    between atoms: C_27  and  O_29
REMARK                            x       y       z     vdW  Elec       q    Type
REMARK                         _______ _______ _______ _____ _____    ______ ____
ROOT
ATOM      1  C   UNL     1       0.165  10.375  19.847  0.00  0.00    +0.000 C 
ENDROOT
BRANCH   1   2
ATOM      2  C   UNL     1       1.161   9.254  19.522  0.00  0.00    +0.000 A 
ATOM      3  C   UNL     1       1.806   9.152  18.279  0.00  0.00    +0.000 A 
ATOM      4  C   UNL     1       2.574   8.025  17.950  0.00  0.00    +0.000 A 
ATOM      5  C   UNL     1       2.684   6.957  18.846  0.00  0.00    +0.000 A 
ATOM      6  C   UNL     1       2.162   7.107  20.132  0.00  0.00    +0.000 A 
ATOM      7  C   UNL     1       1.456   8.266  20.476  0.00  0.00    +0.000 A 
BRANCH   5   8
ATOM      8  C   UNL     1       3.333   5.659  18.477  0.00  0.00    +0.000 C 
ATOM      9  O   UNL     1       3.530   5.364  17.304  0.00  0.00    +0.000 OA
ATOM     10  N   UNL     1       3.739   4.853  19.524  0.00  0.00    +0.000 N 
ATOM     11  H   UNL     1       3.720   5.212  20.469  0.00  0.00    +0.000 HD
BRANCH  10  12
ATOM     12  C   UNL     1       4.368   3.563  19.306  0.00  0.00    +0.000 C 
BRANCH  12  13
ATOM     13  C   UNL     1       3.547   2.415  19.868  0.00  0.00    +0.000 C 
BRANCH  13  14
ATOM     14  C   UNL     1       2.228   2.366  19.165  0.00  0.00    +0.000 C 
ATOM     15  O   UNL     1       1.211   2.923  19.565  0.00  0.00    +0.000 OA
BRANCH  14  16
ATOM     16  O   UNL     1       2.257   1.678  17.995  0.00  0.00    +0.000 OA
ATOM     17  H   UNL     1       2.259   2.244  17.199  0.00  0.00    +0.000 HD
ENDBRANCH  14  16
ENDBRANCH  13  14
ENDBRANCH  12  13
ENDBRANCH  10  12
ENDBRANCH   5   8
ENDBRANCH   1   2
BRANCH   1  18
ATOM     18  C   UNL     1      -0.049  11.377  18.667  0.00  0.00    +0.000 C 
BRANCH  18  20
ATOM     19  C   UNL     1      -1.824  10.045  17.385  0.00  0.00    +0.000 C 
ATOM     20  C   UNL     1      -1.437  11.375  18.014  0.00  0.00    +0.000 C 
ENDBRANCH  18  20
ENDBRANCH   1  18
BRANCH   1  21
ATOM     21  O   UNL     1       0.626  11.211  20.939  0.00  0.00    +0.000 OA
BRANCH  21  22
ATOM     22  C   UNL     1      -0.312  11.980  21.534  0.00  0.00    +0.000 A 
ATOM     23  C   UNL     1      -0.160  13.302  21.977  0.00  0.00    +0.000 A 
ATOM     24  N   UNL     1      -1.276  13.781  22.538  0.00  0.00    +0.000 NA
ATOM     25  N   UNL     1      -2.160  12.747  22.472  0.00  0.00    +0.000 N 
ATOM     26  C   UNL     1      -1.581  11.629  21.910  0.00  0.00    +0.000 A 
BRANCH  25  27
ATOM     27  C   UNL     1      -3.503  12.883  22.915  0.00  0.00    +0.000 A 
ATOM     28  C   UNL     1      -3.891  12.364  24.157  0.00  0.00    +0.000 A 
ATOM     29  C   UNL     1      -5.203  12.540  24.614  0.00  0.00    +0.000 A 
ATOM     30  C   UNL     1      -6.142  13.224  23.833  0.00  0.00    +0.000 A 
ATOM     31  C   UNL     1      -7.557  13.407  24.295  0.00  0.00    +0.000 C 
ATOM     32  C   UNL     1      -5.756  13.725  22.588  0.00  0.00    +0.000 A 
ATOM     33  C   UNL     1      -4.448  13.561  22.130  0.00  0.00    +0.000 A 
ENDBRANCH  25  27
ENDBRANCH  21  22
ENDBRANCH   1  21
TORSDOF 11
ENDMDL
MODEL 6
REMARK VINA RESULT:      -7.3      3.394     10.148
REMARK  Name = 
REMARK  13 active torsions:
REMARK  status: ('A' for Active; 'I' for Inactive)
REMARK    1  A    between atoms: C_1  and  C_2
REMARK    2  A    between atoms: C_2  and  C_3
REMARK    3  A    between atoms: C_3  and  C_4
REMARK    4  A    between atoms: C_4  and  O_5
REMARK    5  A    between atoms: C_4  and  C_18
REMARK    6  A    between atoms: O_5  and  C_6
REMARK    7  A    between atoms: N_9  and  C_10
REMARK    8  A    between atoms: C_13  and  C_14
REMARK    9  A    between atoms: C_21  and  C_22
REMARK   10  A    between atoms: N_24  and  C_25
REMARK   11  A    between atoms: C_25  and  C_26
REMARK   12  A    between atoms: C_26  and  C_27
REMARK   13  A    between atoms: C_27  and  O_29
REMARK                            x       y       z     vdW  Elec       q    Type
REMARK                         _______ _______ _______ _____ _____    ______ ____
ROOT
ATOM      1  C   UNL     1       2.509   5.512  19.592  0.00  0.00    +0.000 C 
ENDROOT
BRANCH   1   2
ATOM      2  C   UNL     1       2.115   6.994  19.551  0.00  0.00    +0.000 A 
ATOM      3  C   UNL     1       1.562   7.660  20.656  0.00  0.00    +0.000 A 
ATOM      4  C   UNL     1       1.052   8.962  20.538  0.00  0.00    +0.000 A 
ATOM      5  C   UNL     1       1.052   9.613  19.301  0.00  0.00    +0.000 A 
ATOM      6  C   UNL     1       1.720   9.016  18.232  0.00  0.00    +0.000 A 
ATOM      7  C   UNL     1       2.289   7.745  18.376  0.00  0.00    +0.000 A 
BRANCH   5   8
ATOM      8  C   UNL     1       0.357  10.921  19.078  0.00  0.00    +0.000 C 
ATOM      9  O   UNL     1      -0.672  10.983  18.416  0.00  0.00    +0.000 OA
ATOM     10  N   UNL     1       0.908  12.025  19.700  0.00  0.00    +0.000 N 
ATOM     11  H   UNL     1       1.648  11.902  20.377  0.00  0.00    +0.000 HD
BRANCH  10  12
ATOM     12  C   UNL     1       0.342  13.355  19.555  0.00  0.00    +0.000 C 
BRANCH  12  13
ATOM     13  C   UNL     1       1.409  14.426  19.410  0.00  0.00    +0.000 C 
BRANCH  13  14
ATOM     14  C   UNL     1       1.920  14.796  20.766  0.00  0.00    +0.000 C 
ATOM     15  O   UNL     1       1.915  14.044  21.734  0.00  0.00    +0.000 OA
BRANCH  14  16
ATOM     16  O   UNL     1       2.445  16.046  20.830  0.00  0.00    +0.000 OA
ATOM     17  H   UNL     1       3.203  16.192  20.231  0.00  0.00    +0.000 HD
ENDBRANCH  14  16
ENDBRANCH  13  14
ENDBRANCH  12  13
ENDBRANCH  10  12
ENDBRANCH   5   8
ENDBRANCH   1   2
BRANCH   1  18
ATOM     18  C   UNL     1       1.661   4.671  20.599  0.00  0.00    +0.000 C 
BRANCH  18  20
ATOM     19  C   UNL     1       1.609   2.643  19.032  0.00  0.00    +0.000 C 
ATOM     20  C   UNL     1       0.836   3.523  20.003  0.00  0.00    +0.000 C 
ENDBRANCH  18  20
ENDBRANCH   1  18
BRANCH   1  21
ATOM     21  O   UNL     1       3.876   5.326  20.042  0.00  0.00    +0.000 OA
BRANCH  21  22
ATOM     22  C   UNL     1       4.807   5.189  19.071  0.00  0.00    +0.000 A 
ATOM     23  C   UNL     1       6.198   5.282  19.221  0.00  0.00    +0.000 A 
ATOM     24  N   UNL     1       6.845   5.112  18.063  0.00  0.00    +0.000 NA
ATOM     25  N   UNL     1       5.857   4.922  17.146  0.00  0.00    +0.000 N 
ATOM     26  C   UNL     1       4.610   5.014  17.728  0.00  0.00    +0.000 A 
BRANCH  25  27
ATOM     27  C   UNL     1       6.145   4.640  15.784  0.00  0.00    +0.000 A 
ATOM     28  C   UNL     1       5.281   3.832  15.034  0.00  0.00    +0.000 A 
ATOM     29  C   UNL     1       5.542   3.593  13.679  0.00  0.00    +0.000 A 
ATOM     30  C   UNL     1       6.671   4.146  13.063  0.00  0.00    +0.000 A 
ATOM     31  C   UNL     1       6.979   3.888  11.618  0.00  0.00    +0.000 C 
ATOM     32  C   UNL     1       7.539   4.938  13.819  0.00  0.00    +0.000 A 
ATOM     33  C   UNL     1       7.281   5.187  15.167  0.00  0.00    +0.000 A 
ENDBRANCH  25  27
ENDBRANCH  21  22
ENDBRANCH   1  21
TORSDOF 11
ENDMDL
MODEL 7
REMARK VINA RESULT:      -7.3      1.379      1.804
REMARK  Name = 
REMARK  13 active torsions:
REMARK  status: ('A' for Active; 'I' for Inactive)
REMARK    1  A    between atoms: C_1  and  C_2
REMARK    2  A    between atoms: C_2  and  C_3
REMARK    3  A    between atoms: C_3  and  C_4
REMARK    4  A    between atoms: C_4  and  O_5
REMARK    5  A    between atoms: C_4  and  C_18
REMARK    6  A    between atoms: O_5  and  C_6
REMARK    7  A    between atoms: N_9  and  C_10
REMARK    8  A    between atoms: C_13  and  C_14
REMARK    9  A    between atoms: C_21  and  C_22
REMARK   10  A    between atoms: N_24  and  C_25
REMARK   11  A    between atoms: C_25  and  C_26
REMARK   12  A    between atoms: C_26  and  C_27
REMARK   13  A    between atoms: C_27  and  O_29
REMARK                            x       y       z     vdW  Elec       q    Type
REMARK                         _______ _______ _______ _____ _____    ______ ____
ROOT
ATOM      1  C   UNL     1       3.016   4.294  19.439  0.00  0.00    +0.000 C 
ENDROOT
BRANCH   1   2
ATOM      2  C   UNL     1       4.095   4.280  18.349  0.00  0.00    +0.000 A 
ATOM      3  C   UNL     1       5.440   4.586  18.612  0.00  0.00    +0.000 A 
ATOM      4  C   UNL     1       6.367   4.735  17.571  0.00  0.00    +0.000 A 
ATOM      5  C   UNL     1       5.961   4.616  16.238  0.00  0.00    +0.000 A 
ATOM      6  C   UNL     1       4.663   4.179  15.972  0.00  0.00    +0.000 A 
ATOM      7  C   UNL     1       3.761   3.964  17.021  0.00  0.00    +0.000 A 
BRANCH   5   8
ATOM      8  C   UNL     1       6.862   4.946  15.088  0.00  0.00    +0.000 C 
ATOM      9  O   UNL     1       7.743   5.790  15.200  0.00  0.00    +0.000 OA
ATOM     10  N   UNL     1       6.677   4.214  13.931  0.00  0.00    +0.000 N 
ATOM     11  H   UNL     1       6.063   3.410  13.938  0.00  0.00    +0.000 HD
BRANCH  10  12
ATOM     12  C   UNL     1       7.472   4.442  12.737  0.00  0.00    +0.000 C 
BRANCH  12  13
ATOM     13  C   UNL     1       6.810   3.895  11.485  0.00  0.00    +0.000 C 
BRANCH  13  14
ATOM     14  C   UNL     1       5.649   3.038  11.880  0.00  0.00    +0.000 C 
ATOM     15  O   UNL     1       4.511   3.456  12.059  0.00  0.00    +0.000 OA
BRANCH  14  16
ATOM     16  O   UNL     1       5.953   1.718  11.980  0.00  0.00    +0.000 OA
ATOM     17  H   UNL     1       5.318   1.127  11.532  0.00  0.00    +0.000 HD
ENDBRANCH  14  16
ENDBRANCH  13  14
ENDBRANCH  12  13
ENDBRANCH  10  12
ENDBRANCH   5   8
ENDBRANCH   1   2
BRANCH   1  18
ATOM     18  C   UNL     1       1.562   4.382  18.873  0.00  0.00    +0.000 C 
BRANCH  18  20
ATOM     19  C   UNL     1       1.423   1.824  18.962  0.00  0.00    +0.000 C 
ATOM     20  C   UNL     1       0.677   3.145  19.074  0.00  0.00    +0.000 C 
ENDBRANCH  18  20
ENDBRANCH   1  18
BRANCH   1  21
ATOM     21  O   UNL     1       3.128   5.457  20.299  0.00  0.00    +0.000 OA
BRANCH  21  22
ATOM     22  C   UNL     1       2.614   6.608  19.811  0.00  0.00    +0.000 A 
ATOM     23  C   UNL     1       2.874   7.181  18.557  0.00  0.00    +0.000 A 
ATOM     24  N   UNL     1       2.218   8.333  18.380  0.00  0.00    +0.000 NA
ATOM     25  N   UNL     1       1.535   8.518  19.543  0.00  0.00    +0.000 N 
ATOM     26  C   UNL     1       1.799   7.507  20.444  0.00  0.00    +0.000 A 
BRANCH  25  27
ATOM     27  C   UNL     1       0.655   9.618  19.727  0.00  0.00    +0.000 A 
ATOM     28  C   UNL     1       0.781  10.441  20.853  0.00  0.00    +0.000 A 
ATOM     29  C   UNL     1      -0.057  11.552  21.008  0.00  0.00    +0.000 A 
ATOM     30  C   UNL     1      -1.033  11.847  20.049  0.00  0.00    +0.000 A 
ATOM     31  C   UNL     1      -1.952  13.022  20.206  0.00  0.00    +0.000 C 
ATOM     32  C   UNL     1      -1.166  11.015  18.936  0.00  0.00    +0.000 A 
ATOM     33  C   UNL     1      -0.330   9.910  18.771  0.00  0.00    +0.000 A 
ENDBRANCH  25  27
ENDBRANCH  21  22
ENDBRANCH   1  21
TORSDOF 11
ENDMDL
MODEL 8
REMARK VINA RESULT:      -7.3      1.529      2.061
REMARK  Name = 
REMARK  13 active torsions:
REMARK  status: ('A' for Active; 'I' for Inactive)
REMARK    1  A    between atoms: C_1  and  C_2
REMARK    2  A    between atoms: C_2  and  C_3
REMARK    3  A    between atoms: C_3  and  C_4
REMARK    4  A    between atoms: C_4  and  O_5
REMARK    5  A    between atoms: C_4  and  C_18
REMARK    6  A    between atoms: O_5  and  C_6
REMARK    7  A    between atoms: N_9  and  C_10
REMARK    8  A    between atoms: C_13  and  C_14
REMARK    9  A    between atoms: C_21  and  C_22
REMARK   10  A    between atoms: N_24  and  C_25
REMARK   11  A    between atoms: C_25  and  C_26
REMARK   12  A    between atoms: C_26  and  C_27
REMARK   13  A    between atoms: C_27  and  O_29
REMARK                            x       y       z     vdW  Elec       q    Type
REMARK                         _______ _______ _______ _____ _____    ______ ____
ROOT
ATOM      1  C   UNL     1       3.317   4.674  19.790  0.00  0.00    +0.000 C 
ENDROOT
BRANCH   1   2
ATOM      2  C   UNL     1       4.227   4.450  18.576  0.00  0.00    +0.000 A 
ATOM      3  C   UNL     1       5.575   4.840  18.558  0.00  0.00    +0.000 A 
ATOM      4  C   UNL     1       6.332   4.782  17.379  0.00  0.00    +0.000 A 
ATOM      5  C   UNL     1       5.745   4.365  16.180  0.00  0.00    +0.000 A 
ATOM      6  C   UNL     1       4.450   3.848  16.216  0.00  0.00    +0.000 A 
ATOM      7  C   UNL     1       3.723   3.844  17.412  0.00  0.00    +0.000 A 
BRANCH   5   8
ATOM      8  C   UNL     1       6.450   4.459  14.862  0.00  0.00    +0.000 C 
ATOM      9  O   UNL     1       7.378   5.242  14.698  0.00  0.00    +0.000 OA
ATOM     10  N   UNL     1       6.033   3.585  13.876  0.00  0.00    +0.000 N 
ATOM     11  H   UNL     1       5.390   2.839  14.107  0.00  0.00    +0.000 HD
BRANCH  10  12
ATOM     12  C   UNL     1       6.621   3.581  12.549  0.00  0.00    +0.000 C 
BRANCH  12  13
ATOM     13  C   UNL     1       5.856   2.698  11.579  0.00  0.00    +0.000 C 
BRANCH  13  14
ATOM     14  C   UNL     1       6.703   1.519  11.218  0.00  0.00    +0.000 C 
ATOM     15  O   UNL     1       7.856   1.597  10.807  0.00  0.00    +0.000 OA
BRANCH  14  16
ATOM     16  O   UNL     1       6.096   0.324  11.431  0.00  0.00    +0.000 OA
ATOM     17  H   UNL     1       6.667  -0.343  11.860  0.00  0.00    +0.000 HD
ENDBRANCH  14  16
ENDBRANCH  13  14
ENDBRANCH  12  13
ENDBRANCH  10  12
ENDBRANCH   5   8
ENDBRANCH   1   2
BRANCH   1  18
ATOM     18  C   UNL     1       1.795   4.557  19.457  0.00  0.00    +0.000 C 
BRANCH  18  20
ATOM     19  C   UNL     1       0.703   2.356  18.725  0.00  0.00    +0.000 C 
ATOM     20  C   UNL     1       1.101   3.258  19.885  0.00  0.00    +0.000 C 
ENDBRANCH  18  20
ENDBRANCH   1  18
BRANCH   1  21
ATOM     21  O   UNL     1       3.455   6.012  20.333  0.00  0.00    +0.000 OA
BRANCH  21  22
ATOM     22  C   UNL     1       2.748   6.981  19.711  0.00  0.00    +0.000 A 
ATOM     23  C   UNL     1       2.824   7.342  18.357  0.00  0.00    +0.000 A 
ATOM     24  N   UNL     1       2.002   8.351  18.054  0.00  0.00    +0.000 NA
ATOM     25  N   UNL     1       1.394   8.661  19.233  0.00  0.00    +0.000 N 
ATOM     26  C   UNL     1       1.868   7.873  20.261  0.00  0.00    +0.000 A 
BRANCH  25  27
ATOM     27  C   UNL     1       0.386   9.658  19.315  0.00  0.00    +0.000 A 
ATOM     28  C   UNL     1      -0.340  10.022  18.173  0.00  0.00    +0.000 A 
ATOM     29  C   UNL     1      -1.365  10.971  18.265  0.00  0.00    +0.000 A 
ATOM     30  C   UNL     1      -1.669  11.574  19.491  0.00  0.00    +0.000 A 
ATOM     31  C   UNL     1      -2.751  12.606  19.608  0.00  0.00    +0.000 C 
ATOM     32  C   UNL     1      -0.932  11.220  20.624  0.00  0.00    +0.000 A 
ATOM     33  C   UNL     1       0.086  10.270  20.541  0.00  0.00    +0.000 A 
ENDBRANCH  25  27
ENDBRANCH  21  22
ENDBRANCH   1  21
TORSDOF 11
ENDMDL
MODEL 9
REMARK VINA RESULT:      -7.2      3.477      5.933
REMARK  Name = 
REMARK  13 active torsions:
REMARK  status: ('A' for Active; 'I' for Inactive)
REMARK    1  A    between atoms: C_1  and  C_2
REMARK    2  A    between atoms: C_2  and  C_3
REMARK    3  A    between atoms: C_3  and  C_4
REMARK    4  A    between atoms: C_4  and  O_5
REMARK    5  A    between atoms: C_4  and  C_18
REMARK    6  A    between atoms: O_5  and  C_6
REMARK    7  A    between atoms: N_9  and  C_10
REMARK    8  A    between atoms: C_13  and  C_14
REMARK    9  A    between atoms: C_21  and  C_22
REMARK   10  A    between atoms: N_24  and  C_25
REMARK   11  A    between atoms: C_25  and  C_26
REMARK   12  A    between atoms: C_26  and  C_27
REMARK   13  A    between atoms: C_27  and  O_29
REMARK                            x       y       z     vdW  Elec       q    Type
REMARK                         _______ _______ _______ _____ _____    ______ ____
ROOT
ATOM      1  C   UNL     1       1.044   9.130  20.589  0.00  0.00    +0.000 C 
ENDROOT
BRANCH   1   2
ATOM      2  C   UNL     1       1.668   7.902  19.914  0.00  0.00    +0.000 A 
ATOM      3  C   UNL     1       1.726   6.644  20.536  0.00  0.00    +0.000 A 
ATOM      4  C   UNL     1       2.454   5.588  19.970  0.00  0.00    +0.000 A 
ATOM      5  C   UNL     1       3.171   5.776  18.784  0.00  0.00    +0.000 A 
ATOM      6  C   UNL     1       3.009   6.976  18.090  0.00  0.00    +0.000 A 
ATOM      7  C   UNL     1       2.223   8.002  18.627  0.00  0.00    +0.000 A 
BRANCH   5   8
ATOM      8  C   UNL     1       4.109   4.746  18.236  0.00  0.00    +0.000 C 
ATOM      9  O   UNL     1       4.622   3.908  18.969  0.00  0.00    +0.000 OA
ATOM     10  N   UNL     1       4.314   4.763  16.870  0.00  0.00    +0.000 N 
ATOM     11  H   UNL     1       3.737   5.352  16.284  0.00  0.00    +0.000 HD
BRANCH  10  12
ATOM     12  C   UNL     1       5.209   3.829  16.212  0.00  0.00    +0.000 C 
BRANCH  12  13
ATOM     13  C   UNL     1       6.311   4.529  15.437  0.00  0.00    +0.000 C 
BRANCH  13  14
ATOM     14  C   UNL     1       7.335   5.045  16.398  0.00  0.00    +0.000 C 
ATOM     15  O   UNL     1       7.993   4.336  17.152  0.00  0.00    +0.000 OA
BRANCH  14  16
ATOM     16  O   UNL     1       7.516   6.389  16.336  0.00  0.00    +0.000 OA
ATOM     17  H   UNL     1       8.241   6.720  16.899  0.00  0.00    +0.000 HD
ENDBRANCH  14  16
ENDBRANCH  13  14
ENDBRANCH  12  13
ENDBRANCH  10  12
ENDBRANCH   5   8
ENDBRANCH   1   2
BRANCH   1  18
ATOM     18  C   UNL     1      -0.122   8.777  21.567  0.00  0.00    +0.000 C 
BRANCH  18  20
ATOM     19  C   UNL     1      -1.062  10.555  23.156  0.00  0.00    +0.000 C 
ATOM     20  C   UNL     1      -0.065   9.424  22.957  0.00  0.00    +0.000 C 
ENDBRANCH  18  20
ENDBRANCH   1  18
BRANCH   1  21
ATOM     21  O   UNL     1       0.434  10.027  19.626  0.00  0.00    +0.000 OA
BRANCH  21  22
ATOM     22  C   UNL     1       0.831  11.318  19.683  0.00  0.00    +0.000 A 
ATOM     23  C   UNL     1       0.073  12.414  20.122  0.00  0.00    +0.000 A 
ATOM     24  N   UNL     1       0.750  13.564  20.043  0.00  0.00    +0.000 NA
ATOM     25  N   UNL     1       1.961  13.211  19.529  0.00  0.00    +0.000 N 
ATOM     26  C   UNL     1       2.014  11.860  19.258  0.00  0.00    +0.000 A 
BRANCH  25  27
ATOM     27  C   UNL     1       3.003  14.160  19.350  0.00  0.00    +0.000 A 
ATOM     28  C   UNL     1       3.429  14.504  18.061  0.00  0.00    +0.000 A 
ATOM     29  C   UNL     1       4.423  15.475  17.886  0.00  0.00    +0.000 A 
ATOM     30  C   UNL     1       5.009  16.101  18.992  0.00  0.00    +0.000 A 
ATOM     31  C   UNL     1       6.088  17.130  18.826  0.00  0.00    +0.000 C 
ATOM     32  C   UNL     1       4.593  15.743  20.276  0.00  0.00    +0.000 A 
ATOM     33  C   UNL     1       3.597  14.783  20.458  0.00  0.00    +0.000 A 
ENDBRANCH  25  27
ENDBRANCH  21  22
ENDBRANCH   1  21
TORSDOF 11
ENDMDL
