MODEL 1
REMARK VINA RESULT:      -7.6      0.000      0.000
REMARK  Name = 
REMARK  5 active torsions:
REMARK  status: ('A' for Active; 'I' for Inactive)
REMARK    1  A    between atoms: C_1  and  O_2
REMARK    2  A    between atoms: O_2  and  C_3
REMARK    3  A    between atoms: C_3  and  C_4
REMARK    4  A    between atoms: C_4  and  N_5
REMARK    5  A    between atoms: N_11  and  C_12
REMARK                            x       y       z     vdW  Elec       q    Type
REMARK                         _______ _______ _______ _____ _____    ______ ____
ROOT
ATOM      1  N   UNL     1       6.107   4.601  17.799  0.00  0.00    +0.000 N 
ATOM      2  C   UNL     1       5.401   3.866  18.843  0.00  0.00    +0.000 C 
ATOM      3  C   UNL     1       3.938   4.304  18.997  0.00  0.00    +0.000 C 
ATOM      4  C   UNL     1       3.216   3.386  20.024  0.00  0.00    +0.000 C 
ATOM      5  C   UNL     1       1.825   3.901  20.422  0.00  0.00    +0.000 C 
ATOM      6  C   UNL     1       1.855   5.371  20.856  0.00  0.00    +0.000 C 
ATOM      7  N   UNL     1       2.527   6.118  19.813  0.00  0.00    +0.000 N 
ATOM      8  C   UNL     1       3.906   5.756  19.527  0.00  0.00    +0.000 C 
ATOM      9  C   UNL     1       3.283   4.170  17.606  0.00  0.00    +0.000 C 
ATOM     10  C   UNL     1       4.023   4.953  16.535  0.00  0.00    +0.000 C 
ATOM     11  C   UNL     1       5.533   4.814  16.552  0.00  0.00    +0.000 C 
ATOM     12  O   UNL     1       6.182   5.066  15.537  0.00  0.00    +0.000 OA
ENDROOT
BRANCH   7  13
ATOM     13  C   UNL     1       2.101   7.376  19.427  0.00  0.00    +0.000 A 
ATOM     14  N   UNL     1       2.213   7.711  18.107  0.00  0.00    +0.000 NA
ATOM     15  C   UNL     1       1.706   8.882  17.671  0.00  0.00    +0.000 A 
ATOM     16  N   UNL     1       1.103   9.846  18.391  0.00  0.00    +0.000 NA
ATOM     17  C   UNL     1       1.051   9.500  19.683  0.00  0.00    +0.000 A 
ATOM     18  N   UNL     1       0.528  10.239  20.702  0.00  0.00    +0.000 N 
ATOM     19  C   UNL     1       0.692   9.530  21.859  0.00  0.00    +0.000 A 
ATOM     20  N   UNL     1       1.266   8.366  21.641  0.00  0.00    +0.000 NA
ATOM     21  C   UNL     1       1.503   8.330  20.277  0.00  0.00    +0.000 A 
ATOM     22  H   UNL     1       0.107  11.154  20.601  0.00  0.00    +0.000 HD
ENDBRANCH   7  13
BRANCH   1  23
ATOM     23  C   UNL     1       7.524   4.925  17.990  0.00  0.00    +0.000 C 
BRANCH  23  24
ATOM     24  C   UNL     1       7.832   6.354  18.443  0.00  0.00    +0.000 C 
BRANCH  24  26
ATOM     25  C   UNL     1       7.950   8.602  17.764  0.00  0.00    +0.000 C 
ATOM     26  O   UNL     1       7.750   7.260  17.346  0.00  0.00    +0.000 OA
ENDBRANCH  24  26
ENDBRANCH  23  24
ENDBRANCH   1  23
TORSDOF 4
ENDMDL
MODEL 2
REMARK VINA RESULT:      -7.4      2.689      4.912
REMARK  Name = 
REMARK  5 active torsions:
REMARK  status: ('A' for Active; 'I' for Inactive)
REMARK    1  A    between atoms: C_1  and  O_2
REMARK    2  A    between atoms: O_2  and  C_3
REMARK    3  A    between atoms: C_3  and  C_4
REMARK    4  A    between atoms: C_4  and  N_5
REMARK    5  A    between atoms: N_11  and  C_12
REMARK                            x       y       z     vdW  Elec       q    Type
REMARK                         _______ _______ _______ _____ _____    ______ ____
ROOT
ATOM      1  N   UNL     1       6.660   5.312  16.164  0.00  0.00    +0.000 N 
ATOM      2  C   UNL     1       5.788   6.481  16.196  0.00  0.00    +0.000 C 
ATOM      3  C   UNL     1       4.751   6.423  17.325  0.00  0.00    +0.000 C 
ATOM      4  C   UNL     1       3.956   7.759  17.383  0.00  0.00    +0.000 C 
ATOM      5  C   UNL     1       2.738   7.698  18.317  0.00  0.00    +0.000 C 
ATOM      6  C   UNL     1       1.845   6.486  18.025  0.00  0.00    +0.000 C 
ATOM      7  N   UNL     1       2.695   5.312  18.021  0.00  0.00    +0.000 N 
ATOM      8  C   UNL     1       3.760   5.273  17.033  0.00  0.00    +0.000 C 
ATOM      9  C   UNL     1       5.532   6.208  18.639  0.00  0.00    +0.000 C 
ATOM     10  C   UNL     1       6.423   4.979  18.593  0.00  0.00    +0.000 C 
ATOM     11  C   UNL     1       7.236   4.810  17.323  0.00  0.00    +0.000 C 
ATOM     12  O   UNL     1       8.246   4.106  17.333  0.00  0.00    +0.000 OA
ENDROOT
BRANCH   7  13
ATOM     13  C   UNL     1       2.279   4.110  18.565  0.00  0.00    +0.000 A 
ATOM     14  N   UNL     1       1.942   3.104  17.705  0.00  0.00    +0.000 NA
ATOM     15  C   UNL     1       1.639   1.883  18.193  0.00  0.00    +0.000 A 
ATOM     16  N   UNL     1       1.580   1.494  19.480  0.00  0.00    +0.000 NA
ATOM     17  C   UNL     1       1.874   2.518  20.291  0.00  0.00    +0.000 A 
ATOM     18  N   UNL     1       1.895   2.496  21.654  0.00  0.00    +0.000 N 
ATOM     19  C   UNL     1       2.225   3.749  22.087  0.00  0.00    +0.000 A 
ATOM     20  N   UNL     1       2.444   4.571  21.083  0.00  0.00    +0.000 NA
ATOM     21  C   UNL     1       2.226   3.815  19.943  0.00  0.00    +0.000 A 
ATOM     22  H   UNL     1       1.688   1.687  22.225  0.00  0.00    +0.000 HD
ENDBRANCH   7  13
BRANCH   1  23
ATOM     23  C   UNL     1       7.111   4.795  14.868  0.00  0.00    +0.000 C 
BRANCH  23  24
ATOM     24  C   UNL     1       6.153   3.838  14.155  0.00  0.00    +0.000 C 
BRANCH  24  26
ATOM     25  C   UNL     1       5.409   3.225  12.011  0.00  0.00    +0.000 C 
ATOM     26  O   UNL     1       6.500   3.708  12.780  0.00  0.00    +0.000 OA
ENDBRANCH  24  26
ENDBRANCH  23  24
ENDBRANCH   1  23
TORSDOF 4
ENDMDL
MODEL 3
REMARK VINA RESULT:      -7.1      2.632      5.374
REMARK  Name = 
REMARK  5 active torsions:
REMARK  status: ('A' for Active; 'I' for Inactive)
REMARK    1  A    between atoms: C_1  and  O_2
REMARK    2  A    between atoms: O_2  and  C_3
REMARK    3  A    between atoms: C_3  and  C_4
REMARK    4  A    between atoms: C_4  and  N_5
REMARK    5  A    between atoms: N_11  and  C_12
REMARK                            x       y       z     vdW  Elec       q    Type
REMARK                         _______ _______ _______ _____ _____    ______ ____
ROOT
ATOM      1  N   UNL     1       6.602   5.157  16.084  0.00  0.00    +0.000 N 
ATOM      2  C   UNL     1       5.754   6.341  15.990  0.00  0.00    +0.000 C 
ATOM      3  C   UNL     1       4.820   6.504  17.197  0.00  0.00    +0.000 C 
ATOM      4  C   UNL     1       4.053   7.854  17.094  0.00  0.00    +0.000 C 
ATOM      5  C   UNL     1       2.922   7.986  18.125  0.00  0.00    +0.000 C 
ATOM      6  C   UNL     1       1.989   6.770  18.120  0.00  0.00    +0.000 C 
ATOM      7  N   UNL     1       2.817   5.587  18.244  0.00  0.00    +0.000 N 
ATOM      8  C   UNL     1       3.790   5.351  17.190  0.00  0.00    +0.000 C 
ATOM      9  C   UNL     1       5.711   6.490  18.457  0.00  0.00    +0.000 C 
ATOM     10  C   UNL     1       6.576   5.244  18.545  0.00  0.00    +0.000 C 
ATOM     11  C   UNL     1       7.271   4.840  17.258  0.00  0.00    +0.000 C 
ATOM     12  O   UNL     1       8.267   4.118  17.302  0.00  0.00    +0.000 OA
ENDROOT
BRANCH   7  13
ATOM     13  C   UNL     1       2.433   4.507  19.017  0.00  0.00    +0.000 A 
ATOM     14  N   UNL     1       1.584   4.740  20.062  0.00  0.00    +0.000 NA
ATOM     15  C   UNL     1       1.098   3.701  20.771  0.00  0.00    +0.000 A 
ATOM     16  N   UNL     1       1.369   2.391  20.617  0.00  0.00    +0.000 NA
ATOM     17  C   UNL     1       2.236   2.209  19.614  0.00  0.00    +0.000 A 
ATOM     18  N   UNL     1       2.748   1.019  19.188  0.00  0.00    +0.000 N 
ATOM     19  C   UNL     1       3.606   1.279  18.157  0.00  0.00    +0.000 A 
ATOM     20  N   UNL     1       3.656   2.563  17.875  0.00  0.00    +0.000 NA
ATOM     21  C   UNL     1       2.803   3.166  18.784  0.00  0.00    +0.000 A 
ATOM     22  H   UNL     1       2.528   0.115  19.587  0.00  0.00    +0.000 HD
ENDBRANCH   7  13
BRANCH   1  23
ATOM     23  C   UNL     1       6.928   4.417  14.862  0.00  0.00    +0.000 C 
BRANCH  23  24
ATOM     24  C   UNL     1       5.754   4.100  13.932  0.00  0.00    +0.000 C 
BRANCH  24  26
ATOM     25  C   UNL     1       5.149   3.103  11.891  0.00  0.00    +0.000 C 
ATOM     26  O   UNL     1       6.219   3.594  12.685  0.00  0.00    +0.000 OA
ENDBRANCH  24  26
ENDBRANCH  23  24
ENDBRANCH   1  23
TORSDOF 4
ENDMDL
MODEL 4
REMARK VINA RESULT:      -7.0      3.233      6.349
REMARK  Name = 
REMARK  5 active torsions:
REMARK  status: ('A' for Active; 'I' for Inactive)
REMARK    1  A    between atoms: C_1  and  O_2
REMARK    2  A    between atoms: O_2  and  C_3
REMARK    3  A    between atoms: C_3  and  C_4
REMARK    4  A    between atoms: C_4  and  N_5
REMARK    5  A    between atoms: N_11  and  C_12
REMARK                            x       y       z     vdW  Elec       q    Type
REMARK                         _______ _______ _______ _____ _____    ______ ____
ROOT
ATOM      1  N   UNL     1       1.514   3.635  20.000  0.00  0.00    +0.000 N 
ATOM      2  C   UNL     1       1.371   5.084  19.906  0.00  0.00    +0.000 C 
ATOM      3  C   UNL     1       2.202   5.694  18.769  0.00  0.00    +0.000 C 
ATOM      4  C   UNL     1       1.891   7.213  18.641  0.00  0.00    +0.000 C 
ATOM      5  C   UNL     1       2.853   7.950  17.697  0.00  0.00    +0.000 C 
ATOM      6  C   UNL     1       4.322   7.669  18.033  0.00  0.00    +0.000 C 
ATOM      7  N   UNL     1       4.485   6.230  18.100  0.00  0.00    +0.000 N 
ATOM      8  C   UNL     1       3.702   5.525  19.101  0.00  0.00    +0.000 C 
ATOM      9  C   UNL     1       1.799   4.955  17.475  0.00  0.00    +0.000 C 
ATOM     10  C   UNL     1       1.967   3.449  17.586  0.00  0.00    +0.000 C 
ATOM     11  C   UNL     1       1.452   2.829  18.871  0.00  0.00    +0.000 C 
ATOM     12  O   UNL     1       1.179   1.629  18.905  0.00  0.00    +0.000 OA
ENDROOT
BRANCH   7  13
ATOM     13  C   UNL     1       5.614   5.602  17.606  0.00  0.00    +0.000 A 
ATOM     14  N   UNL     1       6.694   5.488  18.434  0.00  0.00    +0.000 NA
ATOM     15  C   UNL     1       7.772   4.785  18.031  0.00  0.00    +0.000 A 
ATOM     16  N   UNL     1       7.970   4.171  16.850  0.00  0.00    +0.000 NA
ATOM     17  C   UNL     1       6.908   4.342  16.053  0.00  0.00    +0.000 A 
ATOM     18  N   UNL     1       6.764   3.876  14.779  0.00  0.00    +0.000 N 
ATOM     19  C   UNL     1       5.544   4.285  14.320  0.00  0.00    +0.000 A 
ATOM     20  N   UNL     1       4.882   4.964  15.232  0.00  0.00    +0.000 NA
ATOM     21  C   UNL     1       5.725   5.013  16.330  0.00  0.00    +0.000 A 
ATOM     22  H   UNL     1       7.456   3.335  14.276  0.00  0.00    +0.000 HD
ENDBRANCH   7  13
BRANCH   1  23
ATOM     23  C   UNL     1       1.500   3.004  21.323  0.00  0.00    +0.000 C 
BRANCH  23  24
ATOM     24  C   UNL     1       2.754   2.212  21.704  0.00  0.00    +0.000 C 
BRANCH  24  26
ATOM     25  C   UNL     1       4.618   1.846  20.320  0.00  0.00    +0.000 C 
ATOM     26  O   UNL     1       3.914   2.789  21.115  0.00  0.00    +0.000 OA
ENDBRANCH  24  26
ENDBRANCH  23  24
ENDBRANCH   1  23
TORSDOF 4
ENDMDL
MODEL 5
REMARK VINA RESULT:      -6.7      0.876      1.142
REMARK  Name = 
REMARK  5 active torsions:
REMARK  status: ('A' for Active; 'I' for Inactive)
REMARK    1  A    between atoms: C_1  and  O_2
REMARK    2  A    between atoms: O_2  and  C_3
REMARK    3  A    between atoms: C_3  and  C_4
REMARK    4  A    between atoms: C_4  and  N_5
REMARK    5  A    between atoms: N_11  and  C_12
REMARK                            x       y       z     vdW  Elec       q    Type
REMARK                         _______ _______ _______ _____ _____    ______ ____
ROOT
ATOM      1  N   UNL     1       5.952   4.379  17.730  0.00  0.00    +0.000 N 
ATOM      2  C   UNL     1       5.215   3.667  18.768  0.00  0.00    +0.000 C 
ATOM      3  C   UNL     1       3.780   4.182  18.943  0.00  0.00    +0.000 C 
ATOM      4  C   UNL     1       3.016   3.287  19.961  0.00  0.00    +0.000 C 
ATOM      5  C   UNL     1       1.659   3.871  20.380  0.00  0.00    +0.000 C 
ATOM      6  C   UNL     1       1.772   5.330  20.837  0.00  0.00    +0.000 C 
ATOM      7  N   UNL     1       2.477   6.056  19.800  0.00  0.00    +0.000 N 
ATOM      8  C   UNL     1       3.831   5.624  19.496  0.00  0.00    +0.000 C 
ATOM      9  C   UNL     1       3.107   4.107  17.556  0.00  0.00    +0.000 C 
ATOM     10  C   UNL     1       3.880   4.866  16.491  0.00  0.00    +0.000 C 
ATOM     11  C   UNL     1       5.381   4.644  16.493  0.00  0.00    +0.000 C 
ATOM     12  O   UNL     1       6.035   4.877  15.476  0.00  0.00    +0.000 OA
ENDROOT
BRANCH   7  13
ATOM     13  C   UNL     1       2.117   7.342  19.438  0.00  0.00    +0.000 A 
ATOM     14  N   UNL     1       2.290   7.710  18.134  0.00  0.00    +0.000 NA
ATOM     15  C   UNL     1       1.848   8.914  17.717  0.00  0.00    +0.000 A 
ATOM     16  N   UNL     1       1.260   9.881  18.444  0.00  0.00    +0.000 NA
ATOM     17  C   UNL     1       1.148   9.500  19.723  0.00  0.00    +0.000 A 
ATOM     18  N   UNL     1       0.619  10.230  20.746  0.00  0.00    +0.000 N 
ATOM     19  C   UNL     1       0.712   9.482  21.885  0.00  0.00    +0.000 A 
ATOM     20  N   UNL     1       1.245   8.301  21.651  0.00  0.00    +0.000 NA
ATOM     21  C   UNL     1       1.529   8.295  20.296  0.00  0.00    +0.000 A 
ATOM     22  H   UNL     1       0.240  11.165  20.658  0.00  0.00    +0.000 HD
ENDBRANCH   7  13
BRANCH   1  23
ATOM     23  C   UNL     1       7.385   4.622  17.915  0.00  0.00    +0.000 C 
BRANCH  23  24
ATOM     24  C   UNL     1       7.760   5.890  18.687  0.00  0.00    +0.000 C 
BRANCH  24  26
ATOM     25  C   UNL     1       8.684   5.048  20.678  0.00  0.00    +0.000 C 
ATOM     26  O   UNL     1       7.572   5.703  20.086  0.00  0.00    +0.000 OA
ENDBRANCH  24  26
ENDBRANCH  23  24
ENDBRANCH   1  23
TORSDOF 4
ENDMDL
MODEL 6
REMARK VINA RESULT:      -6.6      0.882      1.941
REMARK  Name = 
REMARK  5 active torsions:
REMARK  status: ('A' for Active; 'I' for Inactive)
REMARK    1  A    between atoms: C_1  and  O_2
REMARK    2  A    between atoms: O_2  and  C_3
REMARK    3  A    between atoms: C_3  and  C_4
REMARK    4  A    between atoms: C_4  and  N_5
REMARK    5  A    between atoms: N_11  and  C_12
REMARK                            x       y       z     vdW  Elec       q    Type
REMARK                         _______ _______ _______ _____ _____    ______ ____
ROOT
ATOM      1  N   UNL     1       5.905   4.562  17.664  0.00  0.00    +0.000 N 
ATOM      2  C   UNL     1       5.425   3.608  18.658  0.00  0.00    +0.000 C 
ATOM      3  C   UNL     1       3.969   3.858  19.073  0.00  0.00    +0.000 C 
ATOM      4  C   UNL     1       3.486   2.724  20.022  0.00  0.00    +0.000 C 
ATOM      5  C   UNL     1       2.130   3.021  20.680  0.00  0.00    +0.000 C 
ATOM      6  C   UNL     1       2.098   4.404  21.340  0.00  0.00    +0.000 C 
ATOM      7  N   UNL     1       2.543   5.367  20.353  0.00  0.00    +0.000 N 
ATOM      8  C   UNL     1       3.891   5.202  19.833  0.00  0.00    +0.000 C 
ATOM      9  C   UNL     1       3.130   3.864  17.778  0.00  0.00    +0.000 C 
ATOM     10  C   UNL     1       3.634   4.873  16.760  0.00  0.00    +0.000 C 
ATOM     11  C   UNL     1       5.137   4.897  16.556  0.00  0.00    +0.000 C 
ATOM     12  O   UNL     1       5.606   5.365  15.519  0.00  0.00    +0.000 OA
ENDROOT
BRANCH   7  13
ATOM     13  C   UNL     1       1.959   6.615  20.237  0.00  0.00    +0.000 A 
ATOM     14  N   UNL     1       1.139   7.032  21.248  0.00  0.00    +0.000 NA
ATOM     15  C   UNL     1       0.639   8.284  21.227  0.00  0.00    +0.000 A 
ATOM     16  N   UNL     1       0.807   9.231  20.285  0.00  0.00    +0.000 NA
ATOM     17  C   UNL     1       1.580   8.770  19.294  0.00  0.00    +0.000 A 
ATOM     18  N   UNL     1       1.945   9.445  18.167  0.00  0.00    +0.000 N 
ATOM     19  C   UNL     1       2.718   8.609  17.411  0.00  0.00    +0.000 A 
ATOM     20  N   UNL     1       2.894   7.444  17.997  0.00  0.00    +0.000 NA
ATOM     21  C   UNL     1       2.183   7.525  19.183  0.00  0.00    +0.000 A 
ATOM     22  H   UNL     1       1.672  10.394  17.943  0.00  0.00    +0.000 HD
ENDBRANCH   7  13
BRANCH   1  23
ATOM     23  C   UNL     1       7.301   5.004  17.718  0.00  0.00    +0.000 C 
BRANCH  23  24
ATOM     24  C   UNL     1       7.731   5.725  18.998  0.00  0.00    +0.000 C 
BRANCH  24  26
ATOM     25  C   UNL     1       7.612   7.584  17.564  0.00  0.00    +0.000 C 
ATOM     26  O   UNL     1       8.249   7.018  18.700  0.00  0.00    +0.000 OA
ENDBRANCH  24  26
ENDBRANCH  23  24
ENDBRANCH   1  23
TORSDOF 4
ENDMDL
MODEL 7
REMARK VINA RESULT:      -6.6      3.141      6.134
REMARK  Name = 
REMARK  5 active torsions:
REMARK  status: ('A' for Active; 'I' for Inactive)
REMARK    1  A    between atoms: C_1  and  O_2
REMARK    2  A    between atoms: O_2  and  C_3
REMARK    3  A    between atoms: C_3  and  C_4
REMARK    4  A    between atoms: C_4  and  N_5
REMARK    5  A    between atoms: N_11  and  C_12
REMARK                            x       y       z     vdW  Elec       q    Type
REMARK                         _______ _______ _______ _____ _____    ______ ____
ROOT
ATOM      1  N   UNL     1       1.352   3.780  20.054  0.00  0.00    +0.000 N 
ATOM      2  C   UNL     1       1.299   5.238  20.055  0.00  0.00    +0.000 C 
ATOM      3  C   UNL     1       2.010   5.864  18.847  0.00  0.00    +0.000 C 
ATOM      4  C   UNL     1       1.791   7.404  18.843  0.00  0.00    +0.000 C 
ATOM      5  C   UNL     1       2.667   8.136  17.815  0.00  0.00    +0.000 C 
ATOM      6  C   UNL     1       4.144   7.746  17.931  0.00  0.00    +0.000 C 
ATOM      7  N   UNL     1       4.215   6.299  17.900  0.00  0.00    +0.000 N 
ATOM      8  C   UNL     1       3.526   5.583  18.961  0.00  0.00    +0.000 C 
ATOM      9  C   UNL     1       1.387   5.231  17.585  0.00  0.00    +0.000 C 
ATOM     10  C   UNL     1       1.464   3.714  17.594  0.00  0.00    +0.000 C 
ATOM     11  C   UNL     1       1.084   3.050  18.903  0.00  0.00    +0.000 C 
ATOM     12  O   UNL     1       0.736   1.869  18.912  0.00  0.00    +0.000 OA
ENDROOT
BRANCH   7  13
ATOM     13  C   UNL     1       5.221   5.633  17.223  0.00  0.00    +0.000 A 
ATOM     14  N   UNL     1       5.043   5.394  15.890  0.00  0.00    +0.000 NA
ATOM     15  C   UNL     1       6.045   4.848  15.171  0.00  0.00    +0.000 A 
ATOM     16  N   UNL     1       7.254   4.445  15.603  0.00  0.00    +0.000 NA
ATOM     17  C   UNL     1       7.373   4.657  16.920  0.00  0.00    +0.000 A 
ATOM     18  N   UNL     1       8.451   4.355  17.698  0.00  0.00    +0.000 N 
ATOM     19  C   UNL     1       8.154   4.716  18.981  0.00  0.00    +0.000 A 
ATOM     20  N   UNL     1       6.958   5.257  19.072  0.00  0.00    +0.000 NA
ATOM     21  C   UNL     1       6.449   5.226  17.785  0.00  0.00    +0.000 A 
ATOM     22  H   UNL     1       9.307   3.929  17.365  0.00  0.00    +0.000 HD
ENDBRANCH   7  13
BRANCH   1  23
ATOM     23  C   UNL     1       1.472   3.071  21.330  0.00  0.00    +0.000 C 
BRANCH  23  24
ATOM     24  C   UNL     1       2.845   2.467  21.639  0.00  0.00    +0.000 C 
BRANCH  24  26
ATOM     25  C   UNL     1       4.824   1.708  20.622  0.00  0.00    +0.000 C 
ATOM     26  O   UNL     1       3.713   2.587  20.517  0.00  0.00    +0.000 OA
ENDBRANCH  24  26
ENDBRANCH  23  24
ENDBRANCH   1  23
TORSDOF 4
ENDMDL
MODEL 8
REMARK VINA RESULT:      -6.3      6.760      9.908
REMARK  Name = 
REMARK  5 active torsions:
REMARK  status: ('A' for Active; 'I' for Inactive)
REMARK    1  A    between atoms: C_1  and  O_2
REMARK    2  A    between atoms: O_2  and  C_3
REMARK    3  A    between atoms: C_3  and  C_4
REMARK    4  A    between atoms: C_4  and  N_5
REMARK    5  A    between atoms: N_11  and  C_12
REMARK                            x       y       z     vdW  Elec       q    Type
REMARK                         _______ _______ _______ _____ _____    ______ ____
ROOT
ATOM      1  N   UNL     1       9.789  10.863  19.439  0.00  0.00    +0.000 N 
ATOM      2  C   UNL     1      10.796  11.328  18.492  0.00  0.00    +0.000 C 
ATOM      3  C   UNL     1      10.982  12.851  18.516  0.00  0.00    +0.000 C 
ATOM      4  C   UNL     1      12.163  13.256  17.587  0.00  0.00    +0.000 C 
ATOM      5  C   UNL     1      12.261  14.771  17.360  0.00  0.00    +0.000 C 
ATOM      6  C   UNL     1      10.925  15.379  16.921  0.00  0.00    +0.000 C 
ATOM      7  N   UNL     1       9.919  14.950  17.873  0.00  0.00    +0.000 N 
ATOM      8  C   UNL     1       9.691  13.519  17.989  0.00  0.00    +0.000 C 
ATOM      9  C   UNL     1      11.293  13.241  19.976  0.00  0.00    +0.000 C 
ATOM     10  C   UNL     1      10.227  12.761  20.947  0.00  0.00    +0.000 C 
ATOM     11  C   UNL     1       9.757  11.333  20.746  0.00  0.00    +0.000 C 
ATOM     12  O   UNL     1       9.217  10.730  21.674  0.00  0.00    +0.000 OA
ENDROOT
BRANCH   7  13
ATOM     13  C   UNL     1       8.915  15.798  18.304  0.00  0.00    +0.000 A 
ATOM     14  N   UNL     1       9.282  16.996  18.848  0.00  0.00    +0.000 NA
ATOM     15  C   UNL     1       8.334  17.897  19.177  0.00  0.00    +0.000 A 
ATOM     16  N   UNL     1       6.998  17.771  19.078  0.00  0.00    +0.000 NA
ATOM     17  C   UNL     1       6.678  16.569  18.582  0.00  0.00    +0.000 A 
ATOM     18  N   UNL     1       5.422  16.088  18.362  0.00  0.00    +0.000 N 
ATOM     19  C   UNL     1       5.540  14.821  17.867  0.00  0.00    +0.000 A 
ATOM     20  N   UNL     1       6.800  14.466  17.729  0.00  0.00    +0.000 NA
ATOM     21  C   UNL     1       7.532  15.553  18.177  0.00  0.00    +0.000 A 
ATOM     22  H   UNL     1       4.565  16.593  18.550  0.00  0.00    +0.000 HD
ENDBRANCH   7  13
BRANCH   1  23
ATOM     23  C   UNL     1       8.941   9.724  19.075  0.00  0.00    +0.000 C 
BRANCH  23  24
ATOM     24  C   UNL     1       8.315   9.770  17.679  0.00  0.00    +0.000 C 
BRANCH  24  26
ATOM     25  C   UNL     1       8.051   7.493  18.201  0.00  0.00    +0.000 C 
ATOM     26  O   UNL     1       7.580   8.579  17.417  0.00  0.00    +0.000 OA
ENDBRANCH  24  26
ENDBRANCH  23  24
ENDBRANCH   1  23
TORSDOF 4
ENDMDL
MODEL 9
REMARK VINA RESULT:      -6.2      6.460      9.956
REMARK  Name = 
REMARK  5 active torsions:
REMARK  status: ('A' for Active; 'I' for Inactive)
REMARK    1  A    between atoms: C_1  and  O_2
REMARK    2  A    between atoms: O_2  and  C_3
REMARK    3  A    between atoms: C_3  and  C_4
REMARK    4  A    between atoms: C_4  and  N_5
REMARK    5  A    between atoms: N_11  and  C_12
REMARK                            x       y       z     vdW  Elec       q    Type
REMARK                         _______ _______ _______ _____ _____    ______ ____
ROOT
ATOM      1  N   UNL     1      -0.283  10.939  21.000  0.00  0.00    +0.000 N 
ATOM      2  C   UNL     1      -0.283  12.381  20.775  0.00  0.00    +0.000 C 
ATOM      3  C   UNL     1      -1.493  13.084  21.403  0.00  0.00    +0.000 C 
ATOM      4  C   UNL     1      -1.351  14.625  21.244  0.00  0.00    +0.000 C 
ATOM      5  C   UNL     1      -2.627  15.392  21.622  0.00  0.00    +0.000 C 
ATOM      6  C   UNL     1      -3.868  14.834  20.918  0.00  0.00    +0.000 C 
ATOM      7  N   UNL     1      -3.898  13.405  21.159  0.00  0.00    +0.000 N 
ATOM      8  C   UNL     1      -2.773  12.629  20.665  0.00  0.00    +0.000 C 
ATOM      9  C   UNL     1      -1.508  12.700  22.898  0.00  0.00    +0.000 C 
ATOM     10  C   UNL     1      -1.523  11.196  23.113  0.00  0.00    +0.000 C 
ATOM     11  C   UNL     1      -0.556  10.405  22.253  0.00  0.00    +0.000 C 
ATOM     12  O   UNL     1      -0.206   9.278  22.604  0.00  0.00    +0.000 OA
ENDROOT
BRANCH   7  13
ATOM     13  C   UNL     1      -5.081  12.733  21.409  0.00  0.00    +0.000 A 
ATOM     14  N   UNL     1      -5.578  12.767  22.681  0.00  0.00    +0.000 NA
ATOM     15  C   UNL     1      -6.784  12.221  22.940  0.00  0.00    +0.000 A 
ATOM     16  N   UNL     1      -7.604  11.575  22.091  0.00  0.00    +0.000 NA
ATOM     17  C   UNL     1      -7.062  11.526  20.867  0.00  0.00    +0.000 A 
ATOM     18  N   UNL     1      -7.601  10.935  19.763  0.00  0.00    +0.000 N 
ATOM     19  C   UNL     1      -6.721  11.097  18.731  0.00  0.00    +0.000 A 
ATOM     20  N   UNL     1      -5.658  11.780  19.099  0.00  0.00    +0.000 NA
ATOM     21  C   UNL     1      -5.853  12.057  20.441  0.00  0.00    +0.000 A 
ATOM     22  H   UNL     1      -8.493  10.456  19.736  0.00  0.00    +0.000 HD
ENDBRANCH   7  13
BRANCH   1  23
ATOM     23  C   UNL     1       0.227  10.054  19.949  0.00  0.00    +0.000 C 
BRANCH  23  24
ATOM     24  C   UNL     1      -0.272  10.337  18.530  0.00  0.00    +0.000 C 
BRANCH  24  26
ATOM     25  C   UNL     1      -2.228  10.752  17.295  0.00  0.00    +0.000 C 
ATOM     26  O   UNL     1      -1.673  10.106  18.431  0.00  0.00    +0.000 OA
ENDBRANCH  24  26
ENDBRANCH  23  24
ENDBRANCH   1  23
TORSDOF 4
ENDMDL
