MODEL 1
REMARK VINA RESULT:      -7.5      0.000      0.000
REMARK  Name = 
REMARK  9 active torsions:
REMARK  status: ('A' for Active; 'I' for Inactive)
REMARK    1  A    between atoms: C_1  and  C_2
REMARK    2  A    between atoms: C_2  and  C_3
REMARK    3  A    between atoms: C_4  and  C_5
REMARK    4  A    between atoms: C_5  and  C_6
REMARK    5  A    between atoms: C_7  and  O_8
REMARK    6  A    between atoms: C_12  and  C_13
REMARK    7  A    between atoms: C_18  and  C_19
REMARK    8  A    between atoms: C_22  and  O_23
REMARK    9  A    between atoms: C_24  and  C_25
REMARK                            x       y       z     vdW  Elec       q    Type
REMARK                         _______ _______ _______ _____ _____    ______ ____
ROOT
ATOM      1  C   UNL     1       1.044   9.292  20.723  0.00  0.00    +0.000 A 
ATOM      2  C   UNL     1       0.441   9.820  21.886  0.00  0.00    +0.000 A 
ATOM      3  C   UNL     1      -0.459  10.883  21.824  0.00  0.00    +0.000 A 
ATOM      4  C   UNL     1      -0.775  11.424  20.592  0.00  0.00    +0.000 A 
ATOM      5  C   UNL     1      -0.156  10.961  19.440  0.00  0.00    +0.000 A 
ATOM      6  C   UNL     1       0.769   9.907  19.472  0.00  0.00    +0.000 A 
ATOM      7  C   UNL     1       1.413   9.432  18.195  0.00  0.00    +0.000 C 
ATOM      8  O   UNL     1      -0.507  11.603  18.265  0.00  0.00    +0.000 OA
ATOM      9  C   UNL     1      -1.685  10.986  17.921  0.00  0.00    +0.000 C 
ATOM     10  O   UNL     1      -1.717  10.054  17.130  0.00  0.00    +0.000 OA
ATOM     11  C   UNL     1      -2.903  11.608  18.542  0.00  0.00    +0.000 A 
ATOM     12  C   UNL     1      -4.162  11.496  17.881  0.00  0.00    +0.000 A 
ATOM     13  C   UNL     1      -4.352  10.875  16.514  0.00  0.00    +0.000 C 
ATOM     14  C   UNL     1      -5.311  11.989  18.541  0.00  0.00    +0.000 A 
ATOM     15 CL   UNL     1      -6.897  11.827  17.840  0.00  0.00    +0.000 Cl
ATOM     16  C   UNL     1      -5.225  12.616  19.790  0.00  0.00    +0.000 A 
ATOM     17  C   UNL     1      -3.989  12.768  20.419  0.00  0.00    +0.000 A 
ATOM     18  C   UNL     1      -2.828  12.254  19.809  0.00  0.00    +0.000 A 
ATOM     19  O   UNL     1      -1.655  12.467  20.509  0.00  0.00    +0.000 OA
ENDROOT
BRANCH   2  20
ATOM     20  O   UNL     1       0.678   9.336  23.143  0.00  0.00    +0.000 OA
ATOM     21  H   UNL     1       1.630   9.225  23.290  0.00  0.00    +0.000 HD
ENDBRANCH   2  20
BRANCH  16  22
ATOM     22  O   UNL     1      -6.359  13.086  20.403  0.00  0.00    +0.000 OA
ATOM     23  H   UNL     1      -6.178  13.993  20.722  0.00  0.00    +0.000 HD
ENDBRANCH  16  22
BRANCH  17  24
ATOM     24  C   UNL     1      -3.958  13.449  21.746  0.00  0.00    +0.000 C 
ATOM     25  O   UNL     1      -4.472  13.002  22.763  0.00  0.00    +0.000 OA
ENDBRANCH  17  24
BRANCH   1  26
ATOM     26  C   UNL     1       1.967   8.092  20.801  0.00  0.00    +0.000 C 
BRANCH  26  30
ATOM     27  C   UNL     1       0.940   4.347  20.429  0.00  0.00    +0.000 C 
ATOM     28  C   UNL     1       1.760   5.605  20.371  0.00  0.00    +0.000 C 
ATOM     29  C   UNL     1       3.160   5.494  19.837  0.00  0.00    +0.000 C 
ATOM     30  C   UNL     1       1.231   6.779  20.776  0.00  0.00    +0.000 C 
ENDBRANCH  26  30
ENDBRANCH   1  26
TORSDOF 5
ENDMDL
MODEL 2
REMARK VINA RESULT:      -6.7      4.233      8.398
REMARK  Name = 
REMARK  9 active torsions:
REMARK  status: ('A' for Active; 'I' for Inactive)
REMARK    1  A    between atoms: C_1  and  C_2
REMARK    2  A    between atoms: C_2  and  C_3
REMARK    3  A    between atoms: C_4  and  C_5
REMARK    4  A    between atoms: C_5  and  C_6
REMARK    5  A    between atoms: C_7  and  O_8
REMARK    6  A    between atoms: C_12  and  C_13
REMARK    7  A    between atoms: C_18  and  C_19
REMARK    8  A    between atoms: C_22  and  O_23
REMARK    9  A    between atoms: C_24  and  C_25
REMARK                            x       y       z     vdW  Elec       q    Type
REMARK                         _______ _______ _______ _____ _____    ______ ____
ROOT
ATOM      1  C   UNL     1       0.951  10.309  20.915  0.00  0.00    +0.000 A 
ATOM      2  C   UNL     1       1.098   9.341  21.933  0.00  0.00    +0.000 A 
ATOM      3  C   UNL     1       1.319   7.997  21.637  0.00  0.00    +0.000 A 
ATOM      4  C   UNL     1       1.409   7.607  20.314  0.00  0.00    +0.000 A 
ATOM      5  C   UNL     1       1.213   8.528  19.294  0.00  0.00    +0.000 A 
ATOM      6  C   UNL     1       0.968   9.883  19.560  0.00  0.00    +0.000 A 
ATOM      7  C   UNL     1       0.768  10.849  18.422  0.00  0.00    +0.000 C 
ATOM      8  O   UNL     1       1.275   8.025  18.005  0.00  0.00    +0.000 OA
ATOM      9  C   UNL     1       2.625   7.986  17.758  0.00  0.00    +0.000 C 
ATOM     10  O   UNL     1       3.198   8.891  17.167  0.00  0.00    +0.000 OA
ATOM     11  C   UNL     1       3.291   6.718  18.209  0.00  0.00    +0.000 A 
ATOM     12  C   UNL     1       4.475   6.274  17.550  0.00  0.00    +0.000 A 
ATOM     13  C   UNL     1       5.068   6.942  16.328  0.00  0.00    +0.000 C 
ATOM     14  C   UNL     1       5.146   5.141  18.067  0.00  0.00    +0.000 A 
ATOM     15 CL   UNL     1       6.637   4.577  17.367  0.00  0.00    +0.000 Cl
ATOM     16  C   UNL     1       4.647   4.435  19.167  0.00  0.00    +0.000 A 
ATOM     17  C   UNL     1       3.465   4.840  19.789  0.00  0.00    +0.000 A 
ATOM     18  C   UNL     1       2.791   5.986  19.325  0.00  0.00    +0.000 A 
ATOM     19  O   UNL     1       1.625   6.294  20.001  0.00  0.00    +0.000 OA
ENDROOT
BRANCH   2  20
ATOM     20  O   UNL     1       1.045   9.638  23.267  0.00  0.00    +0.000 OA
ATOM     21  H   UNL     1       1.120   8.830  23.799  0.00  0.00    +0.000 HD
ENDBRANCH   2  20
BRANCH  16  22
ATOM     22  O   UNL     1       5.321   3.339  19.644  0.00  0.00    +0.000 OA
ATOM     23  H   UNL     1       4.849   2.538  19.340  0.00  0.00    +0.000 HD
ENDBRANCH  16  22
BRANCH  17  24
ATOM     24  C   UNL     1       2.979   4.046  20.954  0.00  0.00    +0.000 C 
ATOM     25  O   UNL     1       2.851   2.829  20.953  0.00  0.00    +0.000 OA
ENDBRANCH  17  24
BRANCH   1  26
ATOM     26  C   UNL     1       0.779  11.777  21.256  0.00  0.00    +0.000 C 
BRANCH  26  30
ATOM     27  C   UNL     1      -2.821  12.566  22.536  0.00  0.00    +0.000 C 
ATOM     28  C   UNL     1      -1.661  12.357  21.603  0.00  0.00    +0.000 C 
ATOM     29  C   UNL     1      -1.920  12.522  20.132  0.00  0.00    +0.000 C 
ATOM     30  C   UNL     1      -0.443  12.048  22.093  0.00  0.00    +0.000 C 
ENDBRANCH  26  30
ENDBRANCH   1  26
TORSDOF 5
ENDMDL
MODEL 3
REMARK VINA RESULT:      -6.5      4.201      8.722
REMARK  Name = 
REMARK  9 active torsions:
REMARK  status: ('A' for Active; 'I' for Inactive)
REMARK    1  A    between atoms: C_1  and  C_2
REMARK    2  A    between atoms: C_2  and  C_3
REMARK    3  A    between atoms: C_4  and  C_5
REMARK    4  A    between atoms: C_5  and  C_6
REMARK    5  A    between atoms: C_7  and  O_8
REMARK    6  A    between atoms: C_12  and  C_13
REMARK    7  A    between atoms: C_18  and  C_19
REMARK    8  A    between atoms: C_22  and  O_23
REMARK    9  A    between atoms: C_24  and  C_25
REMARK                            x       y       z     vdW  Elec       q    Type
REMARK                         _______ _______ _______ _____ _____    ______ ____
ROOT
ATOM      1  C   UNL     1       0.034   9.696  19.737  0.00  0.00    +0.000 A 
ATOM      2  C   UNL     1       0.689   9.972  18.517  0.00  0.00    +0.000 A 
ATOM      3  C   UNL     1       1.839   9.284  18.133  0.00  0.00    +0.000 A 
ATOM      4  C   UNL     1       2.340   8.299  18.964  0.00  0.00    +0.000 A 
ATOM      5  C   UNL     1       1.748   8.046  20.193  0.00  0.00    +0.000 A 
ATOM      6  C   UNL     1       0.602   8.736  20.616  0.00  0.00    +0.000 A 
ATOM      7  C   UNL     1      -0.011   8.425  21.956  0.00  0.00    +0.000 C 
ATOM      8  O   UNL     1       2.357   7.075  20.969  0.00  0.00    +0.000 OA
ATOM      9  C   UNL     1       1.854   5.908  20.448  0.00  0.00    +0.000 C 
ATOM     10  O   UNL     1       0.887   5.346  20.943  0.00  0.00    +0.000 OA
ATOM     11  C   UNL     1       2.640   5.372  19.286  0.00  0.00    +0.000 A 
ATOM     12  C   UNL     1       2.629   3.971  19.018  0.00  0.00    +0.000 A 
ATOM     13  C   UNL     1       1.956   2.943  19.903  0.00  0.00    +0.000 C 
ATOM     14  C   UNL     1       3.281   3.506  17.853  0.00  0.00    +0.000 A 
ATOM     15 CL   UNL     1       3.253   1.821  17.413  0.00  0.00    +0.000 Cl
ATOM     16  C   UNL     1       3.965   4.380  17.000  0.00  0.00    +0.000 A 
ATOM     17  C   UNL     1       4.016   5.745  17.281  0.00  0.00    +0.000 A 
ATOM     18  C   UNL     1       3.345   6.249  18.412  0.00  0.00    +0.000 A 
ATOM     19  O   UNL     1       3.467   7.612  18.607  0.00  0.00    +0.000 OA
ENDROOT
BRANCH   2  20
ATOM     20  O   UNL     1       0.254  10.913  17.625  0.00  0.00    +0.000 OA
ATOM     21  H   UNL     1      -0.714  10.910  17.572  0.00  0.00    +0.000 HD
ENDBRANCH   2  20
BRANCH  16  22
ATOM     22  O   UNL     1       4.590   3.896  15.878  0.00  0.00    +0.000 OA
ATOM     23  H   UNL     1       4.319   4.449  15.118  0.00  0.00    +0.000 HD
ENDBRANCH  16  22
BRANCH  17  24
ATOM     24  C   UNL     1       4.763   6.627  16.339  0.00  0.00    +0.000 C 
ATOM     25  O   UNL     1       5.958   6.518  16.094  0.00  0.00    +0.000 OA
ENDBRANCH  17  24
BRANCH   1  26
ATOM     26  C   UNL     1      -1.254  10.407  20.107  0.00  0.00    +0.000 C 
BRANCH  26  30
ATOM     27  C   UNL     1      -0.850  13.667  22.211  0.00  0.00    +0.000 C 
ATOM     28  C   UNL     1      -1.134  12.234  21.855  0.00  0.00    +0.000 C 
ATOM     29  C   UNL     1      -1.543  11.313  22.970  0.00  0.00    +0.000 C 
ATOM     30  C   UNL     1      -1.034  11.821  20.575  0.00  0.00    +0.000 C 
ENDBRANCH  26  30
ENDBRANCH   1  26
TORSDOF 5
ENDMDL
MODEL 4
REMARK VINA RESULT:      -6.5      4.322      9.028
REMARK  Name = 
REMARK  9 active torsions:
REMARK  status: ('A' for Active; 'I' for Inactive)
REMARK    1  A    between atoms: C_1  and  C_2
REMARK    2  A    between atoms: C_2  and  C_3
REMARK    3  A    between atoms: C_4  and  C_5
REMARK    4  A    between atoms: C_5  and  C_6
REMARK    5  A    between atoms: C_7  and  O_8
REMARK    6  A    between atoms: C_12  and  C_13
REMARK    7  A    between atoms: C_18  and  C_19
REMARK    8  A    between atoms: C_22  and  O_23
REMARK    9  A    between atoms: C_24  and  C_25
REMARK                            x       y       z     vdW  Elec       q    Type
REMARK                         _______ _______ _______ _____ _____    ______ ____
ROOT
ATOM      1  C   UNL     1       0.477   9.424  19.331  0.00  0.00    +0.000 A 
ATOM      2  C   UNL     1       1.404   9.611  18.281  0.00  0.00    +0.000 A 
ATOM      3  C   UNL     1       2.545   8.819  18.164  0.00  0.00    +0.000 A 
ATOM      4  C   UNL     1       2.766   7.819  19.094  0.00  0.00    +0.000 A 
ATOM      5  C   UNL     1       1.901   7.650  20.165  0.00  0.00    +0.000 A 
ATOM      6  C   UNL     1       0.755   8.445  20.321  0.00  0.00    +0.000 A 
ATOM      7  C   UNL     1      -0.160   8.223  21.497  0.00  0.00    +0.000 C 
ATOM      8  O   UNL     1       2.239   6.653  21.064  0.00  0.00    +0.000 OA
ATOM      9  C   UNL     1       1.762   5.519  20.456  0.00  0.00    +0.000 C 
ATOM     10  O   UNL     1       0.665   5.053  20.732  0.00  0.00    +0.000 OA
ATOM     11  C   UNL     1       2.731   4.887  19.498  0.00  0.00    +0.000 A 
ATOM     12  C   UNL     1       2.656   3.485  19.247  0.00  0.00    +0.000 A 
ATOM     13  C   UNL     1       1.719   2.541  19.972  0.00  0.00    +0.000 C 
ATOM     14  C   UNL     1       3.502   2.935  18.257  0.00  0.00    +0.000 A 
ATOM     15 CL   UNL     1       3.424   1.247  17.836  0.00  0.00    +0.000 Cl
ATOM     16  C   UNL     1       4.429   3.725  17.567  0.00  0.00    +0.000 A 
ATOM     17  C   UNL     1       4.537   5.088  17.841  0.00  0.00    +0.000 A 
ATOM     18  C   UNL     1       3.683   5.678  18.793  0.00  0.00    +0.000 A 
ATOM     19  O   UNL     1       3.879   7.031  18.998  0.00  0.00    +0.000 OA
ENDROOT
BRANCH   2  20
ATOM     20  O   UNL     1       1.257  10.560  17.307  0.00  0.00    +0.000 OA
ATOM     21  H   UNL     1       1.204  10.143  16.432  0.00  0.00    +0.000 HD
ENDBRANCH   2  20
BRANCH  16  22
ATOM     22  O   UNL     1       5.238   3.160  16.613  0.00  0.00    +0.000 OA
ATOM     23  H   UNL     1       6.145   3.109  16.977  0.00  0.00    +0.000 HD
ENDBRANCH  16  22
BRANCH  17  24
ATOM     24  C   UNL     1       5.546   5.878  17.077  0.00  0.00    +0.000 C 
ATOM     25  O   UNL     1       5.472   6.116  15.879  0.00  0.00    +0.000 OA
ENDBRANCH  17  24
BRANCH   1  26
ATOM     26  C   UNL     1      -0.793  10.250  19.403  0.00  0.00    +0.000 C 
BRANCH  26  30
ATOM     27  C   UNL     1      -3.626  10.470  16.730  0.00  0.00    +0.000 C 
ATOM     28  C   UNL     1      -2.807  10.761  17.957  0.00  0.00    +0.000 C 
ATOM     29  C   UNL     1      -3.273  11.876  18.849  0.00  0.00    +0.000 C 
ATOM     30  C   UNL     1      -1.710  10.025  18.230  0.00  0.00    +0.000 C 
ENDBRANCH  26  30
ENDBRANCH   1  26
TORSDOF 5
ENDMDL
MODEL 5
REMARK VINA RESULT:      -6.3      4.717      8.394
REMARK  Name = 
REMARK  9 active torsions:
REMARK  status: ('A' for Active; 'I' for Inactive)
REMARK    1  A    between atoms: C_1  and  C_2
REMARK    2  A    between atoms: C_2  and  C_3
REMARK    3  A    between atoms: C_4  and  C_5
REMARK    4  A    between atoms: C_5  and  C_6
REMARK    5  A    between atoms: C_7  and  O_8
REMARK    6  A    between atoms: C_12  and  C_13
REMARK    7  A    between atoms: C_18  and  C_19
REMARK    8  A    between atoms: C_22  and  O_23
REMARK    9  A    between atoms: C_24  and  C_25
REMARK                            x       y       z     vdW  Elec       q    Type
REMARK                         _______ _______ _______ _____ _____    ______ ____
ROOT
ATOM      1  C   UNL     1       0.886  10.502  20.836  0.00  0.00    +0.000 A 
ATOM      2  C   UNL     1       1.000   9.560  21.882  0.00  0.00    +0.000 A 
ATOM      3  C   UNL     1       1.198   8.204  21.626  0.00  0.00    +0.000 A 
ATOM      4  C   UNL     1       1.295   7.776  20.315  0.00  0.00    +0.000 A 
ATOM      5  C   UNL     1       1.131   8.672  19.268  0.00  0.00    +0.000 A 
ATOM      6  C   UNL     1       0.911  10.039  19.494  0.00  0.00    +0.000 A 
ATOM      7  C   UNL     1       0.745  10.976  18.327  0.00  0.00    +0.000 C 
ATOM      8  O   UNL     1       1.199   8.132  17.995  0.00  0.00    +0.000 OA
ATOM      9  C   UNL     1       2.551   8.059  17.766  0.00  0.00    +0.000 C 
ATOM     10  O   UNL     1       3.150   8.935  17.158  0.00  0.00    +0.000 OA
ATOM     11  C   UNL     1       3.185   6.790  18.261  0.00  0.00    +0.000 A 
ATOM     12  C   UNL     1       4.367   6.304  17.629  0.00  0.00    +0.000 A 
ATOM     13  C   UNL     1       4.989   6.927  16.397  0.00  0.00    +0.000 C 
ATOM     14  C   UNL     1       5.009   5.174  18.185  0.00  0.00    +0.000 A 
ATOM     15 CL   UNL     1       6.496   4.559  17.521  0.00  0.00    +0.000 Cl
ATOM     16  C   UNL     1       4.482   4.509  19.299  0.00  0.00    +0.000 A 
ATOM     17  C   UNL     1       3.301   4.954  19.893  0.00  0.00    +0.000 A 
ATOM     18  C   UNL     1       2.656   6.101  19.389  0.00  0.00    +0.000 A 
ATOM     19  O   UNL     1       1.489   6.451  20.042  0.00  0.00    +0.000 OA
ENDROOT
BRANCH   2  20
ATOM     20  O   UNL     1       0.937   9.894  23.207  0.00  0.00    +0.000 OA
ATOM     21  H   UNL     1       0.203  10.508  23.368  0.00  0.00    +0.000 HD
ENDBRANCH   2  20
BRANCH  16  22
ATOM     22  O   UNL     1       5.127   3.413  19.814  0.00  0.00    +0.000 OA
ATOM     23  H   UNL     1       5.293   3.578  20.763  0.00  0.00    +0.000 HD
ENDBRANCH  16  22
BRANCH  17  24
ATOM     24  C   UNL     1       2.784   4.203  21.073  0.00  0.00    +0.000 C 
ATOM     25  O   UNL     1       2.521   3.007  21.068  0.00  0.00    +0.000 OA
ENDBRANCH  17  24
BRANCH   1  26
ATOM     26  C   UNL     1       0.740  11.982  21.134  0.00  0.00    +0.000 C 
BRANCH  26  30
ATOM     27  C   UNL     1       3.407  14.618  20.059  0.00  0.00    +0.000 C 
ATOM     28  C   UNL     1       2.090  13.906  20.193  0.00  0.00    +0.000 C 
ATOM     29  C   UNL     1       0.902  14.515  19.503  0.00  0.00    +0.000 C 
ATOM     30  C   UNL     1       2.008  12.759  20.898  0.00  0.00    +0.000 C 
ENDBRANCH  26  30
ENDBRANCH   1  26
TORSDOF 5
ENDMDL
MODEL 6
REMARK VINA RESULT:      -6.3      3.500      7.479
REMARK  Name = 
REMARK  9 active torsions:
REMARK  status: ('A' for Active; 'I' for Inactive)
REMARK    1  A    between atoms: C_1  and  C_2
REMARK    2  A    between atoms: C_2  and  C_3
REMARK    3  A    between atoms: C_4  and  C_5
REMARK    4  A    between atoms: C_5  and  C_6
REMARK    5  A    between atoms: C_7  and  O_8
REMARK    6  A    between atoms: C_12  and  C_13
REMARK    7  A    between atoms: C_18  and  C_19
REMARK    8  A    between atoms: C_22  and  O_23
REMARK    9  A    between atoms: C_24  and  C_25
REMARK                            x       y       z     vdW  Elec       q    Type
REMARK                         _______ _______ _______ _____ _____    ______ ____
ROOT
ATOM      1  C   UNL     1      -3.721  14.370  22.192  0.00  0.00    +0.000 A 
ATOM      2  C   UNL     1      -3.284  14.976  20.994  0.00  0.00    +0.000 A 
ATOM      3  C   UNL     1      -2.000  14.765  20.494  0.00  0.00    +0.000 A 
ATOM      4  C   UNL     1      -1.140  13.931  21.184  0.00  0.00    +0.000 A 
ATOM      5  C   UNL     1      -1.525  13.367  22.392  0.00  0.00    +0.000 A 
ATOM      6  C   UNL     1      -2.803  13.577  22.931  0.00  0.00    +0.000 A 
ATOM      7  C   UNL     1      -3.180  12.939  24.243  0.00  0.00    +0.000 C 
ATOM      8  O   UNL     1      -0.572  12.588  23.026  0.00  0.00    +0.000 OA
ATOM      9  C   UNL     1      -0.690  11.379  22.385  0.00  0.00    +0.000 C 
ATOM     10  O   UNL     1      -1.375  10.473  22.839  0.00  0.00    +0.000 OA
ATOM     11  C   UNL     1       0.146  11.265  21.142  0.00  0.00    +0.000 A 
ATOM     12  C   UNL     1       0.587   9.980  20.709  0.00  0.00    +0.000 A 
ATOM     13  C   UNL     1       0.362   8.699  21.484  0.00  0.00    +0.000 C 
ATOM     14  C   UNL     1       1.273   9.887  19.476  0.00  0.00    +0.000 A 
ATOM     15 CL   UNL     1       1.781   8.349  18.838  0.00  0.00    +0.000 Cl
ATOM     16  C   UNL     1       1.562  11.024  18.713  0.00  0.00    +0.000 A 
ATOM     17  C   UNL     1       1.172  12.288  19.155  0.00  0.00    +0.000 A 
ATOM     18  C   UNL     1       0.452  12.415  20.359  0.00  0.00    +0.000 A 
ATOM     19  O   UNL     1       0.123  13.710  20.712  0.00  0.00    +0.000 OA
ENDROOT
BRANCH   2  20
ATOM     20  O   UNL     1      -4.072  15.798  20.235  0.00  0.00    +0.000 OA
ATOM     21  H   UNL     1      -3.734  15.849  19.327  0.00  0.00    +0.000 HD
ENDBRANCH   2  20
BRANCH  16  22
ATOM     22  O   UNL     1       2.232  10.900  17.522  0.00  0.00    +0.000 OA
ATOM     23  H   UNL     1       1.790  11.475  16.865  0.00  0.00    +0.000 HD
ENDBRANCH  16  22
BRANCH  17  24
ATOM     24  C   UNL     1       1.512  13.464  18.302  0.00  0.00    +0.000 C 
ATOM     25  O   UNL     1       2.654  13.811  18.030  0.00  0.00    +0.000 OA
ENDBRANCH  17  24
BRANCH   1  26
ATOM     26  C   UNL     1      -5.144  14.556  22.685  0.00  0.00    +0.000 C 
BRANCH  26  30
ATOM     27  C   UNL     1      -7.916  11.941  21.854  0.00  0.00    +0.000 C 
ATOM     28  C   UNL     1      -6.941  12.774  22.638  0.00  0.00    +0.000 C 
ATOM     29  C   UNL     1      -6.908  12.579  24.127  0.00  0.00    +0.000 C 
ATOM     30  C   UNL     1      -6.128  13.644  22.003  0.00  0.00    +0.000 C 
ENDBRANCH  26  30
ENDBRANCH   1  26
TORSDOF 5
ENDMDL
MODEL 7
REMARK VINA RESULT:      -6.2      1.550      2.090
REMARK  Name = 
REMARK  9 active torsions:
REMARK  status: ('A' for Active; 'I' for Inactive)
REMARK    1  A    between atoms: C_1  and  C_2
REMARK    2  A    between atoms: C_2  and  C_3
REMARK    3  A    between atoms: C_4  and  C_5
REMARK    4  A    between atoms: C_5  and  C_6
REMARK    5  A    between atoms: C_7  and  O_8
REMARK    6  A    between atoms: C_12  and  C_13
REMARK    7  A    between atoms: C_18  and  C_19
REMARK    8  A    between atoms: C_22  and  O_23
REMARK    9  A    between atoms: C_24  and  C_25
REMARK                            x       y       z     vdW  Elec       q    Type
REMARK                         _______ _______ _______ _____ _____    ______ ____
ROOT
ATOM      1  C   UNL     1       0.136   9.757  21.024  0.00  0.00    +0.000 A 
ATOM      2  C   UNL     1      -0.047  10.318  22.307  0.00  0.00    +0.000 A 
ATOM      3  C   UNL     1      -0.768  11.497  22.493  0.00  0.00    +0.000 A 
ATOM      4  C   UNL     1      -1.325  12.123  21.394  0.00  0.00    +0.000 A 
ATOM      5  C   UNL     1      -1.114  11.624  20.117  0.00  0.00    +0.000 A 
ATOM      6  C   UNL     1      -0.376  10.451  19.895  0.00  0.00    +0.000 A 
ATOM      7  C   UNL     1      -0.177   9.942  18.492  0.00  0.00    +0.000 C 
ATOM      8  O   UNL     1      -1.675  12.353  19.082  0.00  0.00    +0.000 OA
ATOM      9  C   UNL     1      -2.977  11.919  19.074  0.00  0.00    +0.000 C 
ATOM     10  O   UNL     1      -3.355  11.031  18.323  0.00  0.00    +0.000 OA
ATOM     11  C   UNL     1      -3.879  12.679  20.004  0.00  0.00    +0.000 A 
ATOM     12  C   UNL     1      -5.272  12.767  19.714  0.00  0.00    +0.000 A 
ATOM     13  C   UNL     1      -5.913  12.232  18.450  0.00  0.00    +0.000 C 
ATOM     14  C   UNL     1      -6.117  13.388  20.663  0.00  0.00    +0.000 A 
ATOM     15 CL   UNL     1      -7.839  13.474  20.422  0.00  0.00    +0.000 Cl
ATOM     16  C   UNL     1      -5.606  13.949  21.839  0.00  0.00    +0.000 A 
ATOM     17  C   UNL     1      -4.238  13.904  22.106  0.00  0.00    +0.000 A 
ATOM     18  C   UNL     1      -3.372  13.259  21.202  0.00  0.00    +0.000 A 
ATOM     19  O   UNL     1      -2.035  13.280  21.555  0.00  0.00    +0.000 OA
ENDROOT
BRANCH   2  20
ATOM     20  O   UNL     1       0.450   9.757  23.451  0.00  0.00    +0.000 OA
ATOM     21  H   UNL     1       1.096  10.349  23.867  0.00  0.00    +0.000 HD
ENDBRANCH   2  20
BRANCH  16  22
ATOM     22  O   UNL     1      -6.453  14.547  22.739  0.00  0.00    +0.000 OA
ATOM     23  H   UNL     1      -6.141  14.327  23.640  0.00  0.00    +0.000 HD
ENDBRANCH  16  22
BRANCH  17  24
ATOM     24  C   UNL     1      -3.751  14.523  23.373  0.00  0.00    +0.000 C 
ATOM     25  O   UNL     1      -3.965  14.068  24.489  0.00  0.00    +0.000 OA
ENDBRANCH  17  24
BRANCH   1  26
ATOM     26  C   UNL     1       0.864   8.438  20.847  0.00  0.00    +0.000 C 
BRANCH  26  30
ATOM     27  C   UNL     1       3.255   7.433  17.933  0.00  0.00    +0.000 C 
ATOM     28  C   UNL     1       2.388   7.330  19.156  0.00  0.00    +0.000 C 
ATOM     29  C   UNL     1       2.243   5.974  19.787  0.00  0.00    +0.000 C 
ATOM     30  C   UNL     1       1.785   8.428  19.656  0.00  0.00    +0.000 C 
ENDBRANCH  26  30
ENDBRANCH   1  26
TORSDOF 5
ENDMDL
MODEL 8
REMARK VINA RESULT:      -6.1      1.390      1.827
REMARK  Name = 
REMARK  9 active torsions:
REMARK  status: ('A' for Active; 'I' for Inactive)
REMARK    1  A    between atoms: C_1  and  C_2
REMARK    2  A    between atoms: C_2  and  C_3
REMARK    3  A    between atoms: C_4  and  C_5
REMARK    4  A    between atoms: C_5  and  C_6
REMARK    5  A    between atoms: C_7  and  O_8
REMARK    6  A    between atoms: C_12  and  C_13
REMARK    7  A    between atoms: C_18  and  C_19
REMARK    8  A    between atoms: C_22  and  O_23
REMARK    9  A    between atoms: C_24  and  C_25
REMARK                            x       y       z     vdW  Elec       q    Type
REMARK                         _______ _______ _______ _____ _____    ______ ____
ROOT
ATOM      1  C   UNL     1       1.401   8.630  19.981  0.00  0.00    +0.000 A 
ATOM      2  C   UNL     1       1.227   9.117  21.295  0.00  0.00    +0.000 A 
ATOM      3  C   UNL     1       0.549  10.307  21.550  0.00  0.00    +0.000 A 
ATOM      4  C   UNL     1       0.024  11.021  20.488  0.00  0.00    +0.000 A 
ATOM      5  C   UNL     1       0.228  10.594  19.183  0.00  0.00    +0.000 A 
ATOM      6  C   UNL     1       0.924   9.411  18.894  0.00  0.00    +0.000 A 
ATOM      7  C   UNL     1       1.117   8.982  17.463  0.00  0.00    +0.000 C 
ATOM      8  O   UNL     1      -0.297  11.406  18.192  0.00  0.00    +0.000 OA
ATOM      9  C   UNL     1      -1.614  11.021  18.149  0.00  0.00    +0.000 C 
ATOM     10  O   UNL     1      -2.018  10.196  17.341  0.00  0.00    +0.000 OA
ATOM     11  C   UNL     1      -2.496  11.755  19.119  0.00  0.00    +0.000 A 
ATOM     12  C   UNL     1      -3.883  11.913  18.825  0.00  0.00    +0.000 A 
ATOM     13  C   UNL     1      -4.531  11.480  17.527  0.00  0.00    +0.000 C 
ATOM     14  C   UNL     1      -4.712  12.505  19.805  0.00  0.00    +0.000 A 
ATOM     15 CL   UNL     1      -6.428  12.668  19.559  0.00  0.00    +0.000 Cl
ATOM     16  C   UNL     1      -4.192  12.973  21.018  0.00  0.00    +0.000 A 
ATOM     17  C   UNL     1      -2.828  12.860  21.291  0.00  0.00    +0.000 A 
ATOM     18  C   UNL     1      -1.978  12.241  20.354  0.00  0.00    +0.000 A 
ATOM     19  O   UNL     1      -0.645  12.191  20.715  0.00  0.00    +0.000 OA
ENDROOT
BRANCH   2  20
ATOM     20  O   UNL     1       1.693   8.469  22.406  0.00  0.00    +0.000 OA
ATOM     21  H   UNL     1       0.967   8.281  23.020  0.00  0.00    +0.000 HD
ENDBRANCH   2  20
BRANCH  16  22
ATOM     22  O   UNL     1      -5.023  13.544  21.948  0.00  0.00    +0.000 OA
ATOM     23  H   UNL     1      -4.731  13.253  22.835  0.00  0.00    +0.000 HD
ENDBRANCH  16  22
BRANCH  17  24
ATOM     24  C   UNL     1      -2.330  13.381  22.596  0.00  0.00    +0.000 C 
ATOM     25  O   UNL     1      -2.766  13.037  23.687  0.00  0.00    +0.000 OA
ENDBRANCH  17  24
BRANCH   1  26
ATOM     26  C   UNL     1       2.082   7.298  19.727  0.00  0.00    +0.000 C 
BRANCH  26  30
ATOM     27  C   UNL     1       4.678   6.646  16.889  0.00  0.00    +0.000 C 
ATOM     28  C   UNL     1       3.556   6.422  17.865  0.00  0.00    +0.000 C 
ATOM     29  C   UNL     1       2.867   5.088  17.831  0.00  0.00    +0.000 C 
ATOM     30  C   UNL     1       3.211   7.393  18.736  0.00  0.00    +0.000 C 
ENDBRANCH  26  30
ENDBRANCH   1  26
TORSDOF 5
ENDMDL
MODEL 9
REMARK VINA RESULT:      -6.1      0.823      1.176
REMARK  Name = 
REMARK  9 active torsions:
REMARK  status: ('A' for Active; 'I' for Inactive)
REMARK    1  A    between atoms: C_1  and  C_2
REMARK    2  A    between atoms: C_2  and  C_3
REMARK    3  A    between atoms: C_4  and  C_5
REMARK    4  A    between atoms: C_5  and  C_6
REMARK    5  A    between atoms: C_7  and  O_8
REMARK    6  A    between atoms: C_12  and  C_13
REMARK    7  A    between atoms: C_18  and  C_19
REMARK    8  A    between atoms: C_22  and  O_23
REMARK    9  A    between atoms: C_24  and  C_25
REMARK                            x       y       z     vdW  Elec       q    Type
REMARK                         _______ _______ _______ _____ _____    ______ ____
ROOT
ATOM      1  C   UNL     1       0.952   9.008  20.381  0.00  0.00    +0.000 A 
ATOM      2  C   UNL     1       0.459   9.533  21.596  0.00  0.00    +0.000 A 
ATOM      3  C   UNL     1      -0.362  10.659  21.626  0.00  0.00    +0.000 A 
ATOM      4  C   UNL     1      -0.711  11.267  20.434  0.00  0.00    +0.000 A 
ATOM      5  C   UNL     1      -0.196  10.805  19.231  0.00  0.00    +0.000 A 
ATOM      6  C   UNL     1       0.649   9.687  19.171  0.00  0.00    +0.000 A 
ATOM      7  C   UNL     1       1.179   9.217  17.842  0.00  0.00    +0.000 C 
ATOM      8  O   UNL     1      -0.569  11.514  18.102  0.00  0.00    +0.000 OA
ATOM      9  C   UNL     1      -1.807  10.996  17.811  0.00  0.00    +0.000 C 
ATOM     10  O   UNL     1      -1.954  10.098  16.993  0.00  0.00    +0.000 OA
ATOM     11  C   UNL     1      -2.937  11.679  18.527  0.00  0.00    +0.000 A 
ATOM     12  C   UNL     1      -4.238  11.681  17.943  0.00  0.00    +0.000 A 
ATOM     13  C   UNL     1      -4.553  11.127  16.569  0.00  0.00    +0.000 C 
ATOM     14  C   UNL     1      -5.307  12.229  18.689  0.00  0.00    +0.000 A 
ATOM     15 CL   UNL     1      -6.939  12.206  18.082  0.00  0.00    +0.000 Cl
ATOM     16  C   UNL     1      -5.101  12.801  19.949  0.00  0.00    +0.000 A 
ATOM     17  C   UNL     1      -3.823  12.841  20.506  0.00  0.00    +0.000 A 
ATOM     18  C   UNL     1      -2.741  12.270  19.808  0.00  0.00    +0.000 A 
ATOM     19  O   UNL     1      -1.516  12.372  20.441  0.00  0.00    +0.000 OA
ENDROOT
BRANCH   2  20
ATOM     20  O   UNL     1       0.735   8.986  22.819  0.00  0.00    +0.000 OA
ATOM     21  H   UNL     1      -0.000   9.140  23.433  0.00  0.00    +0.000 HD
ENDBRANCH   2  20
BRANCH  16  22
ATOM     22  O   UNL     1      -6.160  13.327  20.647  0.00  0.00    +0.000 OA
ATOM     23  H   UNL     1      -6.109  14.302  20.585  0.00  0.00    +0.000 HD
ENDBRANCH  16  22
BRANCH  17  24
ATOM     24  C   UNL     1      -3.663  13.468  21.850  0.00  0.00    +0.000 C 
ATOM     25  O   UNL     1      -3.956  14.628  22.109  0.00  0.00    +0.000 OA
ENDBRANCH  17  24
BRANCH   1  26
ATOM     26  C   UNL     1       1.788   7.743  20.362  0.00  0.00    +0.000 C 
BRANCH  26  30
ATOM     27  C   UNL     1       3.913   6.342  17.406  0.00  0.00    +0.000 C 
ATOM     28  C   UNL     1       3.259   6.454  18.755  0.00  0.00    +0.000 C 
ATOM     29  C   UNL     1       3.479   5.327  19.725  0.00  0.00    +0.000 C 
ATOM     30  C   UNL     1       2.521   7.540  19.063  0.00  0.00    +0.000 C 
ENDBRANCH  26  30
ENDBRANCH   1  26
TORSDOF 5
ENDMDL
