MODEL 1
REMARK VINA RESULT:      -7.8      0.000      0.000
REMARK  Name = 
REMARK  5 active torsions:
REMARK  status: ('A' for Active; 'I' for Inactive)
REMARK    1  A    between atoms: C_1  and  O_2
REMARK    2  A    between atoms: O_2  and  C_3
REMARK    3  A    between atoms: C_8  and  C_9
REMARK    4  A    between atoms: N_13  and  C_14
REMARK    5  A    between atoms: C_14  and  C_15
REMARK                            x       y       z     vdW  Elec       q    Type
REMARK                         _______ _______ _______ _____ _____    ______ ____
ROOT
ATOM      1  C   UNL     1       5.343   5.560  17.726  0.00  0.00    +0.000 C 
ATOM      2  N   UNL     1       5.236   6.795  17.341  0.00  0.00    +0.000 NA
ATOM      3  N   UNL     1       6.332   7.630  17.241  0.00  0.00    +0.000 NA
ATOM      4  C   UNL     1       7.437   7.445  17.886  0.00  0.00    +0.000 C 
ATOM      5  N   UNL     1       8.474   8.338  17.849  0.00  0.00    +0.000 N 
ATOM      6  S   UNL     1       7.760   6.078  18.915  0.00  0.00    +0.000 S 
ATOM      7  C   UNL     1       6.624   4.906  18.164  0.00  0.00    +0.000 C 
ATOM      8  H   UNL     1       9.276   8.087  18.409  0.00  0.00    +0.000 HD
ENDROOT
BRANCH   1  14
ATOM      9  C   UNL     1       2.812   5.238  18.004  0.00  0.00    +0.000 A 
ATOM     10  C   UNL     1       1.716   4.361  18.007  0.00  0.00    +0.000 A 
ATOM     11  C   UNL     1       1.883   3.002  17.733  0.00  0.00    +0.000 A 
ATOM     12  C   UNL     1       3.143   2.504  17.426  0.00  0.00    +0.000 A 
ATOM     13  C   UNL     1       4.235   3.369  17.392  0.00  0.00    +0.000 A 
ATOM     14  C   UNL     1       4.084   4.739  17.676  0.00  0.00    +0.000 A 
BRANCH   9  16
ATOM     15  C   UNL     1       2.360   6.882  19.645  0.00  0.00    +0.000 C 
ATOM     16  O   UNL     1       2.680   6.571  18.291  0.00  0.00    +0.000 OA
ENDBRANCH   9  16
ENDBRANCH   1  14
BRANCH   5  17
ATOM     17  C   UNL     1       8.218   9.763  17.762  0.00  0.00    +0.000 C 
BRANCH  17  18
ATOM     18  C   UNL     1       9.287  10.547  18.482  0.00  0.00    +0.000 A 
ATOM     19  C   UNL     1       9.238  10.687  19.878  0.00  0.00    +0.000 A 
ATOM     20  C   UNL     1      10.236  11.385  20.558  0.00  0.00    +0.000 A 
ATOM     21  C   UNL     1      11.300  11.942  19.853  0.00  0.00    +0.000 A 
ATOM     22  C   UNL     1      11.370  11.799  18.469  0.00  0.00    +0.000 A 
ATOM     23  C   UNL     1      10.370  11.103  17.785  0.00  0.00    +0.000 A 
ENDBRANCH  17  18
ENDBRANCH   5  17
TORSDOF 4
ENDMDL
MODEL 2
REMARK VINA RESULT:      -7.8      0.538      1.159
REMARK  Name = 
REMARK  5 active torsions:
REMARK  status: ('A' for Active; 'I' for Inactive)
REMARK    1  A    between atoms: C_1  and  O_2
REMARK    2  A    between atoms: O_2  and  C_3
REMARK    3  A    between atoms: C_8  and  C_9
REMARK    4  A    between atoms: N_13  and  C_14
REMARK    5  A    between atoms: C_14  and  C_15
REMARK                            x       y       z     vdW  Elec       q    Type
REMARK                         _______ _______ _______ _____ _____    ______ ____
ROOT
ATOM      1  C   UNL     1       5.174   5.366  17.973  0.00  0.00    +0.000 C 
ATOM      2  N   UNL     1       5.056   6.593  17.564  0.00  0.00    +0.000 NA
ATOM      3  N   UNL     1       6.151   7.415  17.383  0.00  0.00    +0.000 NA
ATOM      4  C   UNL     1       7.289   7.234  17.970  0.00  0.00    +0.000 C 
ATOM      5  N   UNL     1       8.330   8.116  17.852  0.00  0.00    +0.000 N 
ATOM      6  S   UNL     1       7.659   5.889  19.012  0.00  0.00    +0.000 S 
ATOM      7  C   UNL     1       6.472   4.711  18.354  0.00  0.00    +0.000 C 
ATOM      8  H   UNL     1       9.160   7.871  18.372  0.00  0.00    +0.000 HD
ENDROOT
BRANCH   1  14
ATOM      9  C   UNL     1       2.783   4.902  18.783  0.00  0.00    +0.000 A 
ATOM     10  C   UNL     1       1.685   4.028  18.815  0.00  0.00    +0.000 A 
ATOM     11  C   UNL     1       1.716   2.810  18.131  0.00  0.00    +0.000 A 
ATOM     12  C   UNL     1       2.834   2.460  17.385  0.00  0.00    +0.000 A 
ATOM     13  C   UNL     1       3.920   3.331  17.323  0.00  0.00    +0.000 A 
ATOM     14  C   UNL     1       3.907   4.557  18.014  0.00  0.00    +0.000 A 
BRANCH   9  16
ATOM     15  C   UNL     1       1.864   6.190  20.543  0.00  0.00    +0.000 C 
ATOM     16  O   UNL     1       2.788   6.092  19.461  0.00  0.00    +0.000 OA
ENDBRANCH   9  16
ENDBRANCH   1  14
BRANCH   5  17
ATOM     17  C   UNL     1       8.082   9.541  17.746  0.00  0.00    +0.000 C 
BRANCH  17  18
ATOM     18  C   UNL     1       9.139  10.328  18.478  0.00  0.00    +0.000 A 
ATOM     19  C   UNL     1      10.128  11.019  17.759  0.00  0.00    +0.000 A 
ATOM     20  C   UNL     1      11.094  11.773  18.425  0.00  0.00    +0.000 A 
ATOM     21  C   UNL     1      11.079  11.855  19.815  0.00  0.00    +0.000 A 
ATOM     22  C   UNL     1      10.095  11.187  20.541  0.00  0.00    +0.000 A 
ATOM     23  C   UNL     1       9.128  10.428  19.878  0.00  0.00    +0.000 A 
ENDBRANCH  17  18
ENDBRANCH   5  17
TORSDOF 4
ENDMDL
MODEL 3
REMARK VINA RESULT:      -7.8      5.008      6.875
REMARK  Name = 
REMARK  5 active torsions:
REMARK  status: ('A' for Active; 'I' for Inactive)
REMARK    1  A    between atoms: C_1  and  O_2
REMARK    2  A    between atoms: O_2  and  C_3
REMARK    3  A    between atoms: C_8  and  C_9
REMARK    4  A    between atoms: N_13  and  C_14
REMARK    5  A    between atoms: C_14  and  C_15
REMARK                            x       y       z     vdW  Elec       q    Type
REMARK                         _______ _______ _______ _____ _____    ______ ____
ROOT
ATOM      1  C   UNL     1       4.361   4.149  17.898  0.00  0.00    +0.000 C 
ATOM      2  N   UNL     1       4.076   4.206  16.633  0.00  0.00    +0.000 NA
ATOM      3  N   UNL     1       5.055   4.177  15.658  0.00  0.00    +0.000 NA
ATOM      4  C   UNL     1       6.287   4.512  15.867  0.00  0.00    +0.000 C 
ATOM      5  N   UNL     1       7.218   4.570  14.864  0.00  0.00    +0.000 N 
ATOM      6  S   UNL     1       6.934   4.971  17.416  0.00  0.00    +0.000 S 
ATOM      7  C   UNL     1       5.754   4.109  18.462  0.00  0.00    +0.000 C 
ATOM      8  H   UNL     1       8.140   4.861  15.153  0.00  0.00    +0.000 HD
ENDROOT
BRANCH   1  14
ATOM      9  C   UNL     1       2.721   5.163  19.593  0.00  0.00    +0.000 A 
ATOM     10  C   UNL     1       1.674   4.960  20.506  0.00  0.00    +0.000 A 
ATOM     11  C   UNL     1       1.127   3.689  20.699  0.00  0.00    +0.000 A 
ATOM     12  C   UNL     1       1.600   2.609  19.965  0.00  0.00    +0.000 A 
ATOM     13  C   UNL     1       2.621   2.802  19.036  0.00  0.00    +0.000 A 
ATOM     14  C   UNL     1       3.189   4.075  18.838  0.00  0.00    +0.000 A 
BRANCH   9  16
ATOM     15  C   UNL     1       2.543   7.301  18.594  0.00  0.00    +0.000 C 
ATOM     16  O   UNL     1       3.291   6.393  19.400  0.00  0.00    +0.000 OA
ENDBRANCH   9  16
ENDBRANCH   1  14
BRANCH   5  17
ATOM     17  C   UNL     1       6.839   4.993  13.529  0.00  0.00    +0.000 C 
BRANCH  17  18
ATOM     18  C   UNL     1       6.559   3.802  12.647  0.00  0.00    +0.000 A 
ATOM     19  C   UNL     1       5.235   3.422  12.376  0.00  0.00    +0.000 A 
ATOM     20  C   UNL     1       4.963   2.341  11.539  0.00  0.00    +0.000 A 
ATOM     21  C   UNL     1       6.009   1.632  10.954  0.00  0.00    +0.000 A 
ATOM     22  C   UNL     1       7.328   2.006  11.202  0.00  0.00    +0.000 A 
ATOM     23  C   UNL     1       7.604   3.087  12.043  0.00  0.00    +0.000 A 
ENDBRANCH  17  18
ENDBRANCH   5  17
TORSDOF 4
ENDMDL
MODEL 4
REMARK VINA RESULT:      -7.7      5.049      6.937
REMARK  Name = 
REMARK  5 active torsions:
REMARK  status: ('A' for Active; 'I' for Inactive)
REMARK    1  A    between atoms: C_1  and  O_2
REMARK    2  A    between atoms: O_2  and  C_3
REMARK    3  A    between atoms: C_8  and  C_9
REMARK    4  A    between atoms: N_13  and  C_14
REMARK    5  A    between atoms: C_14  and  C_15
REMARK                            x       y       z     vdW  Elec       q    Type
REMARK                         _______ _______ _______ _____ _____    ______ ____
ROOT
ATOM      1  C   UNL     1       4.370   4.123  17.890  0.00  0.00    +0.000 C 
ATOM      2  N   UNL     1       4.075   4.216  16.629  0.00  0.00    +0.000 NA
ATOM      3  N   UNL     1       5.042   4.173  15.643  0.00  0.00    +0.000 NA
ATOM      4  C   UNL     1       6.287   4.459  15.845  0.00  0.00    +0.000 C 
ATOM      5  N   UNL     1       7.209   4.506  14.834  0.00  0.00    +0.000 N 
ATOM      6  S   UNL     1       6.966   4.862  17.396  0.00  0.00    +0.000 S 
ATOM      7  C   UNL     1       5.767   4.021  18.437  0.00  0.00    +0.000 C 
ATOM      8  H   UNL     1       8.143   4.758  15.118  0.00  0.00    +0.000 HD
ENDROOT
BRANCH   1  14
ATOM      9  C   UNL     1       2.736   5.178  19.563  0.00  0.00    +0.000 A 
ATOM     10  C   UNL     1       1.698   4.997  20.491  0.00  0.00    +0.000 A 
ATOM     11  C   UNL     1       1.162   3.729  20.729  0.00  0.00    +0.000 A 
ATOM     12  C   UNL     1       1.638   2.629  20.028  0.00  0.00    +0.000 A 
ATOM     13  C   UNL     1       2.651   2.800  19.085  0.00  0.00    +0.000 A 
ATOM     14  C   UNL     1       3.207   4.069  18.840  0.00  0.00    +0.000 A 
BRANCH   9  16
ATOM     15  C   UNL     1       2.539   7.276  18.486  0.00  0.00    +0.000 C 
ATOM     16  O   UNL     1       3.295   6.406  19.325  0.00  0.00    +0.000 OA
ENDBRANCH   9  16
ENDBRANCH   1  14
BRANCH   5  17
ATOM     17  C   UNL     1       6.832   4.970  13.512  0.00  0.00    +0.000 C 
BRANCH  17  18
ATOM     18  C   UNL     1       6.554   3.808  12.592  0.00  0.00    +0.000 A 
ATOM     19  C   UNL     1       7.618   3.102  12.008  0.00  0.00    +0.000 A 
ATOM     20  C   UNL     1       7.374   2.008  11.178  0.00  0.00    +0.000 A 
ATOM     21  C   UNL     1       6.066   1.599  10.930  0.00  0.00    +0.000 A 
ATOM     22  C   UNL     1       5.001   2.281  11.514  0.00  0.00    +0.000 A 
ATOM     23  C   UNL     1       5.242   3.379  12.343  0.00  0.00    +0.000 A 
ENDBRANCH  17  18
ENDBRANCH   5  17
TORSDOF 4
ENDMDL
MODEL 5
REMARK VINA RESULT:      -7.7      4.831      7.171
REMARK  Name = 
REMARK  5 active torsions:
REMARK  status: ('A' for Active; 'I' for Inactive)
REMARK    1  A    between atoms: C_1  and  O_2
REMARK    2  A    between atoms: O_2  and  C_3
REMARK    3  A    between atoms: C_8  and  C_9
REMARK    4  A    between atoms: N_13  and  C_14
REMARK    5  A    between atoms: C_14  and  C_15
REMARK                            x       y       z     vdW  Elec       q    Type
REMARK                         _______ _______ _______ _____ _____    ______ ____
ROOT
ATOM      1  C   UNL     1       4.771   4.724  17.944  0.00  0.00    +0.000 C 
ATOM      2  N   UNL     1       4.375   4.760  16.708  0.00  0.00    +0.000 NA
ATOM      3  N   UNL     1       5.240   4.543  15.653  0.00  0.00    +0.000 NA
ATOM      4  C   UNL     1       6.521   4.705  15.729  0.00  0.00    +0.000 C 
ATOM      5  N   UNL     1       7.348   4.580  14.645  0.00  0.00    +0.000 N 
ATOM      6  S   UNL     1       7.374   5.138  17.183  0.00  0.00    +0.000 S 
ATOM      7  C   UNL     1       6.193   4.508  18.382  0.00  0.00    +0.000 C 
ATOM      8  H   UNL     1       8.326   4.747  14.832  0.00  0.00    +0.000 HD
ENDROOT
BRANCH   1  14
ATOM      9  C   UNL     1       3.129   3.780  19.676  0.00  0.00    +0.000 A 
ATOM     10  C   UNL     1       2.072   4.017  20.568  0.00  0.00    +0.000 A 
ATOM     11  C   UNL     1       1.556   5.304  20.744  0.00  0.00    +0.000 A 
ATOM     12  C   UNL     1       2.107   6.375  20.052  0.00  0.00    +0.000 A 
ATOM     13  C   UNL     1       3.175   6.156  19.183  0.00  0.00    +0.000 A 
ATOM     14  C   UNL     1       3.698   4.864  18.988  0.00  0.00    +0.000 A 
BRANCH   9  16
ATOM     15  C   UNL     1       2.896   1.697  18.576  0.00  0.00    +0.000 C 
ATOM     16  O   UNL     1       3.639   2.526  19.467  0.00  0.00    +0.000 OA
ENDBRANCH   9  16
ENDBRANCH   1  14
BRANCH   5  17
ATOM     17  C   UNL     1       6.904   4.989  13.326  0.00  0.00    +0.000 C 
BRANCH  17  18
ATOM     18  C   UNL     1       6.585   3.789  12.469  0.00  0.00    +0.000 A 
ATOM     19  C   UNL     1       7.623   3.027  11.912  0.00  0.00    +0.000 A 
ATOM     20  C   UNL     1       7.342   1.899  11.141  0.00  0.00    +0.000 A 
ATOM     21  C   UNL     1       6.020   1.513  10.927  0.00  0.00    +0.000 A 
ATOM     22  C   UNL     1       4.980   2.253  11.486  0.00  0.00    +0.000 A 
ATOM     23  C   UNL     1       5.259   3.385  12.255  0.00  0.00    +0.000 A 
ENDBRANCH  17  18
ENDBRANCH   5  17
TORSDOF 4
ENDMDL
MODEL 6
REMARK VINA RESULT:      -7.6      4.782      7.142
REMARK  Name = 
REMARK  5 active torsions:
REMARK  status: ('A' for Active; 'I' for Inactive)
REMARK    1  A    between atoms: C_1  and  O_2
REMARK    2  A    between atoms: O_2  and  C_3
REMARK    3  A    between atoms: C_8  and  C_9
REMARK    4  A    between atoms: N_13  and  C_14
REMARK    5  A    between atoms: C_14  and  C_15
REMARK                            x       y       z     vdW  Elec       q    Type
REMARK                         _______ _______ _______ _____ _____    ______ ____
ROOT
ATOM      1  C   UNL     1       4.831   4.689  17.880  0.00  0.00    +0.000 C 
ATOM      2  N   UNL     1       4.421   4.655  16.648  0.00  0.00    +0.000 NA
ATOM      3  N   UNL     1       5.292   4.492  15.588  0.00  0.00    +0.000 NA
ATOM      4  C   UNL     1       6.552   4.776  15.644  0.00  0.00    +0.000 C 
ATOM      5  N   UNL     1       7.377   4.701  14.554  0.00  0.00    +0.000 N 
ATOM      6  S   UNL     1       7.375   5.327  17.076  0.00  0.00    +0.000 S 
ATOM      7  C   UNL     1       6.271   4.620  18.305  0.00  0.00    +0.000 C 
ATOM      8  H   UNL     1       8.336   4.964  14.723  0.00  0.00    +0.000 HD
ENDROOT
BRANCH   1  14
ATOM      9  C   UNL     1       3.263   3.633  19.616  0.00  0.00    +0.000 A 
ATOM     10  C   UNL     1       2.201   3.798  20.518  0.00  0.00    +0.000 A 
ATOM     11  C   UNL     1       1.610   5.050  20.710  0.00  0.00    +0.000 A 
ATOM     12  C   UNL     1       2.089   6.158  20.023  0.00  0.00    +0.000 A 
ATOM     13  C   UNL     1       3.161   6.012  19.144  0.00  0.00    +0.000 A 
ATOM     14  C   UNL     1       3.760   4.756  18.933  0.00  0.00    +0.000 A 
BRANCH   9  16
ATOM     15  C   UNL     1       3.152   1.553  18.491  0.00  0.00    +0.000 C 
ATOM     16  O   UNL     1       3.846   2.414  19.392  0.00  0.00    +0.000 OA
ENDBRANCH   9  16
ENDBRANCH   1  14
BRANCH   5  17
ATOM     17  C   UNL     1       6.882   5.031  13.230  0.00  0.00    +0.000 C 
BRANCH  17  18
ATOM     18  C   UNL     1       6.595   3.781  12.436  0.00  0.00    +0.000 A 
ATOM     19  C   UNL     1       5.269   3.388  12.197  0.00  0.00    +0.000 A 
ATOM     20  C   UNL     1       4.990   2.250  11.440  0.00  0.00    +0.000 A 
ATOM     21  C   UNL     1       6.032   1.498  10.904  0.00  0.00    +0.000 A 
ATOM     22  C   UNL     1       7.353   1.884  11.121  0.00  0.00    +0.000 A 
ATOM     23  C   UNL     1       7.635   3.021  11.882  0.00  0.00    +0.000 A 
ENDBRANCH  17  18
ENDBRANCH   5  17
TORSDOF 4
ENDMDL
MODEL 7
REMARK VINA RESULT:      -7.5      3.689      7.164
REMARK  Name = 
REMARK  5 active torsions:
REMARK  status: ('A' for Active; 'I' for Inactive)
REMARK    1  A    between atoms: C_1  and  O_2
REMARK    2  A    between atoms: O_2  and  C_3
REMARK    3  A    between atoms: C_8  and  C_9
REMARK    4  A    between atoms: N_13  and  C_14
REMARK    5  A    between atoms: C_14  and  C_15
REMARK                            x       y       z     vdW  Elec       q    Type
REMARK                         _______ _______ _______ _____ _____    ______ ____
ROOT
ATOM      1  C   UNL     1       4.350   5.936  17.879  0.00  0.00    +0.000 C 
ATOM      2  N   UNL     1       3.854   7.103  17.598  0.00  0.00    +0.000 NA
ATOM      3  N   UNL     1       3.083   7.809  18.501  0.00  0.00    +0.000 NA
ATOM      4  C   UNL     1       2.440   7.261  19.480  0.00  0.00    +0.000 C 
ATOM      5  N   UNL     1       1.603   7.966  20.303  0.00  0.00    +0.000 N 
ATOM      6  S   UNL     1       2.504   5.567  19.875  0.00  0.00    +0.000 S 
ATOM      7  C   UNL     1       4.109   5.189  19.161  0.00  0.00    +0.000 C 
ATOM      8  H   UNL     1       1.147   7.421  21.019  0.00  0.00    +0.000 HD
ENDROOT
BRANCH   1  14
ATOM      9  C   UNL     1       6.649   5.559  16.804  0.00  0.00    +0.000 A 
ATOM     10  C   UNL     1       7.395   5.023  15.742  0.00  0.00    +0.000 A 
ATOM     11  C   UNL     1       6.770   4.314  14.713  0.00  0.00    +0.000 A 
ATOM     12  C   UNL     1       5.396   4.109  14.743  0.00  0.00    +0.000 A 
ATOM     13  C   UNL     1       4.649   4.613  15.806  0.00  0.00    +0.000 A 
ATOM     14  C   UNL     1       5.263   5.338  16.845  0.00  0.00    +0.000 A 
BRANCH   9  16
ATOM     15  C   UNL     1       7.613   7.611  17.484  0.00  0.00    +0.000 C 
ATOM     16  O   UNL     1       7.233   6.277  17.814  0.00  0.00    +0.000 OA
ENDBRANCH   9  16
ENDBRANCH   1  14
BRANCH   5  17
ATOM     17  C   UNL     1       0.813   9.067  19.784  0.00  0.00    +0.000 C 
BRANCH  17  18
ATOM     18  C   UNL     1       0.080   9.774  20.896  0.00  0.00    +0.000 A 
ATOM     19  C   UNL     1       0.063   9.227  22.188  0.00  0.00    +0.000 A 
ATOM     20  C   UNL     1      -0.587   9.886  23.231  0.00  0.00    +0.000 A 
ATOM     21  C   UNL     1      -1.219  11.105  22.999  0.00  0.00    +0.000 A 
ATOM     22  C   UNL     1      -1.198  11.668  21.724  0.00  0.00    +0.000 A 
ATOM     23  C   UNL     1      -0.550  11.008  20.677  0.00  0.00    +0.000 A 
ENDBRANCH  17  18
ENDBRANCH   5  17
TORSDOF 4
ENDMDL
MODEL 8
REMARK VINA RESULT:      -7.5      1.388      2.143
REMARK  Name = 
REMARK  5 active torsions:
REMARK  status: ('A' for Active; 'I' for Inactive)
REMARK    1  A    between atoms: C_1  and  O_2
REMARK    2  A    between atoms: O_2  and  C_3
REMARK    3  A    between atoms: C_8  and  C_9
REMARK    4  A    between atoms: N_13  and  C_14
REMARK    5  A    between atoms: C_14  and  C_15
REMARK                            x       y       z     vdW  Elec       q    Type
REMARK                         _______ _______ _______ _____ _____    ______ ____
ROOT
ATOM      1  C   UNL     1       5.154   5.346  18.173  0.00  0.00    +0.000 C 
ATOM      2  N   UNL     1       4.984   6.584  17.821  0.00  0.00    +0.000 NA
ATOM      3  N   UNL     1       6.048   7.420  17.538  0.00  0.00    +0.000 NA
ATOM      4  C   UNL     1       7.248   7.229  17.980  0.00  0.00    +0.000 C 
ATOM      5  N   UNL     1       8.264   8.123  17.769  0.00  0.00    +0.000 N 
ATOM      6  S   UNL     1       7.742   5.855  18.927  0.00  0.00    +0.000 S 
ATOM      7  C   UNL     1       6.491   4.689  18.376  0.00  0.00    +0.000 C 
ATOM      8  H   UNL     1       9.150   7.867  18.179  0.00  0.00    +0.000 HD
ENDROOT
BRANCH   1  14
ATOM      9  C   UNL     1       3.850   3.316  19.048  0.00  0.00    +0.000 A 
ATOM     10  C   UNL     1       2.650   2.588  19.064  0.00  0.00    +0.000 A 
ATOM     11  C   UNL     1       1.533   3.030  18.351  0.00  0.00    +0.000 A 
ATOM     12  C   UNL     1       1.590   4.218  17.634  0.00  0.00    +0.000 A 
ATOM     13  C   UNL     1       2.767   4.964  17.632  0.00  0.00    +0.000 A 
ATOM     14  C   UNL     1       3.904   4.527  18.337  0.00  0.00    +0.000 A 
BRANCH   9  16
ATOM     15  C   UNL     1       4.794   1.748  20.548  0.00  0.00    +0.000 C 
ATOM     16  O   UNL     1       4.967   2.896  19.719  0.00  0.00    +0.000 OA
ENDBRANCH   9  16
ENDBRANCH   1  14
BRANCH   5  17
ATOM     17  C   UNL     1       7.999   9.549  17.739  0.00  0.00    +0.000 C 
BRANCH  17  18
ATOM     18  C   UNL     1       9.093  10.314  18.441  0.00  0.00    +0.000 A 
ATOM     19  C   UNL     1      10.068  10.993  17.694  0.00  0.00    +0.000 A 
ATOM     20  C   UNL     1      11.068  11.727  18.332  0.00  0.00    +0.000 A 
ATOM     21  C   UNL     1      11.099  11.801  19.723  0.00  0.00    +0.000 A 
ATOM     22  C   UNL     1      10.129  11.144  20.476  0.00  0.00    +0.000 A 
ATOM     23  C   UNL     1       9.129  10.405  19.841  0.00  0.00    +0.000 A 
ENDBRANCH  17  18
ENDBRANCH   5  17
TORSDOF 4
ENDMDL
MODEL 9
REMARK VINA RESULT:      -7.4      1.411      1.893
REMARK  Name = 
REMARK  5 active torsions:
REMARK  status: ('A' for Active; 'I' for Inactive)
REMARK    1  A    between atoms: C_1  and  O_2
REMARK    2  A    between atoms: O_2  and  C_3
REMARK    3  A    between atoms: C_8  and  C_9
REMARK    4  A    between atoms: N_13  and  C_14
REMARK    5  A    between atoms: C_14  and  C_15
REMARK                            x       y       z     vdW  Elec       q    Type
REMARK                         _______ _______ _______ _____ _____    ______ ____
ROOT
ATOM      1  C   UNL     1       5.183   5.299  18.169  0.00  0.00    +0.000 C 
ATOM      2  N   UNL     1       5.001   6.528  17.792  0.00  0.00    +0.000 NA
ATOM      3  N   UNL     1       6.057   7.375  17.513  0.00  0.00    +0.000 NA
ATOM      4  C   UNL     1       7.252   7.210  17.979  0.00  0.00    +0.000 C 
ATOM      5  N   UNL     1       8.258   8.115  17.770  0.00  0.00    +0.000 N 
ATOM      6  S   UNL     1       7.750   5.860  18.958  0.00  0.00    +0.000 S 
ATOM      7  C   UNL     1       6.526   4.666  18.406  0.00  0.00    +0.000 C 
ATOM      8  H   UNL     1       9.141   7.880  18.200  0.00  0.00    +0.000 HD
ENDROOT
BRANCH   1  14
ATOM      9  C   UNL     1       3.906   3.240  19.014  0.00  0.00    +0.000 A 
ATOM     10  C   UNL     1       2.714   2.499  19.024  0.00  0.00    +0.000 A 
ATOM     11  C   UNL     1       1.587   2.942  18.327  0.00  0.00    +0.000 A 
ATOM     12  C   UNL     1       1.627   4.144  17.632  0.00  0.00    +0.000 A 
ATOM     13  C   UNL     1       2.796   4.902  17.636  0.00  0.00    +0.000 A 
ATOM     14  C   UNL     1       3.943   4.464  18.325  0.00  0.00    +0.000 A 
BRANCH   9  16
ATOM     15  C   UNL     1       4.835   1.788  20.636  0.00  0.00    +0.000 C 
ATOM     16  O   UNL     1       5.032   2.818  19.669  0.00  0.00    +0.000 OA
ENDBRANCH   9  16
ENDBRANCH   1  14
BRANCH   5  17
ATOM     17  C   UNL     1       7.973   9.536  17.710  0.00  0.00    +0.000 C 
BRANCH  17  18
ATOM     18  C   UNL     1       9.053  10.331  18.400  0.00  0.00    +0.000 A 
ATOM     19  C   UNL     1       9.141  10.332  19.801  0.00  0.00    +0.000 A 
ATOM     20  C   UNL     1      10.153  11.040  20.449  0.00  0.00    +0.000 A 
ATOM     21  C   UNL     1      11.094  11.748  19.706  0.00  0.00    +0.000 A 
ATOM     22  C   UNL     1      11.028  11.744  18.314  0.00  0.00    +0.000 A 
ATOM     23  C   UNL     1      10.014  11.038  17.662  0.00  0.00    +0.000 A 
ENDBRANCH  17  18
ENDBRANCH   5  17
TORSDOF 4
ENDMDL
