MODEL 1
REMARK VINA RESULT:      -6.6      0.000      0.000
REMARK  Name = 
REMARK  6 active torsions:
REMARK  status: ('A' for Active; 'I' for Inactive)
REMARK    1  A    between atoms: C_1  and  C_2
REMARK    2  A    between atoms: C_2  and  C_3
REMARK    3  A    between atoms: C_7  and  C_8
REMARK    4  A    between atoms: C_8  and  C_9
REMARK    5  A    between atoms: C_10  and  N_11
REMARK    6  A    between atoms: C_12  and  S_13
REMARK                            x       y       z     vdW  Elec       q    Type
REMARK                         _______ _______ _______ _____ _____    ______ ____
ROOT
ATOM      1  N   UNL     1      -1.437  11.251  20.507  0.00  0.00    +0.000 NA
ATOM      2  C   UNL     1      -1.479  12.550  20.630  0.00  0.00    +0.000 C 
ATOM      3  N   UNL     1      -2.450  13.147  21.426  0.00  0.00    +0.000 N 
ATOM      4  C   UNL     1      -3.173  12.300  22.379  0.00  0.00    +0.000 C 
ATOM      5  C   UNL     1      -3.355  13.029  23.737  0.00  0.00    +0.000 C 
ATOM      6  C   UNL     1      -3.163  14.542  23.635  0.00  0.00    +0.000 C 
ATOM      7  C   UNL     1      -3.920  14.965  22.380  0.00  0.00    +0.000 C 
ATOM      8  C   UNL     1      -3.025  14.494  21.195  0.00  0.00    +0.000 C 
ATOM      9  C   UNL     1      -5.350  14.391  22.327  0.00  0.00    +0.000 A 
ATOM     10  C   UNL     1      -6.214  14.776  21.369  0.00  0.00    +0.000 A 
ATOM     11  C   UNL     1      -7.495  14.131  21.230  0.00  0.00    +0.000 A 
ATOM     12  C   UNL     1      -7.872  13.179  22.093  0.00  0.00    +0.000 A 
ATOM     13  C   UNL     1      -7.006  12.796  23.221  0.00  0.00    +0.000 A 
ATOM     14  O   UNL     1      -7.404  11.955  24.023  0.00  0.00    +0.000 OA
ATOM     15  N   UNL     1      -5.742  13.390  23.239  0.00  0.00    +0.000 N 
ATOM     16  C   UNL     1      -4.792  12.839  24.205  0.00  0.00    +0.000 C 
ENDROOT
BRANCH   1  22
ATOM     17  C   UNL     1      -0.544  10.248  18.410  0.00  0.00    +0.000 A 
ATOM     18  C   UNL     1       0.495   9.531  17.784  0.00  0.00    +0.000 A 
ATOM     19  C   UNL     1       1.505   8.929  18.525  0.00  0.00    +0.000 A 
ATOM     20  C   UNL     1       1.494   9.031  19.911  0.00  0.00    +0.000 A 
ATOM     21  C   UNL     1       0.519   9.807  20.560  0.00  0.00    +0.000 A 
ATOM     22  C   UNL     1      -0.476  10.492  19.804  0.00  0.00    +0.000 A 
BRANCH  17  24
ATOM     23  C   UNL     1      -2.851   9.717  17.405  0.00  0.00    +0.000 C 
ATOM     24  C   UNL     1      -1.714  10.719  17.569  0.00  0.00    +0.000 C 
ENDBRANCH  17  24
BRANCH  21  25
ATOM     25  C   UNL     1       0.523   9.772  22.078  0.00  0.00    +0.000 C 
ATOM     26  C   UNL     1      -0.558   8.853  22.644  0.00  0.00    +0.000 C 
ENDBRANCH  21  25
ENDBRANCH   1  22
BRANCH   2  27
ATOM     27  S   UNL     1      -0.326  13.659  19.890  0.00  0.00    +0.000 S 
ATOM     28  H   UNL     1      -0.918  13.634  18.686  0.00  0.00    +0.000 HD
ENDBRANCH   2  27
TORSDOF 4
ENDMDL
MODEL 2
REMARK VINA RESULT:      -6.3      0.759      2.488
REMARK  Name = 
REMARK  6 active torsions:
REMARK  status: ('A' for Active; 'I' for Inactive)
REMARK    1  A    between atoms: C_1  and  C_2
REMARK    2  A    between atoms: C_2  and  C_3
REMARK    3  A    between atoms: C_7  and  C_8
REMARK    4  A    between atoms: C_8  and  C_9
REMARK    5  A    between atoms: C_10  and  N_11
REMARK    6  A    between atoms: C_12  and  S_13
REMARK                            x       y       z     vdW  Elec       q    Type
REMARK                         _______ _______ _______ _____ _____    ______ ____
ROOT
ATOM      1  N   UNL     1      -1.665  11.447  20.871  0.00  0.00    +0.000 NA
ATOM      2  C   UNL     1      -1.542  12.680  21.286  0.00  0.00    +0.000 C 
ATOM      3  N   UNL     1      -2.509  13.239  22.114  0.00  0.00    +0.000 N 
ATOM      4  C   UNL     1      -3.448  12.334  22.782  0.00  0.00    +0.000 C 
ATOM      5  C   UNL     1      -3.687  12.773  24.252  0.00  0.00    +0.000 C 
ATOM      6  C   UNL     1      -3.279  14.221  24.517  0.00  0.00    +0.000 C 
ATOM      7  C   UNL     1      -3.818  15.021  23.334  0.00  0.00    +0.000 C 
ATOM      8  C   UNL     1      -2.863  14.678  22.152  0.00  0.00    +0.000 C 
ATOM      9  C   UNL     1      -5.296  14.708  23.031  0.00  0.00    +0.000 A 
ATOM     10  C   UNL     1      -5.981  15.423  22.119  0.00  0.00    +0.000 A 
ATOM     11  C   UNL     1      -7.313  15.036  21.728  0.00  0.00    +0.000 A 
ATOM     12  C   UNL     1      -7.916  13.994  22.314  0.00  0.00    +0.000 A 
ATOM     13  C   UNL     1      -7.250  13.244  23.392  0.00  0.00    +0.000 A 
ATOM     14  O   UNL     1      -7.850  12.325  23.942  0.00  0.00    +0.000 OA
ATOM     15  N   UNL     1      -5.927  13.609  23.652  0.00  0.00    +0.000 N 
ATOM     16  C   UNL     1      -5.181  12.720  24.541  0.00  0.00    +0.000 C 
ENDROOT
BRANCH   1  22
ATOM     17  C   UNL     1       0.359  10.014  20.649  0.00  0.00    +0.000 A 
ATOM     18  C   UNL     1       1.193   9.259  19.802  0.00  0.00    +0.000 A 
ATOM     19  C   UNL     1       1.051   9.305  18.420  0.00  0.00    +0.000 A 
ATOM     20  C   UNL     1       0.071  10.112  17.858  0.00  0.00    +0.000 A 
ATOM     21  C   UNL     1      -0.830  10.815  18.677  0.00  0.00    +0.000 A 
ATOM     22  C   UNL     1      -0.741  10.714  20.095  0.00  0.00    +0.000 A 
BRANCH  17  24
ATOM     23  C   UNL     1      -0.286   9.331  23.043  0.00  0.00    +0.000 C 
ATOM     24  C   UNL     1       0.683  10.071  22.129  0.00  0.00    +0.000 C 
ENDBRANCH  17  24
BRANCH  21  25
ATOM     25  C   UNL     1      -1.796  11.753  17.975  0.00  0.00    +0.000 C 
ATOM     26  C   UNL     1      -2.810  11.007  17.109  0.00  0.00    +0.000 C 
ENDBRANCH  21  25
ENDBRANCH   1  22
BRANCH   2  27
ATOM     27  S   UNL     1      -0.170  13.723  20.920  0.00  0.00    +0.000 S 
ATOM     28  H   UNL     1       0.015  14.102  22.194  0.00  0.00    +0.000 HD
ENDBRANCH   2  27
TORSDOF 4
ENDMDL
MODEL 3
REMARK VINA RESULT:      -6.2      1.239      1.478
REMARK  Name = 
REMARK  6 active torsions:
REMARK  status: ('A' for Active; 'I' for Inactive)
REMARK    1  A    between atoms: C_1  and  C_2
REMARK    2  A    between atoms: C_2  and  C_3
REMARK    3  A    between atoms: C_7  and  C_8
REMARK    4  A    between atoms: C_8  and  C_9
REMARK    5  A    between atoms: C_10  and  N_11
REMARK    6  A    between atoms: C_12  and  S_13
REMARK                            x       y       z     vdW  Elec       q    Type
REMARK                         _______ _______ _______ _____ _____    ______ ____
ROOT
ATOM      1  N   UNL     1      -1.524  11.538  21.196  0.00  0.00    +0.000 NA
ATOM      2  C   UNL     1      -1.371  12.697  21.778  0.00  0.00    +0.000 C 
ATOM      3  N   UNL     1      -2.379  13.214  22.584  0.00  0.00    +0.000 N 
ATOM      4  C   UNL     1      -3.429  12.301  23.041  0.00  0.00    +0.000 C 
ATOM      5  C   UNL     1      -3.783  12.568  24.529  0.00  0.00    +0.000 C 
ATOM      6  C   UNL     1      -3.319  13.940  25.017  0.00  0.00    +0.000 C 
ATOM      7  C   UNL     1      -3.695  14.917  23.906  0.00  0.00    +0.000 C 
ATOM      8  C   UNL     1      -2.651  14.659  22.778  0.00  0.00    +0.000 C 
ATOM      9  C   UNL     1      -5.153  14.748  23.435  0.00  0.00    +0.000 A 
ATOM     10  C   UNL     1      -5.703  15.618  22.567  0.00  0.00    +0.000 A 
ATOM     11  C   UNL     1      -7.011  15.376  22.013  0.00  0.00    +0.000 A 
ATOM     12  C   UNL     1      -7.728  14.314  22.402  0.00  0.00    +0.000 A 
ATOM     13  C   UNL     1      -7.213  13.390  23.427  0.00  0.00    +0.000 A 
ATOM     14  O   UNL     1      -7.916  12.454  23.796  0.00  0.00    +0.000 OA
ATOM     15  N   UNL     1      -5.902  13.627  23.848  0.00  0.00    +0.000 N 
ATOM     16  C   UNL     1      -5.299  12.583  24.675  0.00  0.00    +0.000 C 
ENDROOT
BRANCH   1  22
ATOM     17  C   UNL     1      -0.269  11.186  19.074  0.00  0.00    +0.000 A 
ATOM     18  C   UNL     1       0.739  10.475  18.394  0.00  0.00    +0.000 A 
ATOM     19  C   UNL     1       1.335   9.352  18.955  0.00  0.00    +0.000 A 
ATOM     20  C   UNL     1       0.931   8.915  20.210  0.00  0.00    +0.000 A 
ATOM     21  C   UNL     1      -0.013   9.649  20.950  0.00  0.00    +0.000 A 
ATOM     22  C   UNL     1      -0.574  10.845  20.415  0.00  0.00    +0.000 A 
BRANCH  17  24
ATOM     23  C   UNL     1      -0.245  13.587  18.153  0.00  0.00    +0.000 C 
ATOM     24  C   UNL     1      -1.011  12.283  18.337  0.00  0.00    +0.000 C 
ENDBRANCH  17  24
BRANCH  21  25
ATOM     25  C   UNL     1      -0.471   9.038  22.262  0.00  0.00    +0.000 C 
ATOM     26  C   UNL     1       0.359   9.520  23.451  0.00  0.00    +0.000 C 
ENDBRANCH  21  25
ENDBRANCH   1  22
BRANCH   2  27
ATOM     27  S   UNL     1       0.089  13.679  21.675  0.00  0.00    +0.000 S 
ATOM     28  H   UNL     1      -0.083  14.247  22.879  0.00  0.00    +0.000 HD
ENDBRANCH   2  27
TORSDOF 4
ENDMDL
MODEL 4
REMARK VINA RESULT:      -6.2      1.795      2.734
REMARK  Name = 
REMARK  6 active torsions:
REMARK  status: ('A' for Active; 'I' for Inactive)
REMARK    1  A    between atoms: C_1  and  C_2
REMARK    2  A    between atoms: C_2  and  C_3
REMARK    3  A    between atoms: C_7  and  C_8
REMARK    4  A    between atoms: C_8  and  C_9
REMARK    5  A    between atoms: C_10  and  N_11
REMARK    6  A    between atoms: C_12  and  S_13
REMARK                            x       y       z     vdW  Elec       q    Type
REMARK                         _______ _______ _______ _____ _____    ______ ____
ROOT
ATOM      1  N   UNL     1      -3.519  12.031  19.421  0.00  0.00    +0.000 NA
ATOM      2  C   UNL     1      -2.854  12.972  20.035  0.00  0.00    +0.000 C 
ATOM      3  N   UNL     1      -3.295  13.455  21.262  0.00  0.00    +0.000 N 
ATOM      4  C   UNL     1      -4.283  12.660  21.998  0.00  0.00    +0.000 C 
ATOM      5  C   UNL     1      -3.945  12.626  23.512  0.00  0.00    +0.000 C 
ATOM      6  C   UNL     1      -2.987  13.739  23.937  0.00  0.00    +0.000 C 
ATOM      7  C   UNL     1      -3.496  15.002  23.248  0.00  0.00    +0.000 C 
ATOM      8  C   UNL     1      -3.082  14.836  21.755  0.00  0.00    +0.000 C 
ATOM      9  C   UNL     1      -5.011  15.211  23.439  0.00  0.00    +0.000 A 
ATOM     10  C   UNL     1      -5.609  16.346  23.027  0.00  0.00    +0.000 A 
ATOM     11  C   UNL     1      -7.043  16.479  23.069  0.00  0.00    +0.000 A 
ATOM     12  C   UNL     1      -7.801  15.500  23.577  0.00  0.00    +0.000 A 
ATOM     13  C   UNL     1      -7.189  14.283  24.136  0.00  0.00    +0.000 A 
ATOM     14  O   UNL     1      -7.910  13.427  24.640  0.00  0.00    +0.000 OA
ATOM     15  N   UNL     1      -5.805  14.177  23.975  0.00  0.00    +0.000 N 
ATOM     16  C   UNL     1      -5.222  12.876  24.303  0.00  0.00    +0.000 C 
ENDROOT
BRANCH   1  22
ATOM     17  C   UNL     1      -3.961  11.430  17.046  0.00  0.00    +0.000 A 
ATOM     18  C   UNL     1      -3.496  10.804  15.872  0.00  0.00    +0.000 A 
ATOM     19  C   UNL     1      -2.350  10.018  15.877  0.00  0.00    +0.000 A 
ATOM     20  C   UNL     1      -1.646   9.840  17.062  0.00  0.00    +0.000 A 
ATOM     21  C   UNL     1      -2.036  10.515  18.231  0.00  0.00    +0.000 A 
ATOM     22  C   UNL     1      -3.165  11.384  18.217  0.00  0.00    +0.000 A 
BRANCH  17  24
ATOM     23  C   UNL     1      -6.402  11.451  17.854  0.00  0.00    +0.000 C 
ATOM     24  C   UNL     1      -5.313  12.115  17.020  0.00  0.00    +0.000 C 
ENDBRANCH  17  24
BRANCH  21  25
ATOM     25  C   UNL     1      -1.273  10.175  19.498  0.00  0.00    +0.000 C 
ATOM     26  C   UNL     1       0.234  10.080  19.264  0.00  0.00    +0.000 C 
ENDBRANCH  21  25
ENDBRANCH   1  22
BRANCH   2  27
ATOM     27  S   UNL     1      -1.349  13.675  19.447  0.00  0.00    +0.000 S 
ATOM     28  H   UNL     1      -1.465  14.795  20.178  0.00  0.00    +0.000 HD
ENDBRANCH   2  27
TORSDOF 4
ENDMDL
MODEL 5
REMARK VINA RESULT:      -6.1      8.479     10.263
REMARK  Name = 
REMARK  6 active torsions:
REMARK  status: ('A' for Active; 'I' for Inactive)
REMARK    1  A    between atoms: C_1  and  C_2
REMARK    2  A    between atoms: C_2  and  C_3
REMARK    3  A    between atoms: C_7  and  C_8
REMARK    4  A    between atoms: C_8  and  C_9
REMARK    5  A    between atoms: C_10  and  N_11
REMARK    6  A    between atoms: C_12  and  S_13
REMARK                            x       y       z     vdW  Elec       q    Type
REMARK                         _______ _______ _______ _____ _____    ______ ____
ROOT
ATOM      1  N   UNL     1       8.392  13.690  19.537  0.00  0.00    +0.000 NA
ATOM      2  C   UNL     1       7.972  14.752  18.903  0.00  0.00    +0.000 C 
ATOM      3  N   UNL     1       6.754  15.332  19.238  0.00  0.00    +0.000 N 
ATOM      4  C   UNL     1       6.143  14.956  20.516  0.00  0.00    +0.000 C 
ATOM      5  C   UNL     1       5.539  16.197  21.226  0.00  0.00    +0.000 C 
ATOM      6  C   UNL     1       5.320  17.379  20.281  0.00  0.00    +0.000 C 
ATOM      7  C   UNL     1       4.699  16.783  19.020  0.00  0.00    +0.000 C 
ATOM      8  C   UNL     1       5.877  16.066  18.295  0.00  0.00    +0.000 C 
ATOM      9  C   UNL     1       3.514  15.846  19.328  0.00  0.00    +0.000 A 
ATOM     10  C   UNL     1       2.752  15.346  18.337  0.00  0.00    +0.000 A 
ATOM     11  C   UNL     1       1.743  14.356  18.612  0.00  0.00    +0.000 A 
ATOM     12  C   UNL     1       1.503  13.962  19.869  0.00  0.00    +0.000 A 
ATOM     13  C   UNL     1       2.237  14.555  20.999  0.00  0.00    +0.000 A 
ATOM     14  O   UNL     1       1.957  14.208  22.143  0.00  0.00    +0.000 OA
ATOM     15  N   UNL     1       3.266  15.435  20.654  0.00  0.00    +0.000 N 
ATOM     16  C   UNL     1       4.153  15.838  21.744  0.00  0.00    +0.000 C 
ENDROOT
BRANCH   1  22
ATOM     17  C   UNL     1       9.790  11.859  18.593  0.00  0.00    +0.000 A 
ATOM     18  C   UNL     1      11.076  11.306  18.435  0.00  0.00    +0.000 A 
ATOM     19  C   UNL     1      12.165  11.798  19.144  0.00  0.00    +0.000 A 
ATOM     20  C   UNL     1      11.988  12.853  20.030  0.00  0.00    +0.000 A 
ATOM     21  C   UNL     1      10.735  13.479  20.151  0.00  0.00    +0.000 A 
ATOM     22  C   UNL     1       9.630  13.032  19.371  0.00  0.00    +0.000 A 
BRANCH  17  24
ATOM     23  C   UNL     1       8.504   9.665  18.205  0.00  0.00    +0.000 C 
ATOM     24  C   UNL     1       8.612  11.162  17.941  0.00  0.00    +0.000 C 
ENDBRANCH  17  24
BRANCH  21  25
ATOM     25  C   UNL     1      10.611  14.550  21.220  0.00  0.00    +0.000 C 
ATOM     26  C   UNL     1      11.111  15.912  20.742  0.00  0.00    +0.000 C 
ENDBRANCH  21  25
ENDBRANCH   1  22
BRANCH   2  27
ATOM     27  S   UNL     1       8.881  15.585  17.644  0.00  0.00    +0.000 S 
ATOM     28  H   UNL     1       7.815  16.248  17.168  0.00  0.00    +0.000 HD
ENDBRANCH   2  27
TORSDOF 4
ENDMDL
MODEL 6
REMARK VINA RESULT:      -6.0      8.648     10.605
REMARK  Name = 
REMARK  6 active torsions:
REMARK  status: ('A' for Active; 'I' for Inactive)
REMARK    1  A    between atoms: C_1  and  C_2
REMARK    2  A    between atoms: C_2  and  C_3
REMARK    3  A    between atoms: C_7  and  C_8
REMARK    4  A    between atoms: C_8  and  C_9
REMARK    5  A    between atoms: C_10  and  N_11
REMARK    6  A    between atoms: C_12  and  S_13
REMARK                            x       y       z     vdW  Elec       q    Type
REMARK                         _______ _______ _______ _____ _____    ______ ____
ROOT
ATOM      1  N   UNL     1       8.596  13.631  19.645  0.00  0.00    +0.000 NA
ATOM      2  C   UNL     1       8.180  14.651  18.944  0.00  0.00    +0.000 C 
ATOM      3  N   UNL     1       6.934  15.213  19.200  0.00  0.00    +0.000 N 
ATOM      4  C   UNL     1       6.278  14.881  20.467  0.00  0.00    +0.000 C 
ATOM      5  C   UNL     1       5.614  16.139  21.090  0.00  0.00    +0.000 C 
ATOM      6  C   UNL     1       5.407  17.268  20.082  0.00  0.00    +0.000 C 
ATOM      7  C   UNL     1       4.856  16.598  18.826  0.00  0.00    +0.000 C 
ATOM      8  C   UNL     1       6.081  15.879  18.187  0.00  0.00    +0.000 C 
ATOM      9  C   UNL     1       3.682  15.646  19.129  0.00  0.00    +0.000 A 
ATOM     10  C   UNL     1       2.976  15.082  18.131  0.00  0.00    +0.000 A 
ATOM     11  C   UNL     1       1.980  14.079  18.410  0.00  0.00    +0.000 A 
ATOM     12  C   UNL     1       1.695  13.738  19.673  0.00  0.00    +0.000 A 
ATOM     13  C   UNL     1       2.365  14.402  20.804  0.00  0.00    +0.000 A 
ATOM     14  O   UNL     1       2.045  14.101  21.950  0.00  0.00    +0.000 OA
ATOM     15  N   UNL     1       3.387  15.291  20.461  0.00  0.00    +0.000 N 
ATOM     16  C   UNL     1       4.216  15.768  21.567  0.00  0.00    +0.000 C 
ENDROOT
BRANCH   1  22
ATOM     17  C   UNL     1      11.049  13.567  20.074  0.00  0.00    +0.000 A 
ATOM     18  C   UNL     1      12.249  12.834  19.999  0.00  0.00    +0.000 A 
ATOM     19  C   UNL     1      12.320  11.633  19.304  0.00  0.00    +0.000 A 
ATOM     20  C   UNL     1      11.189  11.142  18.665  0.00  0.00    +0.000 A 
ATOM     21  C   UNL     1       9.956  11.807  18.788  0.00  0.00    +0.000 A 
ATOM     22  C   UNL     1       9.856  12.998  19.563  0.00  0.00    +0.000 A 
BRANCH  17  24
ATOM     23  C   UNL     1      12.094  15.917  20.075  0.00  0.00    +0.000 C 
ATOM     24  C   UNL     1      11.079  14.956  20.681  0.00  0.00    +0.000 C 
ENDBRANCH  17  24
BRANCH  21  25
ATOM     25  C   UNL     1       8.803  11.256  17.968  0.00  0.00    +0.000 C 
ATOM     26  C   UNL     1       8.584   9.762  18.200  0.00  0.00    +0.000 C 
ENDBRANCH  21  25
ENDBRANCH   1  22
BRANCH   2  27
ATOM     27  S   UNL     1       9.122  15.448  17.686  0.00  0.00    +0.000 S 
ATOM     28  H   UNL     1      10.248  14.769  17.954  0.00  0.00    +0.000 HD
ENDBRANCH   2  27
TORSDOF 4
ENDMDL
MODEL 7
REMARK VINA RESULT:      -6.0      5.088      9.733
REMARK  Name = 
REMARK  6 active torsions:
REMARK  status: ('A' for Active; 'I' for Inactive)
REMARK    1  A    between atoms: C_1  and  C_2
REMARK    2  A    between atoms: C_2  and  C_3
REMARK    3  A    between atoms: C_7  and  C_8
REMARK    4  A    between atoms: C_8  and  C_9
REMARK    5  A    between atoms: C_10  and  N_11
REMARK    6  A    between atoms: C_12  and  S_13
REMARK                            x       y       z     vdW  Elec       q    Type
REMARK                         _______ _______ _______ _____ _____    ______ ____
ROOT
ATOM      1  N   UNL     1       1.435   9.923  20.324  0.00  0.00    +0.000 NA
ATOM      2  C   UNL     1       1.154   9.341  19.189  0.00  0.00    +0.000 C 
ATOM      3  N   UNL     1       1.833   8.189  18.807  0.00  0.00    +0.000 N 
ATOM      4  C   UNL     1       2.586   7.463  19.833  0.00  0.00    +0.000 C 
ATOM      5  C   UNL     1       2.392   5.931  19.678  0.00  0.00    +0.000 C 
ATOM      6  C   UNL     1       1.871   5.530  18.298  0.00  0.00    +0.000 C 
ATOM      7  C   UNL     1       2.685   6.350  17.300  0.00  0.00    +0.000 C 
ATOM      8  C   UNL     1       2.106   7.793  17.405  0.00  0.00    +0.000 C 
ATOM      9  C   UNL     1       4.200   6.281  17.572  0.00  0.00    +0.000 A 
ATOM     10  C   UNL     1       5.082   6.821  16.709  0.00  0.00    +0.000 A 
ATOM     11  C   UNL     1       6.484   6.889  17.036  0.00  0.00    +0.000 A 
ATOM     12  C   UNL     1       6.942   6.358  18.177  0.00  0.00    +0.000 A 
ATOM     13  C   UNL     1       6.033   5.664  19.104  0.00  0.00    +0.000 A 
ATOM     14  O   UNL     1       6.494   5.146  20.118  0.00  0.00    +0.000 OA
ATOM     15  N   UNL     1       4.677   5.721  18.775  0.00  0.00    +0.000 N 
ATOM     16  C   UNL     1       3.750   5.252  19.804  0.00  0.00    +0.000 C 
ENDROOT
BRANCH   1  22
ATOM     17  C   UNL     1       1.155  12.382  20.595  0.00  0.00    +0.000 A 
ATOM     18  C   UNL     1       0.414  13.439  21.159  0.00  0.00    +0.000 A 
ATOM     19  C   UNL     1      -0.569  13.203  22.112  0.00  0.00    +0.000 A 
ATOM     20  C   UNL     1      -0.829  11.902  22.523  0.00  0.00    +0.000 A 
ATOM     21  C   UNL     1      -0.165  10.819  21.921  0.00  0.00    +0.000 A 
ATOM     22  C   UNL     1       0.790  11.045  20.889  0.00  0.00    +0.000 A 
BRANCH  17  24
ATOM     23  C   UNL     1       1.997  13.084  18.268  0.00  0.00    +0.000 C 
ATOM     24  C   UNL     1       2.338  12.714  19.707  0.00  0.00    +0.000 C 
ENDBRANCH  17  24
BRANCH  21  25
ATOM     25  C   UNL     1      -0.435   9.445  22.509  0.00  0.00    +0.000 C 
ATOM     26  C   UNL     1       0.317   9.212  23.818  0.00  0.00    +0.000 C 
ENDBRANCH  21  25
ENDBRANCH   1  22
BRANCH   2  27
ATOM     27  S   UNL     1      -0.103   9.878  18.078  0.00  0.00    +0.000 S 
ATOM     28  H   UNL     1      -0.110  11.141  18.531  0.00  0.00    +0.000 HD
ENDBRANCH   2  27
TORSDOF 4
ENDMDL
MODEL 8
REMARK VINA RESULT:      -6.0      4.482      7.076
REMARK  Name = 
REMARK  6 active torsions:
REMARK  status: ('A' for Active; 'I' for Inactive)
REMARK    1  A    between atoms: C_1  and  C_2
REMARK    2  A    between atoms: C_2  and  C_3
REMARK    3  A    between atoms: C_7  and  C_8
REMARK    4  A    between atoms: C_8  and  C_9
REMARK    5  A    between atoms: C_10  and  N_11
REMARK    6  A    between atoms: C_12  and  S_13
REMARK                            x       y       z     vdW  Elec       q    Type
REMARK                         _______ _______ _______ _____ _____    ______ ____
ROOT
ATOM      1  N   UNL     1      -2.155  12.690  19.075  0.00  0.00    +0.000 NA
ATOM      2  C   UNL     1      -1.059  12.206  19.596  0.00  0.00    +0.000 C 
ATOM      3  N   UNL     1       0.018  13.045  19.861  0.00  0.00    +0.000 N 
ATOM      4  C   UNL     1      -0.224  14.490  19.881  0.00  0.00    +0.000 C 
ATOM      5  C   UNL     1       0.536  15.160  21.056  0.00  0.00    +0.000 C 
ATOM      6  C   UNL     1       1.665  14.293  21.612  0.00  0.00    +0.000 C 
ATOM      7  C   UNL     1       2.390  13.734  20.390  0.00  0.00    +0.000 C 
ATOM      8  C   UNL     1       1.441  12.630  19.834  0.00  0.00    +0.000 C 
ATOM      9  C   UNL     1       2.730  14.822  19.353  0.00  0.00    +0.000 A 
ATOM     10  C   UNL     1       3.496  14.540  18.283  0.00  0.00    +0.000 A 
ATOM     11  C   UNL     1       3.689  15.515  17.239  0.00  0.00    +0.000 A 
ATOM     12  C   UNL     1       3.161  16.740  17.348  0.00  0.00    +0.000 A 
ATOM     13  C   UNL     1       2.402  17.131  18.548  0.00  0.00    +0.000 A 
ATOM     14  O   UNL     1       1.973  18.278  18.637  0.00  0.00    +0.000 OA
ATOM     15  N   UNL     1       2.170  16.111  19.473  0.00  0.00    +0.000 N 
ATOM     16  C   UNL     1       1.219  16.420  20.540  0.00  0.00    +0.000 C 
ENDROOT
BRANCH   1  22
ATOM     17  C   UNL     1      -3.548  11.163  17.685  0.00  0.00    +0.000 A 
ATOM     18  C   UNL     1      -4.759  10.458  17.545  0.00  0.00    +0.000 A 
ATOM     19  C   UNL     1      -5.824  10.673  18.411  0.00  0.00    +0.000 A 
ATOM     20  C   UNL     1      -5.699  11.602  19.436  0.00  0.00    +0.000 A 
ATOM     21  C   UNL     1      -4.478  12.262  19.654  0.00  0.00    +0.000 A 
ATOM     22  C   UNL     1      -3.355  11.992  18.818  0.00  0.00    +0.000 A 
BRANCH  17  24
ATOM     23  C   UNL     1      -2.943  10.310  15.335  0.00  0.00    +0.000 C 
ATOM     24  C   UNL     1      -2.495  11.027  16.603  0.00  0.00    +0.000 C 
ENDBRANCH  17  24
BRANCH  21  25
ATOM     25  C   UNL     1      -4.468  13.336  20.727  0.00  0.00    +0.000 C 
ATOM     26  C   UNL     1      -4.142  12.775  22.111  0.00  0.00    +0.000 C 
ENDBRANCH  21  25
ENDBRANCH   1  22
BRANCH   2  27
ATOM     27  S   UNL     1      -0.837  10.523  20.067  0.00  0.00    +0.000 S 
ATOM     28  H   UNL     1       0.381  10.420  19.512  0.00  0.00    +0.000 HD
ENDBRANCH   2  27
TORSDOF 4
ENDMDL
MODEL 9
REMARK VINA RESULT:      -5.8      8.606     12.113
REMARK  Name = 
REMARK  6 active torsions:
REMARK  status: ('A' for Active; 'I' for Inactive)
REMARK    1  A    between atoms: C_1  and  C_2
REMARK    2  A    between atoms: C_2  and  C_3
REMARK    3  A    between atoms: C_7  and  C_8
REMARK    4  A    between atoms: C_8  and  C_9
REMARK    5  A    between atoms: C_10  and  N_11
REMARK    6  A    between atoms: C_12  and  S_13
REMARK                            x       y       z     vdW  Elec       q    Type
REMARK                         _______ _______ _______ _____ _____    ______ ____
ROOT
ATOM      1  N   UNL     1       4.986  15.235  20.532  0.00  0.00    +0.000 NA
ATOM      2  C   UNL     1       5.680  14.776  21.539  0.00  0.00    +0.000 C 
ATOM      3  N   UNL     1       6.993  14.358  21.351  0.00  0.00    +0.000 N 
ATOM      4  C   UNL     1       7.675  14.767  20.119  0.00  0.00    +0.000 C 
ATOM      5  C   UNL     1       9.140  15.185  20.414  0.00  0.00    +0.000 C 
ATOM      6  C   UNL     1       9.652  14.668  21.758  0.00  0.00    +0.000 C 
ATOM      7  C   UNL     1       9.191  13.215  21.838  0.00  0.00    +0.000 C 
ATOM      8  C   UNL     1       7.665  13.296  22.137  0.00  0.00    +0.000 C 
ATOM      9  C   UNL     1       9.519  12.417  20.560  0.00  0.00    +0.000 A 
ATOM     10  C   UNL     1       9.320  11.087  20.507  0.00  0.00    +0.000 A 
ATOM     11  C   UNL     1       9.483  10.367  19.269  0.00  0.00    +0.000 A 
ATOM     12  C   UNL     1       9.897  11.001  18.165  0.00  0.00    +0.000 A 
ATOM     13  C   UNL     1      10.229  12.436  18.197  0.00  0.00    +0.000 A 
ATOM     14  O   UNL     1      10.653  12.975  17.179  0.00  0.00    +0.000 OA
ATOM     15  N   UNL     1       9.955  13.090  19.401  0.00  0.00    +0.000 N 
ATOM     16  C   UNL     1      10.048  14.549  19.369  0.00  0.00    +0.000 C 
ENDROOT
BRANCH   1  22
ATOM     17  C   UNL     1       2.520  15.008  20.269  0.00  0.00    +0.000 A 
ATOM     18  C   UNL     1       1.252  15.608  20.394  0.00  0.00    +0.000 A 
ATOM     19  C   UNL     1       1.118  16.965  20.660  0.00  0.00    +0.000 A 
ATOM     20  C   UNL     1       2.254  17.752  20.804  0.00  0.00    +0.000 A 
ATOM     21  C   UNL     1       3.533  17.170  20.766  0.00  0.00    +0.000 A 
ATOM     22  C   UNL     1       3.679  15.766  20.571  0.00  0.00    +0.000 A 
BRANCH  17  24
ATOM     23  C   UNL     1       2.576  13.376  18.282  0.00  0.00    +0.000 C 
ATOM     24  C   UNL     1       2.604  13.571  19.793  0.00  0.00    +0.000 C 
ENDBRANCH  17  24
BRANCH  21  25
ATOM     25  C   UNL     1       4.714  18.122  20.825  0.00  0.00    +0.000 C 
ATOM     26  C   UNL     1       5.077  18.514  22.256  0.00  0.00    +0.000 C 
ENDBRANCH  21  25
ENDBRANCH   1  22
BRANCH   2  27
ATOM     27  S   UNL     1       5.094  14.692  23.198  0.00  0.00    +0.000 S 
ATOM     28  H   UNL     1       6.283  14.340  23.711  0.00  0.00    +0.000 HD
ENDBRANCH   2  27
TORSDOF 4
ENDMDL
