MODEL 1
REMARK VINA RESULT:      -8.7      0.000      0.000
REMARK  Name = 
REMARK  3 active torsions:
REMARK  status: ('A' for Active; 'I' for Inactive)
REMARK    1  A    between atoms: C_1  and  C_2
REMARK    2  A    between atoms: N_4  and  C_5
REMARK    3  A    between atoms: C_15  and  C_16
REMARK                            x       y       z     vdW  Elec       q    Type
REMARK                         _______ _______ _______ _____ _____    ______ ____
ROOT
ATOM      1  C   UNL     1       1.525   9.295  18.841  0.00  0.00    +0.000 A 
ATOM      2  C   UNL     1       2.238   8.681  17.795  0.00  0.00    +0.000 A 
ATOM      3  C   UNL     1       2.766   7.393  17.924  0.00  0.00    +0.000 A 
ATOM      4  C   UNL     1       2.568   6.716  19.108  0.00  0.00    +0.000 A 
ATOM      5  C   UNL     1       1.865   7.329  20.151  0.00  0.00    +0.000 A 
ATOM      6  C   UNL     1       1.362   8.617  20.059  0.00  0.00    +0.000 A 
ATOM      7  N   UNL     1       1.730   6.448  21.226  0.00  0.00    +0.000 N 
ATOM      8  C   UNL     1       2.310   5.218  20.949  0.00  0.00    +0.000 C 
ATOM      9  O   UNL     1       2.336   4.236  21.665  0.00  0.00    +0.000 OA
ATOM     10  C   UNL     1       2.910   5.371  19.576  0.00  0.00    +0.000 C 
ATOM     11  C   UNL     1       3.642   4.392  19.026  0.00  0.00    +0.000 C 
ATOM     12  H   UNL     1       1.243   6.635  22.088  0.00  0.00    +0.000 HD
ENDROOT
BRANCH  11  13
ATOM     13  C   UNL     1       4.364   4.513  17.756  0.00  0.00    +0.000 A 
ATOM     14  C   UNL     1       3.885   3.814  16.640  0.00  0.00    +0.000 A 
ATOM     15  C   UNL     1       4.581   3.825  15.424  0.00  0.00    +0.000 A 
ATOM     16  C   UNL     1       5.779   4.551  15.341  0.00  0.00    +0.000 A 
ATOM     17  C   UNL     1       6.759   4.789  14.352  0.00  0.00    +0.000 A 
ATOM     18  N   UNL     1       7.750   5.575  14.785  0.00  0.00    +0.000 NA
ATOM     19  N   UNL     1       7.402   5.840  16.057  0.00  0.00    +0.000 N 
ATOM     20  C   UNL     1       6.231   5.251  16.455  0.00  0.00    +0.000 A 
ATOM     21  C   UNL     1       5.547   5.263  17.678  0.00  0.00    +0.000 A 
ATOM     22  H   UNL     1       8.018   6.427  16.607  0.00  0.00    +0.000 HD
ENDBRANCH  11  13
BRANCH   1  26
ATOM     23  C   UNL     1      -0.689  12.326  18.449  0.00  0.00    +0.000 C 
ATOM     24  C   UNL     1      -0.404  10.860  18.630  0.00  0.00    +0.000 C 
ATOM     25  O   UNL     1      -1.325  10.053  18.703  0.00  0.00    +0.000 OA
ATOM     26  N   UNL     1       0.952  10.580  18.712  0.00  0.00    +0.000 N 
ATOM     27  H   UNL     1       1.579  11.371  18.807  0.00  0.00    +0.000 HD
ENDBRANCH   1  26
TORSDOF 2
ENDMDL
MODEL 2
REMARK VINA RESULT:      -8.6      1.195      1.578
REMARK  Name = 
REMARK  3 active torsions:
REMARK  status: ('A' for Active; 'I' for Inactive)
REMARK    1  A    between atoms: C_1  and  C_2
REMARK    2  A    between atoms: N_4  and  C_5
REMARK    3  A    between atoms: C_15  and  C_16
REMARK                            x       y       z     vdW  Elec       q    Type
REMARK                         _______ _______ _______ _____ _____    ______ ____
ROOT
ATOM      1  C   UNL     1       1.845   9.027  18.531  0.00  0.00    +0.000 A 
ATOM      2  C   UNL     1       2.750   8.411  17.648  0.00  0.00    +0.000 A 
ATOM      3  C   UNL     1       3.275   7.140  17.903  0.00  0.00    +0.000 A 
ATOM      4  C   UNL     1       2.882   6.484  19.050  0.00  0.00    +0.000 A 
ATOM      5  C   UNL     1       1.988   7.100  19.932  0.00  0.00    +0.000 A 
ATOM      6  C   UNL     1       1.480   8.371  19.717  0.00  0.00    +0.000 A 
ATOM      7  N   UNL     1       1.681   6.239  20.988  0.00  0.00    +0.000 N 
ATOM      8  C   UNL     1       2.331   5.020  20.853  0.00  0.00    +0.000 C 
ATOM      9  O   UNL     1       2.249   4.055  21.587  0.00  0.00    +0.000 OA
ATOM     10  C   UNL     1       3.165   5.160  19.607  0.00  0.00    +0.000 C 
ATOM     11  C   UNL     1       4.008   4.189  19.223  0.00  0.00    +0.000 C 
ATOM     12  H   UNL     1       1.042   6.431  21.743  0.00  0.00    +0.000 HD
ENDROOT
BRANCH  11  13
ATOM     13  C   UNL     1       4.945   4.303  18.102  0.00  0.00    +0.000 A 
ATOM     14  C   UNL     1       6.226   4.813  18.345  0.00  0.00    +0.000 A 
ATOM     15  C   UNL     1       7.134   5.022  17.298  0.00  0.00    +0.000 A 
ATOM     16  C   UNL     1       6.733   4.715  15.989  0.00  0.00    +0.000 A 
ATOM     17  C   UNL     1       7.308   4.799  14.701  0.00  0.00    +0.000 A 
ATOM     18  N   UNL     1       6.486   4.368  13.739  0.00  0.00    +0.000 NA
ATOM     19  N   UNL     1       5.380   4.008  14.414  0.00  0.00    +0.000 N 
ATOM     20  C   UNL     1       5.462   4.194  15.769  0.00  0.00    +0.000 A 
ATOM     21  C   UNL     1       4.541   3.966  16.801  0.00  0.00    +0.000 A 
ATOM     22  H   UNL     1       4.595   3.647  13.885  0.00  0.00    +0.000 HD
ENDBRANCH  11  13
BRANCH   1  26
ATOM     23  C   UNL     1       0.342  12.488  18.615  0.00  0.00    +0.000 C 
ATOM     24  C   UNL     1       0.991  11.268  19.211  0.00  0.00    +0.000 C 
ATOM     25  O   UNL     1       1.227  11.216  20.413  0.00  0.00    +0.000 OA
ATOM     26  N   UNL     1       1.275  10.293  18.267  0.00  0.00    +0.000 N 
ATOM     27  H   UNL     1       1.177  10.554  17.293  0.00  0.00    +0.000 HD
ENDBRANCH   1  26
TORSDOF 2
ENDMDL
MODEL 3
REMARK VINA RESULT:      -8.4      4.534      6.733
REMARK  Name = 
REMARK  3 active torsions:
REMARK  status: ('A' for Active; 'I' for Inactive)
REMARK    1  A    between atoms: C_1  and  C_2
REMARK    2  A    between atoms: N_4  and  C_5
REMARK    3  A    between atoms: C_15  and  C_16
REMARK                            x       y       z     vdW  Elec       q    Type
REMARK                         _______ _______ _______ _____ _____    ______ ____
ROOT
ATOM      1  C   UNL     1       7.655   7.061  18.230  0.00  0.00    +0.000 A 
ATOM      2  C   UNL     1       6.647   6.423  18.976  0.00  0.00    +0.000 A 
ATOM      3  C   UNL     1       5.819   5.451  18.409  0.00  0.00    +0.000 A 
ATOM      4  C   UNL     1       6.010   5.113  17.087  0.00  0.00    +0.000 A 
ATOM      5  C   UNL     1       7.008   5.752  16.342  0.00  0.00    +0.000 A 
ATOM      6  C   UNL     1       7.819   6.742  16.873  0.00  0.00    +0.000 A 
ATOM      7  N   UNL     1       7.068   5.217  15.054  0.00  0.00    +0.000 N 
ATOM      8  C   UNL     1       6.141   4.197  14.886  0.00  0.00    +0.000 C 
ATOM      9  O   UNL     1       5.964   3.517  13.894  0.00  0.00    +0.000 OA
ATOM     10  C   UNL     1       5.396   4.129  16.193  0.00  0.00    +0.000 C 
ATOM     11  C   UNL     1       4.349   3.305  16.353  0.00  0.00    +0.000 C 
ATOM     12  H   UNL     1       7.716   5.483  14.331  0.00  0.00    +0.000 HD
ENDROOT
BRANCH  11  13
ATOM     13  C   UNL     1       3.496   3.274  17.544  0.00  0.00    +0.000 A 
ATOM     14  C   UNL     1       2.251   3.914  17.497  0.00  0.00    +0.000 A 
ATOM     15  C   UNL     1       1.431   3.989  18.631  0.00  0.00    +0.000 A 
ATOM     16  C   UNL     1       1.883   3.411  19.827  0.00  0.00    +0.000 A 
ATOM     17  C   UNL     1       1.397   3.293  21.149  0.00  0.00    +0.000 A 
ATOM     18  N   UNL     1       2.236   2.629  21.950  0.00  0.00    +0.000 NA
ATOM     19  N   UNL     1       3.263   2.322  21.138  0.00  0.00    +0.000 N 
ATOM     20  C   UNL     1       3.115   2.766  19.850  0.00  0.00    +0.000 A 
ATOM     21  C   UNL     1       3.947   2.669  18.727  0.00  0.00    +0.000 A 
ATOM     22  H   UNL     1       4.044   1.810  21.531  0.00  0.00    +0.000 HD
ENDBRANCH  11  13
BRANCH   1  26
ATOM     23  C   UNL     1       9.629  10.114  19.245  0.00  0.00    +0.000 C 
ATOM     24  C   UNL     1       8.551   9.371  18.503  0.00  0.00    +0.000 C 
ATOM     25  O   UNL     1       7.800   9.968  17.739  0.00  0.00    +0.000 OA
ATOM     26  N   UNL     1       8.526   8.017  18.800  0.00  0.00    +0.000 N 
ATOM     27  H   UNL     1       9.098   7.707  19.577  0.00  0.00    +0.000 HD
ENDBRANCH   1  26
TORSDOF 2
ENDMDL
MODEL 4
REMARK VINA RESULT:      -8.0      3.878      7.612
REMARK  Name = 
REMARK  3 active torsions:
REMARK  status: ('A' for Active; 'I' for Inactive)
REMARK    1  A    between atoms: C_1  and  C_2
REMARK    2  A    between atoms: N_4  and  C_5
REMARK    3  A    between atoms: C_15  and  C_16
REMARK                            x       y       z     vdW  Elec       q    Type
REMARK                         _______ _______ _______ _____ _____    ______ ____
ROOT
ATOM      1  C   UNL     1       6.271   3.771  14.179  0.00  0.00    +0.000 A 
ATOM      2  C   UNL     1       5.122   3.555  14.961  0.00  0.00    +0.000 A 
ATOM      3  C   UNL     1       4.859   4.316  16.105  0.00  0.00    +0.000 A 
ATOM      4  C   UNL     1       5.753   5.303  16.458  0.00  0.00    +0.000 A 
ATOM      5  C   UNL     1       6.900   5.513  15.684  0.00  0.00    +0.000 A 
ATOM      6  C   UNL     1       7.198   4.750  14.566  0.00  0.00    +0.000 A 
ATOM      7  N   UNL     1       7.629   6.594  16.183  0.00  0.00    +0.000 N 
ATOM      8  C   UNL     1       7.004   7.161  17.285  0.00  0.00    +0.000 C 
ATOM      9  O   UNL     1       7.369   8.128  17.925  0.00  0.00    +0.000 OA
ATOM     10  C   UNL     1       5.784   6.309  17.521  0.00  0.00    +0.000 C 
ATOM     11  C   UNL     1       4.988   6.516  18.581  0.00  0.00    +0.000 C 
ATOM     12  H   UNL     1       8.479   6.968  15.792  0.00  0.00    +0.000 HD
ENDROOT
BRANCH  11  13
ATOM     13  C   UNL     1       3.862   5.653  18.950  0.00  0.00    +0.000 A 
ATOM     14  C   UNL     1       2.620   5.869  18.339  0.00  0.00    +0.000 A 
ATOM     15  C   UNL     1       1.490   5.131  18.714  0.00  0.00    +0.000 A 
ATOM     16  C   UNL     1       1.621   4.166  19.724  0.00  0.00    +0.000 A 
ATOM     17  C   UNL     1       0.761   3.263  20.388  0.00  0.00    +0.000 A 
ATOM     18  N   UNL     1       1.393   2.533  21.312  0.00  0.00    +0.000 NA
ATOM     19  N   UNL     1       2.662   2.970  21.239  0.00  0.00    +0.000 N 
ATOM     20  C   UNL     1       2.866   3.954  20.308  0.00  0.00    +0.000 A 
ATOM     21  C   UNL     1       4.012   4.672  19.943  0.00  0.00    +0.000 A 
ATOM     22  H   UNL     1       3.345   2.559  21.865  0.00  0.00    +0.000 HD
ENDBRANCH  11  13
BRANCH   1  26
ATOM     23  C   UNL     1       6.203   1.981  10.857  0.00  0.00    +0.000 C 
ATOM     24  C   UNL     1       5.644   2.854  11.947  0.00  0.00    +0.000 C 
ATOM     25  O   UNL     1       4.519   3.331  11.844  0.00  0.00    +0.000 OA
ATOM     26  N   UNL     1       6.529   3.037  12.999  0.00  0.00    +0.000 N 
ATOM     27  H   UNL     1       7.481   2.720  12.858  0.00  0.00    +0.000 HD
ENDBRANCH   1  26
TORSDOF 2
ENDMDL
MODEL 5
REMARK VINA RESULT:      -7.9      3.825      6.828
REMARK  Name = 
REMARK  3 active torsions:
REMARK  status: ('A' for Active; 'I' for Inactive)
REMARK    1  A    between atoms: C_1  and  C_2
REMARK    2  A    between atoms: N_4  and  C_5
REMARK    3  A    between atoms: C_15  and  C_16
REMARK                            x       y       z     vdW  Elec       q    Type
REMARK                         _______ _______ _______ _____ _____    ______ ____
ROOT
ATOM      1  C   UNL     1      -3.430  10.334  15.672  0.00  0.00    +0.000 A 
ATOM      2  C   UNL     1      -2.330   9.516  15.987  0.00  0.00    +0.000 A 
ATOM      3  C   UNL     1      -1.585   9.704  17.155  0.00  0.00    +0.000 A 
ATOM      4  C   UNL     1      -1.955  10.715  18.015  0.00  0.00    +0.000 A 
ATOM      5  C   UNL     1      -3.045  11.534  17.699  0.00  0.00    +0.000 A 
ATOM      6  C   UNL     1      -3.776  11.388  16.532  0.00  0.00    +0.000 A 
ATOM      7  N   UNL     1      -3.279  12.446  18.730  0.00  0.00    +0.000 N 
ATOM      8  C   UNL     1      -2.382  12.270  19.776  0.00  0.00    +0.000 C 
ATOM      9  O   UNL     1      -2.342  12.883  20.825  0.00  0.00    +0.000 OA
ATOM     10  C   UNL     1      -1.467  11.164  19.321  0.00  0.00    +0.000 C 
ATOM     11  C   UNL     1      -0.408  10.794  20.056  0.00  0.00    +0.000 C 
ATOM     12  H   UNL     1      -4.020  13.128  18.762  0.00  0.00    +0.000 HD
ENDROOT
BRANCH  11  13
ATOM     13  C   UNL     1       0.600   9.820  19.623  0.00  0.00    +0.000 A 
ATOM     14  C   UNL     1       1.200   9.986  18.369  0.00  0.00    +0.000 A 
ATOM     15  C   UNL     1       2.106   9.042  17.868  0.00  0.00    +0.000 A 
ATOM     16  C   UNL     1       2.402   7.914  18.649  0.00  0.00    +0.000 A 
ATOM     17  C   UNL     1       3.206   6.761  18.509  0.00  0.00    +0.000 A 
ATOM     18  N   UNL     1       3.141   5.954  19.572  0.00  0.00    +0.000 NA
ATOM     19  N   UNL     1       2.291   6.593  20.396  0.00  0.00    +0.000 N 
ATOM     20  C   UNL     1       1.808   7.775  19.899  0.00  0.00    +0.000 A 
ATOM     21  C   UNL     1       0.907   8.711  20.425  0.00  0.00    +0.000 A 
ATOM     22  H   UNL     1       2.074   6.160  21.286  0.00  0.00    +0.000 HD
ENDBRANCH  11  13
BRANCH   1  26
ATOM     23  C   UNL     1      -4.825   9.737  12.217  0.00  0.00    +0.000 C 
ATOM     24  C   UNL     1      -3.733   9.851  13.246  0.00  0.00    +0.000 C 
ATOM     25  O   UNL     1      -2.560   9.688  12.926  0.00  0.00    +0.000 OA
ATOM     26  N   UNL     1      -4.216  10.131  14.516  0.00  0.00    +0.000 N 
ATOM     27  H   UNL     1      -5.218  10.066  14.650  0.00  0.00    +0.000 HD
ENDBRANCH   1  26
TORSDOF 2
ENDMDL
MODEL 6
REMARK VINA RESULT:      -7.8      1.655      2.101
REMARK  Name = 
REMARK  3 active torsions:
REMARK  status: ('A' for Active; 'I' for Inactive)
REMARK    1  A    between atoms: C_1  and  C_2
REMARK    2  A    between atoms: N_4  and  C_5
REMARK    3  A    between atoms: C_15  and  C_16
REMARK                            x       y       z     vdW  Elec       q    Type
REMARK                         _______ _______ _______ _____ _____    ______ ____
ROOT
ATOM      1  C   UNL     1       1.671   8.017  19.759  0.00  0.00    +0.000 A 
ATOM      2  C   UNL     1       2.616   7.742  18.754  0.00  0.00    +0.000 A 
ATOM      3  C   UNL     1       3.214   6.484  18.633  0.00  0.00    +0.000 A 
ATOM      4  C   UNL     1       2.853   5.495  19.523  0.00  0.00    +0.000 A 
ATOM      5  C   UNL     1       1.918   5.770  20.527  0.00  0.00    +0.000 A 
ATOM      6  C   UNL     1       1.338   7.018  20.687  0.00  0.00    +0.000 A 
ATOM      7  N   UNL     1       1.656   4.619  21.271  0.00  0.00    +0.000 N 
ATOM      8  C   UNL     1       2.377   3.532  20.795  0.00  0.00    +0.000 C 
ATOM      9  O   UNL     1       2.348   2.389  21.208  0.00  0.00    +0.000 OA
ATOM     10  C   UNL     1       3.210   4.082  19.668  0.00  0.00    +0.000 C 
ATOM     11  C   UNL     1       4.111   3.317  19.034  0.00  0.00    +0.000 C 
ATOM     12  H   UNL     1       1.001   4.542  22.034  0.00  0.00    +0.000 HD
ENDROOT
BRANCH  11  13
ATOM     13  C   UNL     1       5.047   3.811  18.019  0.00  0.00    +0.000 A 
ATOM     14  C   UNL     1       6.201   4.484  18.439  0.00  0.00    +0.000 A 
ATOM     15  C   UNL     1       7.088   5.050  17.514  0.00  0.00    +0.000 A 
ATOM     16  C   UNL     1       6.796   4.936  16.146  0.00  0.00    +0.000 A 
ATOM     17  C   UNL     1       7.387   5.369  14.939  0.00  0.00    +0.000 A 
ATOM     18  N   UNL     1       6.694   4.994  13.860  0.00  0.00    +0.000 NA
ATOM     19  N   UNL     1       5.653   4.319  14.379  0.00  0.00    +0.000 N 
ATOM     20  C   UNL     1       5.653   4.250  15.748  0.00  0.00    +0.000 A 
ATOM     21  C   UNL     1       4.757   3.667  16.654  0.00  0.00    +0.000 A 
ATOM     22  H   UNL     1       4.968   3.934  13.739  0.00  0.00    +0.000 HD
ENDBRANCH  11  13
BRANCH   1  26
ATOM     23  C   UNL     1       0.155  11.306  20.820  0.00  0.00    +0.000 C 
ATOM     24  C   UNL     1       0.949  10.043  21.018  0.00  0.00    +0.000 C 
ATOM     25  O   UNL     1       1.454   9.792  22.107  0.00  0.00    +0.000 OA
ATOM     26  N   UNL     1       1.029   9.271  19.869  0.00  0.00    +0.000 N 
ATOM     27  H   UNL     1       0.706   9.695  19.008  0.00  0.00    +0.000 HD
ENDBRANCH   1  26
TORSDOF 2
ENDMDL
MODEL 7
REMARK VINA RESULT:      -7.4      3.937      7.605
REMARK  Name = 
REMARK  3 active torsions:
REMARK  status: ('A' for Active; 'I' for Inactive)
REMARK    1  A    between atoms: C_1  and  C_2
REMARK    2  A    between atoms: N_4  and  C_5
REMARK    3  A    between atoms: C_15  and  C_16
REMARK                            x       y       z     vdW  Elec       q    Type
REMARK                         _______ _______ _______ _____ _____    ______ ____
ROOT
ATOM      1  C   UNL     1       6.309   3.672  14.215  0.00  0.00    +0.000 A 
ATOM      2  C   UNL     1       5.337   3.303  15.163  0.00  0.00    +0.000 A 
ATOM      3  C   UNL     1       5.203   3.981  16.378  0.00  0.00    +0.000 A 
ATOM      4  C   UNL     1       6.047   5.039  16.638  0.00  0.00    +0.000 A 
ATOM      5  C   UNL     1       7.018   5.401  15.698  0.00  0.00    +0.000 A 
ATOM      6  C   UNL     1       7.191   4.724  14.502  0.00  0.00    +0.000 A 
ATOM      7  N   UNL     1       7.716   6.529  16.135  0.00  0.00    +0.000 N 
ATOM      8  C   UNL     1       7.238   6.978  17.358  0.00  0.00    +0.000 C 
ATOM      9  O   UNL     1       7.615   7.949  17.987  0.00  0.00    +0.000 OA
ATOM     10  C   UNL     1       6.164   5.995  17.741  0.00  0.00    +0.000 C 
ATOM     11  C   UNL     1       5.546   6.071  18.929  0.00  0.00    +0.000 C 
ATOM     12  H   UNL     1       8.448   7.006  15.632  0.00  0.00    +0.000 HD
ENDROOT
BRANCH  11  13
ATOM     13  C   UNL     1       4.587   5.080  19.427  0.00  0.00    +0.000 A 
ATOM     14  C   UNL     1       5.018   3.760  19.613  0.00  0.00    +0.000 A 
ATOM     15  C   UNL     1       4.126   2.754  20.005  0.00  0.00    +0.000 A 
ATOM     16  C   UNL     1       2.778   3.091  20.207  0.00  0.00    +0.000 A 
ATOM     17  C   UNL     1       1.598   2.402  20.563  0.00  0.00    +0.000 A 
ATOM     18  N   UNL     1       0.529   3.202  20.619  0.00  0.00    +0.000 NA
ATOM     19  N   UNL     1       1.027   4.408  20.296  0.00  0.00    +0.000 N 
ATOM     20  C   UNL     1       2.372   4.410  20.032  0.00  0.00    +0.000 A 
ATOM     21  C   UNL     1       3.248   5.435  19.650  0.00  0.00    +0.000 A 
ATOM     22  H   UNL     1       0.389   5.194  20.264  0.00  0.00    +0.000 HD
ENDBRANCH  11  13
BRANCH   1  26
ATOM     23  C   UNL     1       5.871   2.151  10.788  0.00  0.00    +0.000 C 
ATOM     24  C   UNL     1       5.450   2.960  11.986  0.00  0.00    +0.000 C 
ATOM     25  O   UNL     1       4.345   3.490  12.019  0.00  0.00    +0.000 OA
ATOM     26  N   UNL     1       6.429   3.022  12.966  0.00  0.00    +0.000 N 
ATOM     27  H   UNL     1       7.349   2.676  12.718  0.00  0.00    +0.000 HD
ENDBRANCH   1  26
TORSDOF 2
ENDMDL
MODEL 8
REMARK VINA RESULT:      -7.4      2.399      7.006
REMARK  Name = 
REMARK  3 active torsions:
REMARK  status: ('A' for Active; 'I' for Inactive)
REMARK    1  A    between atoms: C_1  and  C_2
REMARK    2  A    between atoms: N_4  and  C_5
REMARK    3  A    between atoms: C_15  and  C_16
REMARK                            x       y       z     vdW  Elec       q    Type
REMARK                         _______ _______ _______ _____ _____    ______ ____
ROOT
ATOM      1  C   UNL     1       5.875   5.299  15.616  0.00  0.00    +0.000 A 
ATOM      2  C   UNL     1       5.164   6.448  16.008  0.00  0.00    +0.000 A 
ATOM      3  C   UNL     1       4.341   6.453  17.138  0.00  0.00    +0.000 A 
ATOM      4  C   UNL     1       4.240   5.298  17.883  0.00  0.00    +0.000 A 
ATOM      5  C   UNL     1       4.941   4.152  17.490  0.00  0.00    +0.000 A 
ATOM      6  C   UNL     1       5.735   4.114  16.356  0.00  0.00    +0.000 A 
ATOM      7  N   UNL     1       4.744   3.125  18.414  0.00  0.00    +0.000 N 
ATOM      8  C   UNL     1       3.930   3.534  19.461  0.00  0.00    +0.000 C 
ATOM      9  O   UNL     1       3.595   2.885  20.434  0.00  0.00    +0.000 OA
ATOM     10  C   UNL     1       3.544   4.950  19.123  0.00  0.00    +0.000 C 
ATOM     11  C   UNL     1       2.673   5.632  19.882  0.00  0.00    +0.000 C 
ATOM     12  H   UNL     1       5.158   2.207  18.378  0.00  0.00    +0.000 HD
ENDROOT
BRANCH  11  13
ATOM     13  C   UNL     1       2.150   6.960  19.550  0.00  0.00    +0.000 A 
ATOM     14  C   UNL     1       2.157   7.370  18.211  0.00  0.00    +0.000 A 
ATOM     15  C   UNL     1       1.748   8.660  17.845  0.00  0.00    +0.000 A 
ATOM     16  C   UNL     1       1.331   9.544  18.851  0.00  0.00    +0.000 A 
ATOM     17  C   UNL     1       0.886  10.883  18.911  0.00  0.00    +0.000 A 
ATOM     18  N   UNL     1       0.604  11.280  20.155  0.00  0.00    +0.000 NA
ATOM     19  N   UNL     1       0.871  10.190  20.896  0.00  0.00    +0.000 N 
ATOM     20  C   UNL     1       1.316   9.113  20.174  0.00  0.00    +0.000 A 
ATOM     21  C   UNL     1       1.710   7.826  20.563  0.00  0.00    +0.000 A 
ATOM     22  H   UNL     1       0.736  10.250  21.899  0.00  0.00    +0.000 HD
ENDBRANCH  11  13
BRANCH   1  26
ATOM     23  C   UNL     1       7.715   4.691  12.377  0.00  0.00    +0.000 C 
ATOM     24  C   UNL     1       6.598   4.502  13.368  0.00  0.00    +0.000 C 
ATOM     25  O   UNL     1       5.682   3.722  13.128  0.00  0.00    +0.000 OA
ATOM     26  N   UNL     1       6.741   5.290  14.500  0.00  0.00    +0.000 N 
ATOM     27  H   UNL     1       7.458   6.006  14.473  0.00  0.00    +0.000 HD
ENDBRANCH   1  26
TORSDOF 2
ENDMDL
MODEL 9
REMARK VINA RESULT:      -7.4      4.462      6.768
REMARK  Name = 
REMARK  3 active torsions:
REMARK  status: ('A' for Active; 'I' for Inactive)
REMARK    1  A    between atoms: C_1  and  C_2
REMARK    2  A    between atoms: N_4  and  C_5
REMARK    3  A    between atoms: C_15  and  C_16
REMARK                            x       y       z     vdW  Elec       q    Type
REMARK                         _______ _______ _______ _____ _____    ______ ____
ROOT
ATOM      1  C   UNL     1       7.739   7.069  18.189  0.00  0.00    +0.000 A 
ATOM      2  C   UNL     1       6.820   6.294  18.921  0.00  0.00    +0.000 A 
ATOM      3  C   UNL     1       6.031   5.317  18.307  0.00  0.00    +0.000 A 
ATOM      4  C   UNL     1       6.174   5.112  16.951  0.00  0.00    +0.000 A 
ATOM      5  C   UNL     1       7.082   5.887  16.222  0.00  0.00    +0.000 A 
ATOM      6  C   UNL     1       7.850   6.883  16.802  0.00  0.00    +0.000 A 
ATOM      7  N   UNL     1       7.109   5.473  14.889  0.00  0.00    +0.000 N 
ATOM      8  C   UNL     1       6.247   4.407  14.672  0.00  0.00    +0.000 C 
ATOM      9  O   UNL     1       6.064   3.806  13.631  0.00  0.00    +0.000 OA
ATOM     10  C   UNL     1       5.581   4.168  16.001  0.00  0.00    +0.000 C 
ATOM     11  C   UNL     1       4.604   3.259  16.135  0.00  0.00    +0.000 C 
ATOM     12  H   UNL     1       7.697   5.850  14.162  0.00  0.00    +0.000 HD
ENDROOT
BRANCH  11  13
ATOM     13  C   UNL     1       3.821   3.059  17.358  0.00  0.00    +0.000 A 
ATOM     14  C   UNL     1       3.882   1.816  18.000  0.00  0.00    +0.000 A 
ATOM     15  C   UNL     1       3.091   1.541  19.124  0.00  0.00    +0.000 A 
ATOM     16  C   UNL     1       2.226   2.539  19.598  0.00  0.00    +0.000 A 
ATOM     17  C   UNL     1       1.280   2.656  20.640  0.00  0.00    +0.000 A 
ATOM     18  N   UNL     1       0.692   3.856  20.673  0.00  0.00    +0.000 NA
ATOM     19  N   UNL     1       1.264   4.509  19.646  0.00  0.00    +0.000 N 
ATOM     20  C   UNL     1       2.192   3.773  18.956  0.00  0.00    +0.000 A 
ATOM     21  C   UNL     1       2.980   4.075  17.838  0.00  0.00    +0.000 A 
ATOM     22  H   UNL     1       0.968   5.461  19.462  0.00  0.00    +0.000 HD
ENDBRANCH  11  13
BRANCH   1  26
ATOM     23  C   UNL     1       9.620  10.142  19.312  0.00  0.00    +0.000 C 
ATOM     24  C   UNL     1       8.583   9.390  18.522  0.00  0.00    +0.000 C 
ATOM     25  O   UNL     1       7.851   9.984  17.738  0.00  0.00    +0.000 OA
ATOM     26  N   UNL     1       8.571   8.032  18.802  0.00  0.00    +0.000 N 
ATOM     27  H   UNL     1       9.119   7.722  19.596  0.00  0.00    +0.000 HD
ENDBRANCH   1  26
TORSDOF 2
ENDMDL
