MODEL 1
REMARK VINA RESULT:      -7.8      0.000      0.000
REMARK  Name = 
REMARK  4 active torsions:
REMARK  status: ('A' for Active; 'I' for Inactive)
REMARK    1  A    between atoms: C_1  and  C_2
REMARK    2  A    between atoms: C_9  and  C_10
REMARK    3  A    between atoms: N_12  and  C_13
REMARK    4  A    between atoms: N_20  and  C_21
REMARK                            x       y       z     vdW  Elec       q    Type
REMARK                         _______ _______ _______ _____ _____    ______ ____
ROOT
ATOM      1  C   UNL     1       3.187   7.158  18.042  0.00  0.00    +0.000 C 
ATOM      2  O   UNL     1       3.838   8.005  17.445  0.00  0.00    +0.000 OA
ATOM      3  N   UNL     1       2.199   7.456  18.947  0.00  0.00    +0.000 N 
ATOM      4  H   UNL     1       1.706   6.677  19.373  0.00  0.00    +0.000 HD
ENDROOT
BRANCH   1  13
ATOM      5  C   UNL     1       1.227   3.239  21.105  0.00  0.00    +0.000 C 
ATOM      6  C   UNL     1       1.222   3.485  19.603  0.00  0.00    +0.000 C 
ATOM      7  C   UNL     1       2.061   2.448  18.848  0.00  0.00    +0.000 C 
ATOM      8  C   UNL     1       2.975   3.332  18.103  0.00  0.00    +0.000 A 
ATOM      9  C   UNL     1       3.973   2.974  17.209  0.00  0.00    +0.000 A 
ATOM     10  C   UNL     1       4.714   3.993  16.613  0.00  0.00    +0.000 A 
ATOM     11 CL   UNL     1       5.975   3.578  15.508  0.00  0.00    +0.000 Cl
ATOM     12  C   UNL     1       4.456   5.343  16.890  0.00  0.00    +0.000 A 
ATOM     13  C   UNL     1       3.439   5.701  17.797  0.00  0.00    +0.000 A 
ATOM     14  C   UNL     1       2.727   4.664  18.404  0.00  0.00    +0.000 A 
ATOM     15  O   UNL     1       1.733   4.818  19.339  0.00  0.00    +0.000 OA
ENDBRANCH   1  13
BRANCH   3  16
ATOM     16  C   UNL     1       1.773   8.781  19.374  0.00  0.00    +0.000 C 
ATOM     17  C   UNL     1       0.997   9.583  18.309  0.00  0.00    +0.000 C 
ATOM     18  C   UNL     1       0.381  10.872  18.906  0.00  0.00    +0.000 C 
ATOM     19  C   UNL     1      -1.037  10.653  19.463  0.00  0.00    +0.000 C 
ATOM     20  C   UNL     1      -0.851  10.459  20.967  0.00  0.00    +0.000 C 
ATOM     21  C   UNL     1       0.659  10.281  21.109  0.00  0.00    +0.000 C 
ATOM     22  C   UNL     1       1.060   8.822  20.735  0.00  0.00    +0.000 C 
ATOM     23  N   UNL     1       1.200  11.209  20.087  0.00  0.00    +0.000 NA
ATOM     24  C   UNL     1       1.126  12.620  20.448  0.00  0.00    +0.000 C 
ENDBRANCH   3  16
TORSDOF 2
ENDMDL
MODEL 2
REMARK VINA RESULT:      -7.7      1.553      2.041
REMARK  Name = 
REMARK  4 active torsions:
REMARK  status: ('A' for Active; 'I' for Inactive)
REMARK    1  A    between atoms: C_1  and  C_2
REMARK    2  A    between atoms: C_9  and  C_10
REMARK    3  A    between atoms: N_12  and  C_13
REMARK    4  A    between atoms: N_20  and  C_21
REMARK                            x       y       z     vdW  Elec       q    Type
REMARK                         _______ _______ _______ _____ _____    ______ ____
ROOT
ATOM      1  C   UNL     1       1.848   7.797  19.878  0.00  0.00    +0.000 C 
ATOM      2  O   UNL     1       1.694   7.755  21.092  0.00  0.00    +0.000 OA
ATOM      3  N   UNL     1       1.529   8.888  19.108  0.00  0.00    +0.000 N 
ATOM      4  H   UNL     1       1.714   8.826  18.112  0.00  0.00    +0.000 HD
ENDROOT
BRANCH   1  13
ATOM      5  C   UNL     1       1.461   2.748  21.593  0.00  0.00    +0.000 C 
ATOM      6  C   UNL     1       1.158   3.419  20.261  0.00  0.00    +0.000 C 
ATOM      7  C   UNL     1       2.106   2.949  19.151  0.00  0.00    +0.000 C 
ATOM      8  C   UNL     1       2.634   4.242  18.683  0.00  0.00    +0.000 A 
ATOM      9  C   UNL     1       3.538   4.476  17.658  0.00  0.00    +0.000 A 
ATOM     10  C   UNL     1       3.891   5.797  17.385  0.00  0.00    +0.000 A 
ATOM     11 CL   UNL     1       5.026   6.120  16.125  0.00  0.00    +0.000 Cl
ATOM     12  C   UNL     1       3.343   6.865  18.109  0.00  0.00    +0.000 A 
ATOM     13  C   UNL     1       2.422   6.621  19.149  0.00  0.00    +0.000 A 
ATOM     14  C   UNL     1       2.103   5.290  19.423  0.00  0.00    +0.000 A 
ATOM     15  O   UNL     1       1.263   4.858  20.420  0.00  0.00    +0.000 OA
ENDBRANCH   1  13
BRANCH   3  16
ATOM     16  C   UNL     1       0.945  10.141  19.565  0.00  0.00    +0.000 C 
ATOM     17  C   UNL     1       1.402  11.388  18.781  0.00  0.00    +0.000 C 
ATOM     18  C   UNL     1       0.571  12.637  19.165  0.00  0.00    +0.000 C 
ATOM     19  C   UNL     1      -0.683  12.812  18.289  0.00  0.00    +0.000 C 
ATOM     20  C   UNL     1      -1.830  12.223  19.109  0.00  0.00    +0.000 C 
ATOM     21  C   UNL     1      -1.108  11.494  20.240  0.00  0.00    +0.000 C 
ATOM     22  C   UNL     1      -0.583  10.116  19.735  0.00  0.00    +0.000 C 
ATOM     23  N   UNL     1       0.047  12.380  20.521  0.00  0.00    +0.000 NA
ATOM     24  C   UNL     1      -0.286  13.601  21.246  0.00  0.00    +0.000 C 
ENDBRANCH   3  16
TORSDOF 2
ENDMDL
MODEL 3
REMARK VINA RESULT:      -7.5      3.404      7.590
REMARK  Name = 
REMARK  4 active torsions:
REMARK  status: ('A' for Active; 'I' for Inactive)
REMARK    1  A    between atoms: C_1  and  C_2
REMARK    2  A    between atoms: C_9  and  C_10
REMARK    3  A    between atoms: N_12  and  C_13
REMARK    4  A    between atoms: N_20  and  C_21
REMARK                            x       y       z     vdW  Elec       q    Type
REMARK                         _______ _______ _______ _____ _____    ______ ____
ROOT
ATOM      1  C   UNL     1       1.546   9.281  18.488  0.00  0.00    +0.000 C 
ATOM      2  O   UNL     1       2.220   9.358  17.469  0.00  0.00    +0.000 OA
ATOM      3  N   UNL     1       1.607   8.224  19.362  0.00  0.00    +0.000 N 
ATOM      4  H   UNL     1       1.019   8.268  20.189  0.00  0.00    +0.000 HD
ENDROOT
BRANCH   1  13
ATOM      5  C   UNL     1      -2.771  10.557  15.605  0.00  0.00    +0.000 C 
ATOM      6  C   UNL     1      -2.558  10.262  17.082  0.00  0.00    +0.000 C 
ATOM      7  C   UNL     1      -2.801  11.499  17.956  0.00  0.00    +0.000 C 
ATOM      8  C   UNL     1      -1.523  11.566  18.687  0.00  0.00    +0.000 A 
ATOM      9  C   UNL     1      -1.140  12.478  19.659  0.00  0.00    +0.000 A 
ATOM     10  C   UNL     1       0.127  12.341  20.223  0.00  0.00    +0.000 A 
ATOM     11 CL   UNL     1       0.638  13.471  21.424  0.00  0.00    +0.000 Cl
ATOM     12  C   UNL     1       0.991  11.307  19.837  0.00  0.00    +0.000 A 
ATOM     13  C   UNL     1       0.595  10.381  18.850  0.00  0.00    +0.000 A 
ATOM     14  C   UNL     1      -0.667  10.553  18.279  0.00  0.00    +0.000 A 
ATOM     15  O   UNL     1      -1.204   9.779  17.280  0.00  0.00    +0.000 OA
ENDBRANCH   1  13
BRANCH   3  16
ATOM     16  C   UNL     1       2.430   7.029  19.236  0.00  0.00    +0.000 C 
ATOM     17  C   UNL     1       2.208   5.974  20.339  0.00  0.00    +0.000 C 
ATOM     18  C   UNL     1       2.937   4.648  20.011  0.00  0.00    +0.000 C 
ATOM     19  C   UNL     1       2.063   3.671  19.202  0.00  0.00    +0.000 C 
ATOM     20  C   UNL     1       2.491   3.864  17.747  0.00  0.00    +0.000 C 
ATOM     21  C   UNL     1       3.343   5.129  17.801  0.00  0.00    +0.000 C 
ATOM     22  C   UNL     1       2.424   6.388  17.839  0.00  0.00    +0.000 C 
ATOM     23  N   UNL     1       4.044   5.002  19.101  0.00  0.00    +0.000 NA
ATOM     24  C   UNL     1       5.128   4.026  19.114  0.00  0.00    +0.000 C 
ENDBRANCH   3  16
TORSDOF 2
ENDMDL
MODEL 4
REMARK VINA RESULT:      -7.4      1.407      1.984
REMARK  Name = 
REMARK  4 active torsions:
REMARK  status: ('A' for Active; 'I' for Inactive)
REMARK    1  A    between atoms: C_1  and  C_2
REMARK    2  A    between atoms: C_9  and  C_10
REMARK    3  A    between atoms: N_12  and  C_13
REMARK    4  A    between atoms: N_20  and  C_21
REMARK                            x       y       z     vdW  Elec       q    Type
REMARK                         _______ _______ _______ _____ _____    ______ ____
ROOT
ATOM      1  C   UNL     1       2.453   7.512  18.661  0.00  0.00    +0.000 C 
ATOM      2  O   UNL     1       2.308   7.560  19.876  0.00  0.00    +0.000 OA
ATOM      3  N   UNL     1       2.037   8.502  17.806  0.00  0.00    +0.000 N 
ATOM      4  H   UNL     1       2.224   8.371  16.816  0.00  0.00    +0.000 HD
ENDROOT
BRANCH   1  13
ATOM      5  C   UNL     1       1.147   2.429  19.685  0.00  0.00    +0.000 C 
ATOM      6  C   UNL     1       1.325   3.217  18.395  0.00  0.00    +0.000 C 
ATOM      7  C   UNL     1       2.527   2.724  17.580  0.00  0.00    +0.000 C 
ATOM      8  C   UNL     1       3.277   3.982  17.419  0.00  0.00    +0.000 A 
ATOM      9  C   UNL     1       4.468   4.186  16.740  0.00  0.00    +0.000 A 
ATOM     10  C   UNL     1       4.995   5.477  16.714  0.00  0.00    +0.000 A 
ATOM     11 CL   UNL     1       6.485   5.760  15.890  0.00  0.00    +0.000 Cl
ATOM     12  C   UNL     1       4.339   6.546  17.340  0.00  0.00    +0.000 A 
ATOM     13  C   UNL     1       3.126   6.332  18.027  0.00  0.00    +0.000 A 
ATOM     14  C   UNL     1       2.631   5.028  18.064  0.00  0.00    +0.000 A 
ATOM     15  O   UNL     1       1.493   4.623  18.716  0.00  0.00    +0.000 OA
ENDBRANCH   1  13
BRANCH   3  16
ATOM     16  C   UNL     1       1.347   9.733  18.161  0.00  0.00    +0.000 C 
ATOM     17  C   UNL     1       0.457   9.635  19.417  0.00  0.00    +0.000 C 
ATOM     18  C   UNL     1      -0.053  11.027  19.862  0.00  0.00    +0.000 C 
ATOM     19  C   UNL     1       0.898  11.721  20.855  0.00  0.00    +0.000 C 
ATOM     20  C   UNL     1       1.731  12.681  20.006  0.00  0.00    +0.000 C 
ATOM     21  C   UNL     1       1.409  12.248  18.578  0.00  0.00    +0.000 C 
ATOM     22  C   UNL     1       2.241  10.983  18.205  0.00  0.00    +0.000 C 
ATOM     23  N   UNL     1      -0.024  11.879  18.657  0.00  0.00    +0.000 NA
ATOM     24  C   UNL     1      -0.939  13.012  18.738  0.00  0.00    +0.000 C 
ENDBRANCH   3  16
TORSDOF 2
ENDMDL
MODEL 5
REMARK VINA RESULT:      -7.3      2.308      3.384
REMARK  Name = 
REMARK  4 active torsions:
REMARK  status: ('A' for Active; 'I' for Inactive)
REMARK    1  A    between atoms: C_1  and  C_2
REMARK    2  A    between atoms: C_9  and  C_10
REMARK    3  A    between atoms: N_12  and  C_13
REMARK    4  A    between atoms: N_20  and  C_21
REMARK                            x       y       z     vdW  Elec       q    Type
REMARK                         _______ _______ _______ _____ _____    ______ ____
ROOT
ATOM      1  C   UNL     1       2.347   8.163  18.290  0.00  0.00    +0.000 C 
ATOM      2  O   UNL     1       2.582   8.659  17.195  0.00  0.00    +0.000 OA
ATOM      3  N   UNL     1       1.607   8.787  19.264  0.00  0.00    +0.000 N 
ATOM      4  H   UNL     1       1.455   8.279  20.130  0.00  0.00    +0.000 HD
ENDROOT
BRANCH   1  13
ATOM      5  C   UNL     1       5.571   5.327  15.104  0.00  0.00    +0.000 C 
ATOM      6  C   UNL     1       5.638   5.711  16.575  0.00  0.00    +0.000 C 
ATOM      7  C   UNL     1       5.507   4.491  17.495  0.00  0.00    +0.000 C 
ATOM      8  C   UNL     1       4.378   4.915  18.343  0.00  0.00    +0.000 A 
ATOM      9  C   UNL     1       3.796   4.228  19.397  0.00  0.00    +0.000 A 
ATOM     10  C   UNL     1       2.733   4.833  20.066  0.00  0.00    +0.000 A 
ATOM     11 CL   UNL     1       1.977   3.997  21.374  0.00  0.00    +0.000 Cl
ATOM     12  C   UNL     1       2.268   6.104  19.700  0.00  0.00    +0.000 A 
ATOM     13  C   UNL     1       2.865   6.798  18.628  0.00  0.00    +0.000 A 
ATOM     14  C   UNL     1       3.910   6.163  17.955  0.00  0.00    +0.000 A 
ATOM     15  O   UNL     1       4.582   6.663  16.867  0.00  0.00    +0.000 OA
ENDBRANCH   1  13
BRANCH   3  16
ATOM     16  C   UNL     1       1.008  10.112  19.195  0.00  0.00    +0.000 C 
ATOM     17  C   UNL     1      -0.257  10.204  18.319  0.00  0.00    +0.000 C 
ATOM     18  C   UNL     1      -0.962  11.573  18.481  0.00  0.00    +0.000 C 
ATOM     19  C   UNL     1      -2.008  11.575  19.612  0.00  0.00    +0.000 C 
ATOM     20  C   UNL     1      -1.294  12.190  20.815  0.00  0.00    +0.000 C 
ATOM     21  C   UNL     1       0.169  12.210  20.376  0.00  0.00    +0.000 C 
ATOM     22  C   UNL     1       0.797  10.794  20.557  0.00  0.00    +0.000 C 
ATOM     23  N   UNL     1       0.078  12.519  18.930  0.00  0.00    +0.000 NA
ATOM     24  C   UNL     1      -0.245  13.909  18.625  0.00  0.00    +0.000 C 
ENDBRANCH   3  16
TORSDOF 2
ENDMDL
MODEL 6
REMARK VINA RESULT:      -7.3      1.793      3.017
REMARK  Name = 
REMARK  4 active torsions:
REMARK  status: ('A' for Active; 'I' for Inactive)
REMARK    1  A    between atoms: C_1  and  C_2
REMARK    2  A    between atoms: C_9  and  C_10
REMARK    3  A    between atoms: N_12  and  C_13
REMARK    4  A    between atoms: N_20  and  C_21
REMARK                            x       y       z     vdW  Elec       q    Type
REMARK                         _______ _______ _______ _____ _____    ______ ____
ROOT
ATOM      1  C   UNL     1       2.778   7.223  18.142  0.00  0.00    +0.000 C 
ATOM      2  O   UNL     1       3.419   8.017  17.466  0.00  0.00    +0.000 OA
ATOM      3  N   UNL     1       1.899   7.600  19.128  0.00  0.00    +0.000 N 
ATOM      4  H   UNL     1       1.404   6.861  19.617  0.00  0.00    +0.000 HD
ENDROOT
BRANCH   1  13
ATOM      5  C   UNL     1       6.265   5.063  14.713  0.00  0.00    +0.000 C 
ATOM      6  C   UNL     1       5.948   4.799  16.178  0.00  0.00    +0.000 C 
ATOM      7  C   UNL     1       5.330   3.412  16.392  0.00  0.00    +0.000 C 
ATOM      8  C   UNL     1       4.090   3.778  17.100  0.00  0.00    +0.000 A 
ATOM      9  C   UNL     1       3.102   2.934  17.586  0.00  0.00    +0.000 A 
ATOM     10  C   UNL     1       2.011   3.509  18.235  0.00  0.00    +0.000 A 
ATOM     11 CL   UNL     1       0.758   2.487  18.838  0.00  0.00    +0.000 Cl
ATOM     12  C   UNL     1       1.911   4.897  18.408  0.00  0.00    +0.000 A 
ATOM     13  C   UNL     1       2.919   5.749  17.912  0.00  0.00    +0.000 A 
ATOM     14  C   UNL     1       3.990   5.155  17.243  0.00  0.00    +0.000 A 
ATOM     15  O   UNL     1       5.039   5.823  16.660  0.00  0.00    +0.000 OA
ENDBRANCH   1  13
BRANCH   3  16
ATOM     16  C   UNL     1       1.594   8.957  19.558  0.00  0.00    +0.000 C 
ATOM     17  C   UNL     1       0.820   9.801  18.526  0.00  0.00    +0.000 C 
ATOM     18  C   UNL     1       0.332  11.138  19.137  0.00  0.00    +0.000 C 
ATOM     19  C   UNL     1      -1.065  11.028  19.774  0.00  0.00    +0.000 C 
ATOM     20  C   UNL     1      -0.810  10.837  21.268  0.00  0.00    +0.000 C 
ATOM     21  C   UNL     1       0.689  10.551  21.329  0.00  0.00    +0.000 C 
ATOM     22  C   UNL     1       0.962   9.062  20.955  0.00  0.00    +0.000 C 
ATOM     23  N   UNL     1       1.238  11.427  20.266  0.00  0.00    +0.000 NA
ATOM     24  C   UNL     1       1.286  12.843  20.611  0.00  0.00    +0.000 C 
ENDBRANCH   3  16
TORSDOF 2
ENDMDL
MODEL 7
REMARK VINA RESULT:      -7.2      1.601      2.193
REMARK  Name = 
REMARK  4 active torsions:
REMARK  status: ('A' for Active; 'I' for Inactive)
REMARK    1  A    between atoms: C_1  and  C_2
REMARK    2  A    between atoms: C_9  and  C_10
REMARK    3  A    between atoms: N_12  and  C_13
REMARK    4  A    between atoms: N_20  and  C_21
REMARK                            x       y       z     vdW  Elec       q    Type
REMARK                         _______ _______ _______ _____ _____    ______ ____
ROOT
ATOM      1  C   UNL     1       2.058   7.633  19.212  0.00  0.00    +0.000 C 
ATOM      2  O   UNL     1       1.936   7.496  20.422  0.00  0.00    +0.000 OA
ATOM      3  N   UNL     1       1.534   8.690  18.509  0.00  0.00    +0.000 N 
ATOM      4  H   UNL     1       1.709   8.718  17.510  0.00  0.00    +0.000 HD
ENDROOT
BRANCH   1  13
ATOM      5  C   UNL     1       1.332   2.351  19.608  0.00  0.00    +0.000 C 
ATOM      6  C   UNL     1       1.371   3.309  18.426  0.00  0.00    +0.000 C 
ATOM      7  C   UNL     1       2.580   3.055  17.519  0.00  0.00    +0.000 C 
ATOM      8  C   UNL     1       3.188   4.398  17.499  0.00  0.00    +0.000 A 
ATOM      9  C   UNL     1       4.321   4.813  16.816  0.00  0.00    +0.000 A 
ATOM     10  C   UNL     1       4.709   6.146  16.942  0.00  0.00    +0.000 A 
ATOM     11 CL   UNL     1       6.124   6.691  16.117  0.00  0.00    +0.000 Cl
ATOM     12  C   UNL     1       3.974   7.051  17.721  0.00  0.00    +0.000 A 
ATOM     13  C   UNL     1       2.822   6.623  18.411  0.00  0.00    +0.000 A 
ATOM     14  C   UNL     1       2.466   5.278  18.293  0.00  0.00    +0.000 A 
ATOM     15  O   UNL     1       1.406   4.673  18.921  0.00  0.00    +0.000 OA
ENDBRANCH   1  13
BRANCH   3  16
ATOM     16  C   UNL     1       0.743   9.790  19.042  0.00  0.00    +0.000 C 
ATOM     17  C   UNL     1       1.536  11.085  19.309  0.00  0.00    +0.000 C 
ATOM     18  C   UNL     1       0.595  12.267  19.649  0.00  0.00    +0.000 C 
ATOM     19  C   UNL     1       0.151  13.053  18.401  0.00  0.00    +0.000 C 
ATOM     20  C   UNL     1      -1.232  12.503  18.055  0.00  0.00    +0.000 C 
ATOM     21  C   UNL     1      -1.339  11.257  18.931  0.00  0.00    +0.000 C 
ATOM     22  C   UNL     1      -0.558  10.078  18.275  0.00  0.00    +0.000 C 
ATOM     23  N   UNL     1      -0.646  11.666  20.175  0.00  0.00    +0.000 NA
ATOM     24  C   UNL     1      -1.406  12.577  21.023  0.00  0.00    +0.000 C 
ENDBRANCH   3  16
TORSDOF 2
ENDMDL
MODEL 8
REMARK VINA RESULT:      -7.2      1.806      3.130
REMARK  Name = 
REMARK  4 active torsions:
REMARK  status: ('A' for Active; 'I' for Inactive)
REMARK    1  A    between atoms: C_1  and  C_2
REMARK    2  A    between atoms: C_9  and  C_10
REMARK    3  A    between atoms: N_12  and  C_13
REMARK    4  A    between atoms: N_20  and  C_21
REMARK                            x       y       z     vdW  Elec       q    Type
REMARK                         _______ _______ _______ _____ _____    ______ ____
ROOT
ATOM      1  C   UNL     1       2.055   6.897  19.655  0.00  0.00    +0.000 C 
ATOM      2  O   UNL     1       2.019   6.898  20.879  0.00  0.00    +0.000 OA
ATOM      3  N   UNL     1       1.867   8.020  18.888  0.00  0.00    +0.000 N 
ATOM      4  H   UNL     1       1.936   7.913  17.881  0.00  0.00    +0.000 HD
ENDROOT
BRANCH   1  13
ATOM      5  C   UNL     1       5.302   6.564  15.421  0.00  0.00    +0.000 C 
ATOM      6  C   UNL     1       5.201   5.774  16.718  0.00  0.00    +0.000 C 
ATOM      7  C   UNL     1       4.769   4.323  16.476  0.00  0.00    +0.000 C 
ATOM      8  C   UNL     1       3.594   4.242  17.362  0.00  0.00    +0.000 A 
ATOM      9  C   UNL     1       2.773   3.148  17.595  0.00  0.00    +0.000 A 
ATOM     10  C   UNL     1       1.715   3.303  18.489  0.00  0.00    +0.000 A 
ATOM     11 CL   UNL     1       0.665   1.965  18.788  0.00  0.00    +0.000 Cl
ATOM     12  C   UNL     1       1.487   4.519  19.148  0.00  0.00    +0.000 A 
ATOM     13  C   UNL     1       2.326   5.626  18.909  0.00  0.00    +0.000 A 
ATOM     14  C   UNL     1       3.364   5.458  17.990  0.00  0.00    +0.000 A 
ATOM     15  O   UNL     1       4.253   6.429  17.600  0.00  0.00    +0.000 OA
ENDBRANCH   1  13
BRANCH   3  16
ATOM     16  C   UNL     1       1.573   9.365  19.361  0.00  0.00    +0.000 C 
ATOM     17  C   UNL     1       1.579  10.450  18.265  0.00  0.00    +0.000 C 
ATOM     18  C   UNL     1       1.034  11.798  18.798  0.00  0.00    +0.000 C 
ATOM     19  C   UNL     1      -0.490  11.936  18.624  0.00  0.00    +0.000 C 
ATOM     20  C   UNL     1      -1.083  11.556  19.980  0.00  0.00    +0.000 C 
ATOM     21  C   UNL     1       0.106  10.947  20.719  0.00  0.00    +0.000 C 
ATOM     22  C   UNL     1       0.325   9.476  20.252  0.00  0.00    +0.000 C 
ATOM     23  N   UNL     1       1.244  11.777  20.259  0.00  0.00    +0.000 NA
ATOM     24  C   UNL     1       1.301  13.111  20.846  0.00  0.00    +0.000 C 
ENDBRANCH   3  16
TORSDOF 2
ENDMDL
MODEL 9
REMARK VINA RESULT:      -7.2      3.663      8.099
REMARK  Name = 
REMARK  4 active torsions:
REMARK  status: ('A' for Active; 'I' for Inactive)
REMARK    1  A    between atoms: C_1  and  C_2
REMARK    2  A    between atoms: C_9  and  C_10
REMARK    3  A    between atoms: N_12  and  C_13
REMARK    4  A    between atoms: N_20  and  C_21
REMARK                            x       y       z     vdW  Elec       q    Type
REMARK                         _______ _______ _______ _____ _____    ______ ____
ROOT
ATOM      1  C   UNL     1       1.215   9.128  21.205  0.00  0.00    +0.000 C 
ATOM      2  O   UNL     1       1.636   8.687  22.267  0.00  0.00    +0.000 OA
ATOM      3  N   UNL     1       1.434   8.525  19.991  0.00  0.00    +0.000 N 
ATOM      4  H   UNL     1       1.025   8.964  19.172  0.00  0.00    +0.000 HD
ENDROOT
BRANCH   1  13
ATOM      5  C   UNL     1       2.490  13.437  18.308  0.00  0.00    +0.000 C 
ATOM      6  C   UNL     1       1.212  12.622  18.452  0.00  0.00    +0.000 C 
ATOM      7  C   UNL     1       0.089  13.426  19.118  0.00  0.00    +0.000 C 
ATOM      8  C   UNL     1      -0.256  12.530  20.236  0.00  0.00    +0.000 A 
ATOM      9  C   UNL     1      -1.237  12.705  21.201  0.00  0.00    +0.000 A 
ATOM     10  C   UNL     1      -1.389  11.712  22.167  0.00  0.00    +0.000 A 
ATOM     11 CL   UNL     1      -2.591  11.909  23.391  0.00  0.00    +0.000 Cl
ATOM     12  C   UNL     1      -0.591  10.560  22.164  0.00  0.00    +0.000 A 
ATOM     13  C   UNL     1       0.403  10.387  21.179  0.00  0.00    +0.000 A 
ATOM     14  C   UNL     1       0.557  11.406  20.237  0.00  0.00    +0.000 A 
ATOM     15  O   UNL     1       1.494  11.432  19.233  0.00  0.00    +0.000 OA
ENDBRANCH   1  13
BRANCH   3  16
ATOM     16  C   UNL     1       2.200   7.312  19.741  0.00  0.00    +0.000 C 
ATOM     17  C   UNL     1       1.715   6.072  20.518  0.00  0.00    +0.000 C 
ATOM     18  C   UNL     1       2.420   4.783  20.029  0.00  0.00    +0.000 C 
ATOM     19  C   UNL     1       1.666   4.090  18.879  0.00  0.00    +0.000 C 
ATOM     20  C   UNL     1       2.373   4.547  17.604  0.00  0.00    +0.000 C 
ATOM     21  C   UNL     1       3.266   5.685  18.093  0.00  0.00    +0.000 C 
ATOM     22  C   UNL     1       2.426   6.989  18.255  0.00  0.00    +0.000 C 
ATOM     23  N   UNL     1       3.698   5.217  19.431  0.00  0.00    +0.000 NA
ATOM     24  C   UNL     1       4.705   4.162  19.410  0.00  0.00    +0.000 C 
ENDBRANCH   3  16
TORSDOF 2
ENDMDL
