MODEL 1
REMARK VINA RESULT:      -6.4      0.000      0.000
REMARK  Name = 
REMARK  6 active torsions:
REMARK  status: ('A' for Active; 'I' for Inactive)
REMARK    1  A    between atoms: C_1  and  C_2
REMARK    2  A    between atoms: C_2  and  C_3
REMARK    3  A    between atoms: C_2  and  C_4
REMARK    4  A    between atoms: C_7  and  N_8
REMARK    5  A    between atoms: C_9  and  S_10
REMARK    6  A    between atoms: S_10  and  O_13
REMARK                            x       y       z     vdW  Elec       q    Type
REMARK                         _______ _______ _______ _____ _____    ______ ____
ROOT
ATOM      1  C   UNL     1       3.226   4.650  19.323  0.00  0.00    +0.000 A 
ATOM      2  C   UNL     1       2.767   3.959  18.197  0.00  0.00    +0.000 A 
ATOM      3  C   UNL     1       3.638   3.647  17.146  0.00  0.00    +0.000 A 
ATOM      4  C   UNL     1       5.004   3.963  17.197  0.00  0.00    +0.000 A 
ATOM      5  C   UNL     1       5.451   4.681  18.314  0.00  0.00    +0.000 A 
ATOM      6  C   UNL     1       4.580   5.003  19.370  0.00  0.00    +0.000 A 
ENDROOT
BRANCH   1   8
ATOM      7  C   UNL     1       1.869   6.508  20.353  0.00  0.00    +0.000 C 
ATOM      8  C   UNL     1       2.265   5.032  20.433  0.00  0.00    +0.000 C 
ATOM      9  C   UNL     1       1.024   4.133  20.424  0.00  0.00    +0.000 C 
ENDBRANCH   1   8
BRANCH   4  10
ATOM     10  N   UNL     1       5.765   3.747  16.038  0.00  0.00    +0.000 N 
ATOM     11  H   UNL     1       5.968   4.594  15.513  0.00  0.00    +0.000 HD
ATOM     12  H   UNL     1       5.383   3.022  15.425  0.00  0.00    +0.000 HD
ENDBRANCH   4  10
BRANCH   5  13
ATOM     13  S   UNL     1       7.115   5.264  18.493  0.00  0.00    +0.000 S 
ATOM     14  O   UNL     1       7.292   6.345  17.544  0.00  0.00    +0.000 OA
ATOM     15  O   UNL     1       7.362   5.435  19.907  0.00  0.00    +0.000 OA
BRANCH  13  16
ATOM     16  O   UNL     1       8.077   4.076  17.969  0.00  0.00    +0.000 OA
ATOM     17  H   UNL     1       8.858   4.499  17.550  0.00  0.00    +0.000 HD
ENDBRANCH  13  16
ENDBRANCH   5  13
TORSDOF 4
ENDMDL
MODEL 2
REMARK VINA RESULT:      -6.4      2.198      3.111
REMARK  Name = 
REMARK  6 active torsions:
REMARK  status: ('A' for Active; 'I' for Inactive)
REMARK    1  A    between atoms: C_1  and  C_2
REMARK    2  A    between atoms: C_2  and  C_3
REMARK    3  A    between atoms: C_2  and  C_4
REMARK    4  A    between atoms: C_7  and  N_8
REMARK    5  A    between atoms: C_9  and  S_10
REMARK    6  A    between atoms: S_10  and  O_13
REMARK                            x       y       z     vdW  Elec       q    Type
REMARK                         _______ _______ _______ _____ _____    ______ ____
ROOT
ATOM      1  C   UNL     1       3.191   4.728  17.514  0.00  0.00    +0.000 A 
ATOM      2  C   UNL     1       3.109   6.044  17.980  0.00  0.00    +0.000 A 
ATOM      3  C   UNL     1       4.162   6.943  17.771  0.00  0.00    +0.000 A 
ATOM      4  C   UNL     1       5.309   6.585  17.047  0.00  0.00    +0.000 A 
ATOM      5  C   UNL     1       5.399   5.258  16.610  0.00  0.00    +0.000 A 
ATOM      6  C   UNL     1       4.348   4.347  16.822  0.00  0.00    +0.000 A 
ENDROOT
BRANCH   1   8
ATOM      7  C   UNL     1       2.551   2.296  17.682  0.00  0.00    +0.000 C 
ATOM      8  C   UNL     1       2.070   3.744  17.791  0.00  0.00    +0.000 C 
ATOM      9  C   UNL     1       1.431   4.005  19.160  0.00  0.00    +0.000 C 
ENDBRANCH   1   8
BRANCH   4  10
ATOM     10  N   UNL     1       6.372   7.502  17.019  0.00  0.00    +0.000 N 
ATOM     11  H   UNL     1       6.343   8.143  16.230  0.00  0.00    +0.000 HD
ATOM     12  H   UNL     1       7.294   7.064  17.099  0.00  0.00    +0.000 HD
ENDBRANCH   4  10
BRANCH   5  13
ATOM     13  S   UNL     1       6.822   4.599  15.784  0.00  0.00    +0.000 S 
ATOM     14  O   UNL     1       6.398   3.392  15.103  0.00  0.00    +0.000 OA
ATOM     15  O   UNL     1       7.459   5.692  15.085  0.00  0.00    +0.000 OA
BRANCH  13  16
ATOM     16  O   UNL     1       7.835   4.101  16.941  0.00  0.00    +0.000 OA
ATOM     17  H   UNL     1       7.296   3.636  17.618  0.00  0.00    +0.000 HD
ENDBRANCH  13  16
ENDBRANCH   5  13
TORSDOF 4
ENDMDL
MODEL 3
REMARK VINA RESULT:      -6.3      2.351      3.142
REMARK  Name = 
REMARK  6 active torsions:
REMARK  status: ('A' for Active; 'I' for Inactive)
REMARK    1  A    between atoms: C_1  and  C_2
REMARK    2  A    between atoms: C_2  and  C_3
REMARK    3  A    between atoms: C_2  and  C_4
REMARK    4  A    between atoms: C_7  and  N_8
REMARK    5  A    between atoms: C_9  and  S_10
REMARK    6  A    between atoms: S_10  and  O_13
REMARK                            x       y       z     vdW  Elec       q    Type
REMARK                         _______ _______ _______ _____ _____    ______ ____
ROOT
ATOM      1  C   UNL     1       3.289   4.170  17.408  0.00  0.00    +0.000 A 
ATOM      2  C   UNL     1       3.064   5.436  17.957  0.00  0.00    +0.000 A 
ATOM      3  C   UNL     1       3.971   6.481  17.739  0.00  0.00    +0.000 A 
ATOM      4  C   UNL     1       5.103   6.320  16.926  0.00  0.00    +0.000 A 
ATOM      5  C   UNL     1       5.339   5.042  16.405  0.00  0.00    +0.000 A 
ATOM      6  C   UNL     1       4.435   3.987  16.626  0.00  0.00    +0.000 A 
ENDROOT
BRANCH   1   8
ATOM      7  C   UNL     1       3.064   1.798  18.232  0.00  0.00    +0.000 C 
ATOM      8  C   UNL     1       2.330   3.029  17.694  0.00  0.00    +0.000 C 
ATOM      9  C   UNL     1       1.220   3.466  18.656  0.00  0.00    +0.000 C 
ENDBRANCH   1   8
BRANCH   4  10
ATOM     10  N   UNL     1       6.030   7.374  16.888  0.00  0.00    +0.000 N 
ATOM     11  H   UNL     1       5.610   8.287  16.733  0.00  0.00    +0.000 HD
ATOM     12  H   UNL     1       6.806   7.215  16.240  0.00  0.00    +0.000 HD
ENDBRANCH   4  10
BRANCH   5  13
ATOM     13  S   UNL     1       6.777   4.628  15.456  0.00  0.00    +0.000 S 
ATOM     14  O   UNL     1       6.930   5.655  14.445  0.00  0.00    +0.000 OA
ATOM     15  O   UNL     1       7.832   4.305  16.390  0.00  0.00    +0.000 OA
BRANCH  13  16
ATOM     16  O   UNL     1       6.416   3.280  14.640  0.00  0.00    +0.000 OA
ATOM     17  H   UNL     1       5.453   3.303  14.452  0.00  0.00    +0.000 HD
ENDBRANCH  13  16
ENDBRANCH   5  13
TORSDOF 4
ENDMDL
MODEL 4
REMARK VINA RESULT:      -6.3      0.204      1.106
REMARK  Name = 
REMARK  6 active torsions:
REMARK  status: ('A' for Active; 'I' for Inactive)
REMARK    1  A    between atoms: C_1  and  C_2
REMARK    2  A    between atoms: C_2  and  C_3
REMARK    3  A    between atoms: C_2  and  C_4
REMARK    4  A    between atoms: C_7  and  N_8
REMARK    5  A    between atoms: C_9  and  S_10
REMARK    6  A    between atoms: S_10  and  O_13
REMARK                            x       y       z     vdW  Elec       q    Type
REMARK                         _______ _______ _______ _____ _____    ______ ____
ROOT
ATOM      1  C   UNL     1       3.243   4.560  19.385  0.00  0.00    +0.000 A 
ATOM      2  C   UNL     1       2.805   3.817  18.284  0.00  0.00    +0.000 A 
ATOM      3  C   UNL     1       3.679   3.517  17.232  0.00  0.00    +0.000 A 
ATOM      4  C   UNL     1       5.029   3.898  17.258  0.00  0.00    +0.000 A 
ATOM      5  C   UNL     1       5.453   4.668  18.349  0.00  0.00    +0.000 A 
ATOM      6  C   UNL     1       4.579   4.978  19.407  0.00  0.00    +0.000 A 
ENDROOT
BRANCH   1   8
ATOM      7  C   UNL     1       1.850   6.394  20.409  0.00  0.00    +0.000 C 
ATOM      8  C   UNL     1       2.277   4.927  20.496  0.00  0.00    +0.000 C 
ATOM      9  C   UNL     1       1.055   4.002  20.495  0.00  0.00    +0.000 C 
ENDBRANCH   1   8
BRANCH   4  10
ATOM     10  N   UNL     1       5.787   3.686  16.096  0.00  0.00    +0.000 N 
ATOM     11  H   UNL     1       5.592   2.803  15.632  0.00  0.00    +0.000 HD
ATOM     12  H   UNL     1       6.793   3.810  16.234  0.00  0.00    +0.000 HD
ENDBRANCH   4  10
BRANCH   5  13
ATOM     13  S   UNL     1       7.089   5.333  18.493  0.00  0.00    +0.000 S 
ATOM     14  O   UNL     1       8.004   4.326  17.992  0.00  0.00    +0.000 OA
ATOM     15  O   UNL     1       7.057   6.676  17.958  0.00  0.00    +0.000 OA
BRANCH  13  16
ATOM     16  O   UNL     1       7.403   5.443  20.074  0.00  0.00    +0.000 OA
ATOM     17  H   UNL     1       8.379   5.461  20.176  0.00  0.00    +0.000 HD
ENDBRANCH  13  16
ENDBRANCH   5  13
TORSDOF 4
ENDMDL
MODEL 5
REMARK VINA RESULT:      -6.3      2.299      3.268
REMARK  Name = 
REMARK  6 active torsions:
REMARK  status: ('A' for Active; 'I' for Inactive)
REMARK    1  A    between atoms: C_1  and  C_2
REMARK    2  A    between atoms: C_2  and  C_3
REMARK    3  A    between atoms: C_2  and  C_4
REMARK    4  A    between atoms: C_7  and  N_8
REMARK    5  A    between atoms: C_9  and  S_10
REMARK    6  A    between atoms: S_10  and  O_13
REMARK                            x       y       z     vdW  Elec       q    Type
REMARK                         _______ _______ _______ _____ _____    ______ ____
ROOT
ATOM      1  C   UNL     1       3.178   4.455  17.462  0.00  0.00    +0.000 A 
ATOM      2  C   UNL     1       3.112   5.739  18.010  0.00  0.00    +0.000 A 
ATOM      3  C   UNL     1       4.141   6.664  17.791  0.00  0.00    +0.000 A 
ATOM      4  C   UNL     1       5.245   6.364  16.979  0.00  0.00    +0.000 A 
ATOM      5  C   UNL     1       5.320   5.066  16.458  0.00  0.00    +0.000 A 
ATOM      6  C   UNL     1       4.293   4.131  16.680  0.00  0.00    +0.000 A 
ENDROOT
BRANCH   1   8
ATOM      7  C   UNL     1       2.653   2.027  17.895  0.00  0.00    +0.000 C 
ATOM      8  C   UNL     1       2.086   3.441  17.749  0.00  0.00    +0.000 C 
ATOM      9  C   UNL     1       1.276   3.836  18.989  0.00  0.00    +0.000 C 
ENDBRANCH   1   8
BRANCH   4  10
ATOM     10  N   UNL     1       6.295   7.295  16.940  0.00  0.00    +0.000 N 
ATOM     11  H   UNL     1       7.156   6.964  17.368  0.00  0.00    +0.000 HD
ATOM     12  H   UNL     1       6.039   8.217  17.303  0.00  0.00    +0.000 HD
ENDBRANCH   4  10
BRANCH   5  13
ATOM     13  S   UNL     1       6.696   4.476  15.510  0.00  0.00    +0.000 S 
ATOM     14  O   UNL     1       7.840   4.435  16.399  0.00  0.00    +0.000 OA
ATOM     15  O   UNL     1       6.249   3.312  14.779  0.00  0.00    +0.000 OA
BRANCH  13  16
ATOM     16  O   UNL     1       7.038   5.630  14.431  0.00  0.00    +0.000 OA
ATOM     17  H   UNL     1       7.991   5.548  14.210  0.00  0.00    +0.000 HD
ENDBRANCH  13  16
ENDBRANCH   5  13
TORSDOF 4
ENDMDL
MODEL 6
REMARK VINA RESULT:      -6.2      0.521      1.031
REMARK  Name = 
REMARK  6 active torsions:
REMARK  status: ('A' for Active; 'I' for Inactive)
REMARK    1  A    between atoms: C_1  and  C_2
REMARK    2  A    between atoms: C_2  and  C_3
REMARK    3  A    between atoms: C_2  and  C_4
REMARK    4  A    between atoms: C_7  and  N_8
REMARK    5  A    between atoms: C_9  and  S_10
REMARK    6  A    between atoms: S_10  and  O_13
REMARK                            x       y       z     vdW  Elec       q    Type
REMARK                         _______ _______ _______ _____ _____    ______ ____
ROOT
ATOM      1  C   UNL     1       3.153   4.875  18.863  0.00  0.00    +0.000 A 
ATOM      2  C   UNL     1       2.798   4.137  17.730  0.00  0.00    +0.000 A 
ATOM      3  C   UNL     1       3.770   3.731  16.807  0.00  0.00    +0.000 A 
ATOM      4  C   UNL     1       5.133   3.997  17.003  0.00  0.00    +0.000 A 
ATOM      5  C   UNL     1       5.479   4.762  18.124  0.00  0.00    +0.000 A 
ATOM      6  C   UNL     1       4.507   5.179  19.051  0.00  0.00    +0.000 A 
ENDROOT
BRANCH   1   8
ATOM      7  C   UNL     1       2.136   4.590  21.152  0.00  0.00    +0.000 C 
ATOM      8  C   UNL     1       2.087   5.358  19.829  0.00  0.00    +0.000 C 
ATOM      9  C   UNL     1       2.201   6.867  20.069  0.00  0.00    +0.000 C 
ENDBRANCH   1   8
BRANCH   4  10
ATOM     10  N   UNL     1       6.013   3.684  15.955  0.00  0.00    +0.000 N 
ATOM     11  H   UNL     1       5.558   3.572  15.053  0.00  0.00    +0.000 HD
ATOM     12  H   UNL     1       6.624   2.887  16.156  0.00  0.00    +0.000 HD
ENDBRANCH   4  10
BRANCH   5  13
ATOM     13  S   UNL     1       7.135   5.291  18.468  0.00  0.00    +0.000 S 
ATOM     14  O   UNL     1       7.432   6.378  17.555  0.00  0.00    +0.000 OA
ATOM     15  O   UNL     1       7.253   5.437  19.901  0.00  0.00    +0.000 OA
BRANCH  13  16
ATOM     16  O   UNL     1       8.107   4.081  18.018  0.00  0.00    +0.000 OA
ATOM     17  H   UNL     1       7.670   3.621  17.268  0.00  0.00    +0.000 HD
ENDBRANCH  13  16
ENDBRANCH   5  13
TORSDOF 4
ENDMDL
MODEL 7
REMARK VINA RESULT:      -6.2      0.190      1.209
REMARK  Name = 
REMARK  6 active torsions:
REMARK  status: ('A' for Active; 'I' for Inactive)
REMARK    1  A    between atoms: C_1  and  C_2
REMARK    2  A    between atoms: C_2  and  C_3
REMARK    3  A    between atoms: C_2  and  C_4
REMARK    4  A    between atoms: C_7  and  N_8
REMARK    5  A    between atoms: C_9  and  S_10
REMARK    6  A    between atoms: S_10  and  O_13
REMARK                            x       y       z     vdW  Elec       q    Type
REMARK                         _______ _______ _______ _____ _____    ______ ____
ROOT
ATOM      1  C   UNL     1       3.283   4.577  19.317  0.00  0.00    +0.000 A 
ATOM      2  C   UNL     1       2.853   3.919  18.162  0.00  0.00    +0.000 A 
ATOM      3  C   UNL     1       3.748   3.640  17.122  0.00  0.00    +0.000 A 
ATOM      4  C   UNL     1       5.111   3.960  17.213  0.00  0.00    +0.000 A 
ATOM      5  C   UNL     1       5.530   4.647  18.360  0.00  0.00    +0.000 A 
ATOM      6  C   UNL     1       4.634   4.935  19.405  0.00  0.00    +0.000 A 
ENDROOT
BRANCH   1   8
ATOM      7  C   UNL     1       1.883   6.396  20.361  0.00  0.00    +0.000 C 
ATOM      8  C   UNL     1       2.296   4.923  20.416  0.00  0.00    +0.000 C 
ATOM      9  C   UNL     1       1.066   4.010  20.363  0.00  0.00    +0.000 C 
ENDBRANCH   1   8
BRANCH   4  10
ATOM     10  N   UNL     1       5.899   3.781  16.065  0.00  0.00    +0.000 N 
ATOM     11  H   UNL     1       6.872   3.559  16.263  0.00  0.00    +0.000 HD
ATOM     12  H   UNL     1       5.830   4.551  15.396  0.00  0.00    +0.000 HD
ENDBRANCH   4  10
BRANCH   5  13
ATOM     13  S   UNL     1       7.187   5.231  18.594  0.00  0.00    +0.000 S 
ATOM     14  O   UNL     1       7.359   5.464  20.014  0.00  0.00    +0.000 OA
ATOM     15  O   UNL     1       8.062   4.355  17.847  0.00  0.00    +0.000 OA
BRANCH  13  16
ATOM     16  O   UNL     1       7.259   6.694  17.910  0.00  0.00    +0.000 OA
ATOM     17  H   UNL     1       8.192   6.843  17.642  0.00  0.00    +0.000 HD
ENDBRANCH  13  16
ENDBRANCH   5  13
TORSDOF 4
ENDMDL
MODEL 8
REMARK VINA RESULT:      -6.2      3.315      4.587
REMARK  Name = 
REMARK  6 active torsions:
REMARK  status: ('A' for Active; 'I' for Inactive)
REMARK    1  A    between atoms: C_1  and  C_2
REMARK    2  A    between atoms: C_2  and  C_3
REMARK    3  A    between atoms: C_2  and  C_4
REMARK    4  A    between atoms: C_7  and  N_8
REMARK    5  A    between atoms: C_9  and  S_10
REMARK    6  A    between atoms: S_10  and  O_13
REMARK                            x       y       z     vdW  Elec       q    Type
REMARK                         _______ _______ _______ _____ _____    ______ ____
ROOT
ATOM      1  C   UNL     1       5.884   5.590  18.096  0.00  0.00    +0.000 A 
ATOM      2  C   UNL     1       4.905   6.419  17.540  0.00  0.00    +0.000 A 
ATOM      3  C   UNL     1       3.558   6.036  17.544  0.00  0.00    +0.000 A 
ATOM      4  C   UNL     1       3.129   4.843  18.146  0.00  0.00    +0.000 A 
ATOM      5  C   UNL     1       4.118   4.003  18.674  0.00  0.00    +0.000 A 
ATOM      6  C   UNL     1       5.474   4.379  18.667  0.00  0.00    +0.000 A 
ENDROOT
BRANCH   1   8
ATOM      7  C   UNL     1       7.523   7.428  17.557  0.00  0.00    +0.000 C 
ATOM      8  C   UNL     1       7.348   5.986  18.039  0.00  0.00    +0.000 C 
ATOM      9  C   UNL     1       8.031   5.778  19.395  0.00  0.00    +0.000 C 
ENDBRANCH   1   8
BRANCH   4  10
ATOM     10  N   UNL     1       1.787   4.472  17.969  0.00  0.00    +0.000 N 
ATOM     11  H   UNL     1       1.249   4.447  18.831  0.00  0.00    +0.000 HD
ATOM     12  H   UNL     1       1.667   3.605  17.439  0.00  0.00    +0.000 HD
ENDBRANCH   4  10
BRANCH   5  13
ATOM     13  S   UNL     1       3.773   2.409  19.366  0.00  0.00    +0.000 S 
ATOM     14  O   UNL     1       2.899   2.620  20.503  0.00  0.00    +0.000 OA
ATOM     15  O   UNL     1       3.414   1.533  18.274  0.00  0.00    +0.000 OA
BRANCH  13  16
ATOM     16  O   UNL     1       5.162   1.869  19.991  0.00  0.00    +0.000 OA
ATOM     17  H   UNL     1       5.375   1.025  19.538  0.00  0.00    +0.000 HD
ENDBRANCH  13  16
ENDBRANCH   5  13
TORSDOF 4
ENDMDL
MODEL 9
REMARK VINA RESULT:      -6.2      1.548      1.961
REMARK  Name = 
REMARK  6 active torsions:
REMARK  status: ('A' for Active; 'I' for Inactive)
REMARK    1  A    between atoms: C_1  and  C_2
REMARK    2  A    between atoms: C_2  and  C_3
REMARK    3  A    between atoms: C_2  and  C_4
REMARK    4  A    between atoms: C_7  and  N_8
REMARK    5  A    between atoms: C_9  and  S_10
REMARK    6  A    between atoms: S_10  and  O_13
REMARK                            x       y       z     vdW  Elec       q    Type
REMARK                         _______ _______ _______ _____ _____    ______ ____
ROOT
ATOM      1  C   UNL     1       3.707   4.889  19.254  0.00  0.00    +0.000 A 
ATOM      2  C   UNL     1       3.150   5.559  18.161  0.00  0.00    +0.000 A 
ATOM      3  C   UNL     1       3.964   6.253  17.257  0.00  0.00    +0.000 A 
ATOM      4  C   UNL     1       5.362   6.263  17.376  0.00  0.00    +0.000 A 
ATOM      5  C   UNL     1       5.912   5.616  18.490  0.00  0.00    +0.000 A 
ATOM      6  C   UNL     1       5.099   4.922  19.405  0.00  0.00    +0.000 A 
ENDROOT
BRANCH   1   8
ATOM      7  C   UNL     1       1.633   5.064  20.676  0.00  0.00    +0.000 C 
ATOM      8  C   UNL     1       2.814   4.185  20.258  0.00  0.00    +0.000 C 
ATOM      9  C   UNL     1       2.327   2.837  19.717  0.00  0.00    +0.000 C 
ENDBRANCH   1   8
BRANCH   4  10
ATOM     10  N   UNL     1       6.081   7.107  16.515  0.00  0.00    +0.000 N 
ATOM     11  H   UNL     1       7.064   6.862  16.424  0.00  0.00    +0.000 HD
ATOM     12  H   UNL     1       5.972   8.101  16.730  0.00  0.00    +0.000 HD
ENDBRANCH   4  10
BRANCH   5  13
ATOM     13  S   UNL     1       7.644   5.624  18.864  0.00  0.00    +0.000 S 
ATOM     14  O   UNL     1       8.214   4.434  18.265  0.00  0.00    +0.000 OA
ATOM     15  O   UNL     1       8.142   6.948  18.567  0.00  0.00    +0.000 OA
BRANCH  13  16
ATOM     16  O   UNL     1       7.770   5.400  20.459  0.00  0.00    +0.000 OA
ATOM     17  H   UNL     1       6.860   5.298  20.811  0.00  0.00    +0.000 HD
ENDBRANCH  13  16
ENDBRANCH   5  13
TORSDOF 4
ENDMDL
