MODEL 1
REMARK VINA RESULT:      -6.8      0.000      0.000
REMARK  Name = 
REMARK  7 active torsions:
REMARK  status: ('A' for Active; 'I' for Inactive)
REMARK    1  A    between atoms: C_1  and  C_2
REMARK    2  A    between atoms: C_4  and  C_5
REMARK    3  A    between atoms: C_5  and  C_6
REMARK    4  A    between atoms: C_6  and  N_7
REMARK    5  A    between atoms: C_10  and  C_11
REMARK    6  A    between atoms: C_11  and  C_12
REMARK    7  A    between atoms: C_15  and  N_16
REMARK                            x       y       z     vdW  Elec       q    Type
REMARK                         _______ _______ _______ _____ _____    ______ ____
ROOT
ATOM      1  C   UNL     1       2.834   6.599  17.774  0.00  0.00    +0.000 C 
ATOM      2  C   UNL     1       2.737   5.125  18.051  0.00  0.00    +0.000 A 
ATOM      3  C   UNL     1       1.821   4.680  19.025  0.00  0.00    +0.000 A 
ATOM      4  C   UNL     1       1.704   3.323  19.353  0.00  0.00    +0.000 A 
ATOM      5  C   UNL     1       2.483   2.393  18.664  0.00  0.00    +0.000 A 
ATOM      6  C   UNL     1       3.406   2.821  17.708  0.00  0.00    +0.000 A 
ATOM      7  C   UNL     1       3.566   4.184  17.404  0.00  0.00    +0.000 A 
ENDROOT
BRANCH   4   8
ATOM      8  C   UNL     1       0.770   2.886  20.456  0.00  0.00    +0.000 C 
BRANCH   8   9
ATOM      9  C   UNL     1       1.507   2.377  21.699  0.00  0.00    +0.000 C 
BRANCH   9  10
ATOM     10  N   UNL     1       2.408   3.404  22.226  0.00  0.00    +0.000 NA
ATOM     11  H   UNL     1       2.346   4.243  21.651  0.00  0.00    +0.000 HD
ATOM     12  H   UNL     1       3.370   3.078  22.153  0.00  0.00    +0.000 HD
ENDBRANCH   9  10
ENDBRANCH   8   9
ENDBRANCH   4   8
BRANCH   7  13
ATOM     13  C   UNL     1       4.669   4.593  16.449  0.00  0.00    +0.000 C 
BRANCH  13  14
ATOM     14  C   UNL     1       5.840   5.349  17.036  0.00  0.00    +0.000 A 
ATOM     15  C   UNL     1       6.117   6.654  16.610  0.00  0.00    +0.000 A 
ATOM     16  C   UNL     1       7.094   7.423  17.252  0.00  0.00    +0.000 A 
ATOM     17  C   UNL     1       7.843   6.897  18.307  0.00  0.00    +0.000 A 
ATOM     18  C   UNL     1       7.554   5.603  18.744  0.00  0.00    +0.000 A 
ATOM     19  C   UNL     1       6.583   4.826  18.102  0.00  0.00    +0.000 A 
BRANCH  17  20
ATOM     20  N   UNL     1       8.675   7.730  19.065  0.00  0.00    +0.000 N 
ATOM     21  H   UNL     1       8.217   8.143  19.870  0.00  0.00    +0.000 HD
ATOM     22  H   UNL     1       9.188   8.411  18.515  0.00  0.00    +0.000 HD
ENDBRANCH  17  20
ENDBRANCH  13  14
ENDBRANCH   7  13
TORSDOF 6
ENDMDL
MODEL 2
REMARK VINA RESULT:      -6.8      3.270      6.011
REMARK  Name = 
REMARK  7 active torsions:
REMARK  status: ('A' for Active; 'I' for Inactive)
REMARK    1  A    between atoms: C_1  and  C_2
REMARK    2  A    between atoms: C_4  and  C_5
REMARK    3  A    between atoms: C_5  and  C_6
REMARK    4  A    between atoms: C_6  and  N_7
REMARK    5  A    between atoms: C_10  and  C_11
REMARK    6  A    between atoms: C_11  and  C_12
REMARK    7  A    between atoms: C_15  and  N_16
REMARK                            x       y       z     vdW  Elec       q    Type
REMARK                         _______ _______ _______ _____ _____    ______ ____
ROOT
ATOM      1  C   UNL     1       1.636   4.216  17.684  0.00  0.00    +0.000 C 
ATOM      2  C   UNL     1       3.070   4.659  17.597  0.00  0.00    +0.000 A 
ATOM      3  C   UNL     1       3.910   4.045  16.646  0.00  0.00    +0.000 A 
ATOM      4  C   UNL     1       5.263   4.388  16.536  0.00  0.00    +0.000 A 
ATOM      5  C   UNL     1       5.773   5.394  17.358  0.00  0.00    +0.000 A 
ATOM      6  C   UNL     1       4.957   5.999  18.316  0.00  0.00    +0.000 A 
ATOM      7  C   UNL     1       3.609   5.629  18.467  0.00  0.00    +0.000 A 
ENDROOT
BRANCH   4   8
ATOM      8  C   UNL     1       6.155   3.657  15.561  0.00  0.00    +0.000 C 
BRANCH   8   9
ATOM      9  C   UNL     1       6.407   4.446  14.272  0.00  0.00    +0.000 C 
BRANCH   9  10
ATOM     10  N   UNL     1       7.584   5.306  14.410  0.00  0.00    +0.000 NA
ATOM     11  H   UNL     1       7.325   6.169  14.887  0.00  0.00    +0.000 HD
ATOM     12  H   UNL     1       7.914   5.578  13.486  0.00  0.00    +0.000 HD
ENDBRANCH   9  10
ENDBRANCH   8   9
ENDBRANCH   4   8
BRANCH   7  13
ATOM     13  C   UNL     1       2.812   6.235  19.605  0.00  0.00    +0.000 C 
BRANCH  13  14
ATOM     14  C   UNL     1       2.212   7.603  19.371  0.00  0.00    +0.000 A 
ATOM     15  C   UNL     1       2.276   8.189  18.100  0.00  0.00    +0.000 A 
ATOM     16  C   UNL     1       1.592   9.379  17.826  0.00  0.00    +0.000 A 
ATOM     17  C   UNL     1       0.860  10.031  18.821  0.00  0.00    +0.000 A 
ATOM     18  C   UNL     1       0.780   9.437  20.082  0.00  0.00    +0.000 A 
ATOM     19  C   UNL     1       1.467   8.251  20.365  0.00  0.00    +0.000 A 
BRANCH  17  20
ATOM     20  N   UNL     1       0.026  11.106  18.492  0.00  0.00    +0.000 N 
ATOM     21  H   UNL     1      -0.109  11.766  19.250  0.00  0.00    +0.000 HD
ATOM     22  H   UNL     1      -0.846  10.832  18.053  0.00  0.00    +0.000 HD
ENDBRANCH  17  20
ENDBRANCH  13  14
ENDBRANCH   7  13
TORSDOF 6
ENDMDL
MODEL 3
REMARK VINA RESULT:      -6.8      4.384      7.014
REMARK  Name = 
REMARK  7 active torsions:
REMARK  status: ('A' for Active; 'I' for Inactive)
REMARK    1  A    between atoms: C_1  and  C_2
REMARK    2  A    between atoms: C_4  and  C_5
REMARK    3  A    between atoms: C_5  and  C_6
REMARK    4  A    between atoms: C_6  and  N_7
REMARK    5  A    between atoms: C_10  and  C_11
REMARK    6  A    between atoms: C_11  and  C_12
REMARK    7  A    between atoms: C_15  and  N_16
REMARK                            x       y       z     vdW  Elec       q    Type
REMARK                         _______ _______ _______ _____ _____    ______ ____
ROOT
ATOM      1  C   UNL     1       1.216   8.451  21.835  0.00  0.00    +0.000 C 
ATOM      2  C   UNL     1       1.063   8.885  20.404  0.00  0.00    +0.000 A 
ATOM      3  C   UNL     1       0.133   9.901  20.103  0.00  0.00    +0.000 A 
ATOM      4  C   UNL     1      -0.082  10.329  18.787  0.00  0.00    +0.000 A 
ATOM      5  C   UNL     1       0.678   9.765  17.761  0.00  0.00    +0.000 A 
ATOM      6  C   UNL     1       1.591   8.747  18.043  0.00  0.00    +0.000 A 
ATOM      7  C   UNL     1       1.781   8.276  19.354  0.00  0.00    +0.000 A 
ENDROOT
BRANCH   4   8
ATOM      8  C   UNL     1      -1.140  11.363  18.487  0.00  0.00    +0.000 C 
BRANCH   8   9
ATOM      9  C   UNL     1      -2.242  10.842  17.558  0.00  0.00    +0.000 C 
BRANCH   9  10
ATOM     10  N   UNL     1      -2.245  11.577  16.292  0.00  0.00    +0.000 NA
ATOM     11  H   UNL     1      -2.823  12.412  16.381  0.00  0.00    +0.000 HD
ATOM     12  H   UNL     1      -2.678  11.004  15.570  0.00  0.00    +0.000 HD
ENDBRANCH   9  10
ENDBRANCH   8   9
ENDBRANCH   4   8
BRANCH   7  13
ATOM     13  C   UNL     1       2.694   7.086  19.576  0.00  0.00    +0.000 C 
BRANCH  13  14
ATOM     14  C   UNL     1       2.106   5.715  19.330  0.00  0.00    +0.000 A 
ATOM     15  C   UNL     1       2.202   5.127  18.062  0.00  0.00    +0.000 A 
ATOM     16  C   UNL     1       1.807   3.801  17.857  0.00  0.00    +0.000 A 
ATOM     17  C   UNL     1       1.273   3.042  18.900  0.00  0.00    +0.000 A 
ATOM     18  C   UNL     1       1.196   3.621  20.168  0.00  0.00    +0.000 A 
ATOM     19  C   UNL     1       1.583   4.949  20.379  0.00  0.00    +0.000 A 
BRANCH  17  20
ATOM     20  N   UNL     1       1.064   1.668  18.736  0.00  0.00    +0.000 N 
ATOM     21  H   UNL     1       1.917   1.137  18.596  0.00  0.00    +0.000 HD
ATOM     22  H   UNL     1       0.346   1.438  18.058  0.00  0.00    +0.000 HD
ENDBRANCH  17  20
ENDBRANCH  13  14
ENDBRANCH   7  13
TORSDOF 6
ENDMDL
MODEL 4
REMARK VINA RESULT:      -6.7      1.436      6.530
REMARK  Name = 
REMARK  7 active torsions:
REMARK  status: ('A' for Active; 'I' for Inactive)
REMARK    1  A    between atoms: C_1  and  C_2
REMARK    2  A    between atoms: C_4  and  C_5
REMARK    3  A    between atoms: C_5  and  C_6
REMARK    4  A    between atoms: C_6  and  N_7
REMARK    5  A    between atoms: C_10  and  C_11
REMARK    6  A    between atoms: C_11  and  C_12
REMARK    7  A    between atoms: C_15  and  N_16
REMARK                            x       y       z     vdW  Elec       q    Type
REMARK                         _______ _______ _______ _____ _____    ______ ____
ROOT
ATOM      1  C   UNL     1       5.051   6.391  15.439  0.00  0.00    +0.000 C 
ATOM      2  C   UNL     1       5.889   6.157  16.665  0.00  0.00    +0.000 A 
ATOM      3  C   UNL     1       6.771   7.174  17.084  0.00  0.00    +0.000 A 
ATOM      4  C   UNL     1       7.603   7.007  18.198  0.00  0.00    +0.000 A 
ATOM      5  C   UNL     1       7.517   5.823  18.933  0.00  0.00    +0.000 A 
ATOM      6  C   UNL     1       6.660   4.802  18.520  0.00  0.00    +0.000 A 
ATOM      7  C   UNL     1       5.855   4.940  17.376  0.00  0.00    +0.000 A 
ENDROOT
BRANCH   4   8
ATOM      8  C   UNL     1       8.593   8.083  18.575  0.00  0.00    +0.000 C 
BRANCH   8   9
ATOM      9  C   UNL     1       8.226   9.460  18.011  0.00  0.00    +0.000 C 
BRANCH   9  10
ATOM     10  N   UNL     1       9.192  10.472  18.443  0.00  0.00    +0.000 NA
ATOM     11  H   UNL     1       8.736  11.138  19.066  0.00  0.00    +0.000 HD
ATOM     12  H   UNL     1       9.505  11.006  17.634  0.00  0.00    +0.000 HD
ENDBRANCH   9  10
ENDBRANCH   8   9
ENDBRANCH   4   8
BRANCH   7  13
ATOM     13  C   UNL     1       5.039   3.749  16.912  0.00  0.00    +0.000 C 
BRANCH  13  14
ATOM     14  C   UNL     1       3.767   3.450  17.674  0.00  0.00    +0.000 A 
ATOM     15  C   UNL     1       3.788   2.555  18.751  0.00  0.00    +0.000 A 
ATOM     16  C   UNL     1       2.661   2.387  19.563  0.00  0.00    +0.000 A 
ATOM     17  C   UNL     1       1.477   3.078  19.299  0.00  0.00    +0.000 A 
ATOM     18  C   UNL     1       1.462   3.985  18.237  0.00  0.00    +0.000 A 
ATOM     19  C   UNL     1       2.583   4.153  17.418  0.00  0.00    +0.000 A 
BRANCH  17  20
ATOM     20  N   UNL     1       0.426   3.053  20.222  0.00  0.00    +0.000 N 
ATOM     21  H   UNL     1       0.721   2.862  21.174  0.00  0.00    +0.000 HD
ATOM     22  H   UNL     1      -0.361   2.481  19.936  0.00  0.00    +0.000 HD
ENDBRANCH  17  20
ENDBRANCH  13  14
ENDBRANCH   7  13
TORSDOF 6
ENDMDL
MODEL 5
REMARK VINA RESULT:      -6.7      3.283      4.530
REMARK  Name = 
REMARK  7 active torsions:
REMARK  status: ('A' for Active; 'I' for Inactive)
REMARK    1  A    between atoms: C_1  and  C_2
REMARK    2  A    between atoms: C_4  and  C_5
REMARK    3  A    between atoms: C_5  and  C_6
REMARK    4  A    between atoms: C_6  and  N_7
REMARK    5  A    between atoms: C_10  and  C_11
REMARK    6  A    between atoms: C_11  and  C_12
REMARK    7  A    between atoms: C_15  and  N_16
REMARK                            x       y       z     vdW  Elec       q    Type
REMARK                         _______ _______ _______ _____ _____    ______ ____
ROOT
ATOM      1  C   UNL     1       1.992   5.164  20.875  0.00  0.00    +0.000 C 
ATOM      2  C   UNL     1       1.885   6.495  20.183  0.00  0.00    +0.000 A 
ATOM      3  C   UNL     1       1.338   7.583  20.893  0.00  0.00    +0.000 A 
ATOM      4  C   UNL     1       1.180   8.840  20.297  0.00  0.00    +0.000 A 
ATOM      5  C   UNL     1       1.619   9.024  18.985  0.00  0.00    +0.000 A 
ATOM      6  C   UNL     1       2.147   7.951  18.265  0.00  0.00    +0.000 A 
ATOM      7  C   UNL     1       2.267   6.673  18.837  0.00  0.00    +0.000 A 
ENDROOT
BRANCH   4   8
ATOM      8  C   UNL     1       0.520   9.964  21.058  0.00  0.00    +0.000 C 
BRANCH   8   9
ATOM      9  C   UNL     1      -0.316   9.475  22.246  0.00  0.00    +0.000 C 
BRANCH   9  10
ATOM     10  N   UNL     1      -0.339  10.478  23.312  0.00  0.00    +0.000 NA
ATOM     11  H   UNL     1       0.228  10.158  24.097  0.00  0.00    +0.000 HD
ATOM     12  H   UNL     1      -1.290  10.571  23.667  0.00  0.00    +0.000 HD
ENDBRANCH   9  10
ENDBRANCH   8   9
ENDBRANCH   4   8
BRANCH   7  13
ATOM     13  C   UNL     1       2.732   5.525  17.964  0.00  0.00    +0.000 C 
BRANCH  13  14
ATOM     14  C   UNL     1       4.225   5.324  17.831  0.00  0.00    +0.000 A 
ATOM     15  C   UNL     1       5.060   5.516  18.940  0.00  0.00    +0.000 A 
ATOM     16  C   UNL     1       6.418   5.183  18.878  0.00  0.00    +0.000 A 
ATOM     17  C   UNL     1       6.982   4.688  17.701  0.00  0.00    +0.000 A 
ATOM     18  C   UNL     1       6.146   4.480  16.602  0.00  0.00    +0.000 A 
ATOM     19  C   UNL     1       4.789   4.815  16.655  0.00  0.00    +0.000 A 
BRANCH  17  20
ATOM     20  N   UNL     1       8.286   4.179  17.704  0.00  0.00    +0.000 N 
ATOM     21  H   UNL     1       8.855   4.515  18.473  0.00  0.00    +0.000 HD
ATOM     22  H   UNL     1       8.758   4.251  16.809  0.00  0.00    +0.000 HD
ENDBRANCH  17  20
ENDBRANCH  13  14
ENDBRANCH   7  13
TORSDOF 6
ENDMDL
MODEL 6
REMARK VINA RESULT:      -6.7      4.390      7.095
REMARK  Name = 
REMARK  7 active torsions:
REMARK  status: ('A' for Active; 'I' for Inactive)
REMARK    1  A    between atoms: C_1  and  C_2
REMARK    2  A    between atoms: C_4  and  C_5
REMARK    3  A    between atoms: C_5  and  C_6
REMARK    4  A    between atoms: C_6  and  N_7
REMARK    5  A    between atoms: C_10  and  C_11
REMARK    6  A    between atoms: C_11  and  C_12
REMARK    7  A    between atoms: C_15  and  N_16
REMARK                            x       y       z     vdW  Elec       q    Type
REMARK                         _______ _______ _______ _____ _____    ______ ____
ROOT
ATOM      1  C   UNL     1       2.520   8.508  17.582  0.00  0.00    +0.000 C 
ATOM      2  C   UNL     1       1.661   8.837  18.771  0.00  0.00    +0.000 A 
ATOM      3  C   UNL     1       0.891  10.017  18.742  0.00  0.00    +0.000 A 
ATOM      4  C   UNL     1       0.095  10.398  19.829  0.00  0.00    +0.000 A 
ATOM      5  C   UNL     1       0.032   9.562  20.945  0.00  0.00    +0.000 A 
ATOM      6  C   UNL     1       0.802   8.398  20.994  0.00  0.00    +0.000 A 
ATOM      7  C   UNL     1       1.641   8.030  19.928  0.00  0.00    +0.000 A 
ENDROOT
BRANCH   4   8
ATOM      8  C   UNL     1      -0.657  11.706  19.799  0.00  0.00    +0.000 C 
BRANCH   8   9
ATOM      9  C   UNL     1      -0.210  12.629  18.659  0.00  0.00    +0.000 C 
BRANCH   9  10
ATOM     10  N   UNL     1      -1.227  12.685  17.607  0.00  0.00    +0.000 NA
ATOM     11  H   UNL     1      -2.131  12.409  17.988  0.00  0.00    +0.000 HD
ATOM     12  H   UNL     1      -1.002  12.005  16.884  0.00  0.00    +0.000 HD
ENDBRANCH   9  10
ENDBRANCH   8   9
ENDBRANCH   4   8
BRANCH   7  13
ATOM     13  C   UNL     1       2.543   6.823  20.094  0.00  0.00    +0.000 C 
BRANCH  13  14
ATOM     14  C   UNL     1       1.981   5.483  19.674  0.00  0.00    +0.000 A 
ATOM     15  C   UNL     1       2.170   5.022  18.365  0.00  0.00    +0.000 A 
ATOM     16  C   UNL     1       1.797   3.722  18.004  0.00  0.00    +0.000 A 
ATOM     17  C   UNL     1       1.193   2.867  18.927  0.00  0.00    +0.000 A 
ATOM     18  C   UNL     1       1.022   3.319  20.237  0.00  0.00    +0.000 A 
ATOM     19  C   UNL     1       1.387   4.619  20.603  0.00  0.00    +0.000 A 
BRANCH  17  20
ATOM     20  N   UNL     1       1.003   1.515  18.616  0.00  0.00    +0.000 N 
ATOM     21  H   UNL     1       0.578   1.360  17.708  0.00  0.00    +0.000 HD
ATOM     22  H   UNL     1       0.554   0.982  19.353  0.00  0.00    +0.000 HD
ENDBRANCH  17  20
ENDBRANCH  13  14
ENDBRANCH   7  13
TORSDOF 6
ENDMDL
MODEL 7
REMARK VINA RESULT:      -6.7      2.845      6.290
REMARK  Name = 
REMARK  7 active torsions:
REMARK  status: ('A' for Active; 'I' for Inactive)
REMARK    1  A    between atoms: C_1  and  C_2
REMARK    2  A    between atoms: C_4  and  C_5
REMARK    3  A    between atoms: C_5  and  C_6
REMARK    4  A    between atoms: C_6  and  N_7
REMARK    5  A    between atoms: C_10  and  C_11
REMARK    6  A    between atoms: C_11  and  C_12
REMARK    7  A    between atoms: C_15  and  N_16
REMARK                            x       y       z     vdW  Elec       q    Type
REMARK                         _______ _______ _______ _____ _____    ______ ____
ROOT
ATOM      1  C   UNL     1       3.958   7.042  17.024  0.00  0.00    +0.000 C 
ATOM      2  C   UNL     1       5.087   6.085  16.759  0.00  0.00    +0.000 A 
ATOM      3  C   UNL     1       5.457   5.832  15.423  0.00  0.00    +0.000 A 
ATOM      4  C   UNL     1       6.479   4.928  15.106  0.00  0.00    +0.000 A 
ATOM      5  C   UNL     1       7.171   4.302  16.143  0.00  0.00    +0.000 A 
ATOM      6  C   UNL     1       6.804   4.530  17.470  0.00  0.00    +0.000 A 
ATOM      7  C   UNL     1       5.749   5.400  17.799  0.00  0.00    +0.000 A 
ENDROOT
BRANCH   4   8
ATOM      8  C   UNL     1       6.800   4.620  13.663  0.00  0.00    +0.000 C 
BRANCH   8   9
ATOM      9  C   UNL     1       5.773   3.692  13.005  0.00  0.00    +0.000 C 
BRANCH   9  10
ATOM     10  N   UNL     1       6.440   2.661  12.208  0.00  0.00    +0.000 NA
ATOM     11  H   UNL     1       5.743   2.112  11.704  0.00  0.00    +0.000 HD
ATOM     12  H   UNL     1       6.920   2.012  12.829  0.00  0.00    +0.000 HD
ENDBRANCH   9  10
ENDBRANCH   8   9
ENDBRANCH   4   8
BRANCH   7  13
ATOM     13  C   UNL     1       5.320   5.509  19.248  0.00  0.00    +0.000 C 
BRANCH  13  14
ATOM     14  C   UNL     1       4.053   4.787  19.646  0.00  0.00    +0.000 A 
ATOM     15  C   UNL     1       2.947   5.512  20.110  0.00  0.00    +0.000 A 
ATOM     16  C   UNL     1       1.719   4.879  20.330  0.00  0.00    +0.000 A 
ATOM     17  C   UNL     1       1.573   3.505  20.130  0.00  0.00    +0.000 A 
ATOM     18  C   UNL     1       2.669   2.786  19.649  0.00  0.00    +0.000 A 
ATOM     19  C   UNL     1       3.902   3.411  19.432  0.00  0.00    +0.000 A 
BRANCH  17  20
ATOM     20  N   UNL     1       0.303   2.919  20.165  0.00  0.00    +0.000 N 
ATOM     21  H   UNL     1       0.242   2.043  19.656  0.00  0.00    +0.000 HD
ATOM     22  H   UNL     1      -0.452   3.557  19.935  0.00  0.00    +0.000 HD
ENDBRANCH  17  20
ENDBRANCH  13  14
ENDBRANCH   7  13
TORSDOF 6
ENDMDL
MODEL 8
REMARK VINA RESULT:      -6.6      4.367      7.016
REMARK  Name = 
REMARK  7 active torsions:
REMARK  status: ('A' for Active; 'I' for Inactive)
REMARK    1  A    between atoms: C_1  and  C_2
REMARK    2  A    between atoms: C_4  and  C_5
REMARK    3  A    between atoms: C_5  and  C_6
REMARK    4  A    between atoms: C_6  and  N_7
REMARK    5  A    between atoms: C_10  and  C_11
REMARK    6  A    between atoms: C_11  and  C_12
REMARK    7  A    between atoms: C_15  and  N_16
REMARK                            x       y       z     vdW  Elec       q    Type
REMARK                         _______ _______ _______ _____ _____    ______ ____
ROOT
ATOM      1  C   UNL     1       1.184   8.433  21.768  0.00  0.00    +0.000 C 
ATOM      2  C   UNL     1       1.018   8.831  20.327  0.00  0.00    +0.000 A 
ATOM      3  C   UNL     1       0.003   9.749  19.993  0.00  0.00    +0.000 A 
ATOM      4  C   UNL     1      -0.225  10.137  18.667  0.00  0.00    +0.000 A 
ATOM      5  C   UNL     1       0.605   9.633  17.664  0.00  0.00    +0.000 A 
ATOM      6  C   UNL     1       1.605   8.710  17.979  0.00  0.00    +0.000 A 
ATOM      7  C   UNL     1       1.812   8.278  19.301  0.00  0.00    +0.000 A 
ENDROOT
BRANCH   4   8
ATOM      8  C   UNL     1      -1.370  11.062  18.332  0.00  0.00    +0.000 C 
BRANCH   8   9
ATOM      9  C   UNL     1      -2.255  10.534  17.197  0.00  0.00    +0.000 C 
BRANCH   9  10
ATOM     10  N   UNL     1      -2.373  11.526  16.126  0.00  0.00    +0.000 NA
ATOM     11  H   UNL     1      -2.448  12.460  16.530  0.00  0.00    +0.000 HD
ATOM     12  H   UNL     1      -3.238  11.367  15.613  0.00  0.00    +0.000 HD
ENDBRANCH   9  10
ENDBRANCH   8   9
ENDBRANCH   4   8
BRANCH   7  13
ATOM     13  C   UNL     1       2.829   7.184  19.557  0.00  0.00    +0.000 C 
BRANCH  13  14
ATOM     14  C   UNL     1       2.371   5.758  19.346  0.00  0.00    +0.000 A 
ATOM     15  C   UNL     1       1.756   5.056  20.392  0.00  0.00    +0.000 A 
ATOM     16  C   UNL     1       1.186   3.798  20.170  0.00  0.00    +0.000 A 
ATOM     17  C   UNL     1       1.247   3.194  18.912  0.00  0.00    +0.000 A 
ATOM     18  C   UNL     1       1.843   3.901  17.866  0.00  0.00    +0.000 A 
ATOM     19  C   UNL     1       2.420   5.157  18.082  0.00  0.00    +0.000 A 
BRANCH  17  20
ATOM     20  N   UNL     1       0.511   2.033  18.652  0.00  0.00    +0.000 N 
ATOM     21  H   UNL     1       1.054   1.291  18.224  0.00  0.00    +0.000 HD
ATOM     22  H   UNL     1      -0.367   2.200  18.171  0.00  0.00    +0.000 HD
ENDBRANCH  17  20
ENDBRANCH  13  14
ENDBRANCH   7  13
TORSDOF 6
ENDMDL
MODEL 9
REMARK VINA RESULT:      -6.6      3.474      6.077
REMARK  Name = 
REMARK  7 active torsions:
REMARK  status: ('A' for Active; 'I' for Inactive)
REMARK    1  A    between atoms: C_1  and  C_2
REMARK    2  A    between atoms: C_4  and  C_5
REMARK    3  A    between atoms: C_5  and  C_6
REMARK    4  A    between atoms: C_6  and  N_7
REMARK    5  A    between atoms: C_10  and  C_11
REMARK    6  A    between atoms: C_11  and  C_12
REMARK    7  A    between atoms: C_15  and  N_16
REMARK                            x       y       z     vdW  Elec       q    Type
REMARK                         _______ _______ _______ _____ _____    ______ ____
ROOT
ATOM      1  C   UNL     1       2.009   4.016  17.646  0.00  0.00    +0.000 C 
ATOM      2  C   UNL     1       3.407   4.559  17.548  0.00  0.00    +0.000 A 
ATOM      3  C   UNL     1       4.270   4.028  16.569  0.00  0.00    +0.000 A 
ATOM      4  C   UNL     1       5.595   4.466  16.445  0.00  0.00    +0.000 A 
ATOM      5  C   UNL     1       6.049   5.485  17.285  0.00  0.00    +0.000 A 
ATOM      6  C   UNL     1       5.209   6.009  18.269  0.00  0.00    +0.000 A 
ATOM      7  C   UNL     1       3.893   5.543  18.433  0.00  0.00    +0.000 A 
ENDROOT
BRANCH   4   8
ATOM      8  C   UNL     1       6.518   3.823  15.439  0.00  0.00    +0.000 C 
BRANCH   8   9
ATOM      9  C   UNL     1       6.313   4.350  14.015  0.00  0.00    +0.000 C 
BRANCH   9  10
ATOM     10  N   UNL     1       6.201   3.243  13.063  0.00  0.00    +0.000 NA
ATOM     11  H   UNL     1       7.049   2.677  13.093  0.00  0.00    +0.000 HD
ATOM     12  H   UNL     1       6.140   3.616  12.117  0.00  0.00    +0.000 HD
ENDBRANCH   9  10
ENDBRANCH   8   9
ENDBRANCH   4   8
BRANCH   7  13
ATOM     13  C   UNL     1       3.076   6.065  19.598  0.00  0.00    +0.000 C 
BRANCH  13  14
ATOM     14  C   UNL     1       2.260   7.316  19.359  0.00  0.00    +0.000 A 
ATOM     15  C   UNL     1       1.606   7.943  20.428  0.00  0.00    +0.000 A 
ATOM     16  C   UNL     1       0.981   9.183  20.255  0.00  0.00    +0.000 A 
ATOM     17  C   UNL     1       0.961   9.809  19.008  0.00  0.00    +0.000 A 
ATOM     18  C   UNL     1       1.629   9.194  17.947  0.00  0.00    +0.000 A 
ATOM     19  C   UNL     1       2.251   7.951  18.111  0.00  0.00    +0.000 A 
BRANCH  17  20
ATOM     20  N   UNL     1       0.508  11.128  18.888  0.00  0.00    +0.000 N 
ATOM     21  H   UNL     1      -0.246  11.361  19.525  0.00  0.00    +0.000 HD
ATOM     22  H   UNL     1       0.314  11.412  17.933  0.00  0.00    +0.000 HD
ENDBRANCH  17  20
ENDBRANCH  13  14
ENDBRANCH   7  13
TORSDOF 6
ENDMDL
