MODEL 1
REMARK VINA RESULT:      -7.6      0.000      0.000
REMARK  Name = 
REMARK  8 active torsions:
REMARK  status: ('A' for Active; 'I' for Inactive)
REMARK    1  A    between atoms: C_1  and  C_2
REMARK    2  A    between atoms: C_2  and  C_3
REMARK    3  A    between atoms: N_5  and  C_6
REMARK    4  A    between atoms: N_5  and  C_12
REMARK    5  A    between atoms: N_15  and  C_16
REMARK    6  A    between atoms: C_16  and  C_17
REMARK    7  A    between atoms: C_17  and  C_18
REMARK    8  A    between atoms: C_25  and  C_26
REMARK                            x       y       z     vdW  Elec       q    Type
REMARK                         _______ _______ _______ _____ _____    ______ ____
ROOT
ATOM      1  C   UNL     1       5.106   5.540  17.936  0.00  0.00    +0.000 C 
ATOM      2  C   UNL     1       5.779   4.206  17.549  0.00  0.00    +0.000 C 
ATOM      3  C   UNL     1       5.364   3.737  16.154  0.00  0.00    +0.000 C 
ATOM      4  N   UNL     1       5.648   4.703  15.095  0.00  0.00    +0.000 NA
ATOM      5  C   UNL     1       5.157   6.042  15.429  0.00  0.00    +0.000 C 
ATOM      6  C   UNL     1       5.493   6.577  16.833  0.00  0.00    +0.000 C 
ATOM      7  C   UNL     1       6.942   7.072  16.976  0.00  0.00    +0.000 C 
ENDROOT
BRANCH   1  10
ATOM      8  C   UNL     1       2.771   6.628  18.186  0.00  0.00    +0.000 C 
ATOM      9  O   UNL     1       1.569   6.560  18.467  0.00  0.00    +0.000 OA
ATOM     10  N   UNL     1       3.620   5.502  18.191  0.00  0.00    +0.000 N 
BRANCH  10  11
ATOM     11  C   UNL     1       3.010   4.309  18.699  0.00  0.00    +0.000 A 
ATOM     12  C   UNL     1       2.194   3.547  17.852  0.00  0.00    +0.000 A 
ATOM     13  C   UNL     1       1.505   2.434  18.339  0.00  0.00    +0.000 A 
ATOM     14  C   UNL     1       1.616   2.082  19.683  0.00  0.00    +0.000 A 
ATOM     15  C   UNL     1       2.426   2.836  20.537  0.00  0.00    +0.000 A 
ATOM     16  C   UNL     1       3.116   3.948  20.047  0.00  0.00    +0.000 A 
ENDBRANCH  10  11
BRANCH   8  18
ATOM     17  C   UNL     1       2.305   9.070  17.781  0.00  0.00    +0.000 C 
ATOM     18  C   UNL     1       3.354   7.971  17.789  0.00  0.00    +0.000 C 
ENDBRANCH   8  18
ENDBRANCH   1  10
BRANCH   4  19
ATOM     19  C   UNL     1       7.031   4.689  14.622  0.00  0.00    +0.000 C 
BRANCH  19  20
ATOM     20  C   UNL     1       7.153   4.996  13.122  0.00  0.00    +0.000 C 
BRANCH  20  21
ATOM     21  C   UNL     1       6.690   3.806  12.325  0.00  0.00    +0.000 A 
ATOM     22  C   UNL     1       5.321   3.546  12.180  0.00  0.00    +0.000 A 
ATOM     23  C   UNL     1       4.894   2.396  11.521  0.00  0.00    +0.000 A 
ATOM     24  C   UNL     1       5.832   1.505  11.011  0.00  0.00    +0.000 A 
ATOM     25  C   UNL     1       7.196   1.758  11.149  0.00  0.00    +0.000 A 
ATOM     26  C   UNL     1       7.629   2.909  11.804  0.00  0.00    +0.000 A 
ENDBRANCH  20  21
ENDBRANCH  19  20
ENDBRANCH   4  19
TORSDOF 6
ENDMDL
MODEL 2
REMARK VINA RESULT:      -7.6      0.657      1.151
REMARK  Name = 
REMARK  8 active torsions:
REMARK  status: ('A' for Active; 'I' for Inactive)
REMARK    1  A    between atoms: C_1  and  C_2
REMARK    2  A    between atoms: C_2  and  C_3
REMARK    3  A    between atoms: N_5  and  C_6
REMARK    4  A    between atoms: N_5  and  C_12
REMARK    5  A    between atoms: N_15  and  C_16
REMARK    6  A    between atoms: C_16  and  C_17
REMARK    7  A    between atoms: C_17  and  C_18
REMARK    8  A    between atoms: C_25  and  C_26
REMARK                            x       y       z     vdW  Elec       q    Type
REMARK                         _______ _______ _______ _____ _____    ______ ____
ROOT
ATOM      1  C   UNL     1       4.825   5.800  18.278  0.00  0.00    +0.000 C 
ATOM      2  C   UNL     1       5.440   4.397  18.086  0.00  0.00    +0.000 C 
ATOM      3  C   UNL     1       5.051   3.778  16.743  0.00  0.00    +0.000 C 
ATOM      4  N   UNL     1       5.421   4.591  15.586  0.00  0.00    +0.000 NA
ATOM      5  C   UNL     1       4.990   5.983  15.733  0.00  0.00    +0.000 C 
ATOM      6  C   UNL     1       5.304   6.672  17.073  0.00  0.00    +0.000 C 
ATOM      7  C   UNL     1       6.772   7.112  17.214  0.00  0.00    +0.000 C 
ENDROOT
BRANCH   1  10
ATOM      8  C   UNL     1       2.542   7.019  18.292  0.00  0.00    +0.000 C 
ATOM      9  O   UNL     1       1.329   7.045  18.529  0.00  0.00    +0.000 OA
ATOM     10  N   UNL     1       3.331   5.864  18.475  0.00  0.00    +0.000 N 
BRANCH  10  11
ATOM     11  C   UNL     1       2.642   4.777  19.104  0.00  0.00    +0.000 A 
ATOM     12  C   UNL     1       1.856   3.922  18.319  0.00  0.00    +0.000 A 
ATOM     13  C   UNL     1       1.094   2.913  18.911  0.00  0.00    +0.000 A 
ATOM     14  C   UNL     1       1.100   2.759  20.296  0.00  0.00    +0.000 A 
ATOM     15  C   UNL     1       1.880   3.607  21.089  0.00  0.00    +0.000 A 
ATOM     16  C   UNL     1       2.644   4.615  20.494  0.00  0.00    +0.000 A 
ENDBRANCH  10  11
BRANCH   8  18
ATOM     17  C   UNL     1       2.295   9.483  17.833  0.00  0.00    +0.000 C 
ATOM     18  C   UNL     1       3.208   8.271  17.752  0.00  0.00    +0.000 C 
ENDBRANCH   8  18
ENDBRANCH   1  10
BRANCH   4  19
ATOM     19  C   UNL     1       6.818   4.452  15.176  0.00  0.00    +0.000 C 
BRANCH  19  20
ATOM     20  C   UNL     1       7.051   4.837  13.708  0.00  0.00    +0.000 C 
BRANCH  20  21
ATOM     21  C   UNL     1       6.389   3.826  12.810  0.00  0.00    +0.000 A 
ATOM     22  C   UNL     1       7.158   2.848  12.165  0.00  0.00    +0.000 A 
ATOM     23  C   UNL     1       6.560   1.971  11.264  0.00  0.00    +0.000 A 
ATOM     24  C   UNL     1       5.197   2.072  11.005  0.00  0.00    +0.000 A 
ATOM     25  C   UNL     1       4.425   3.041  11.644  0.00  0.00    +0.000 A 
ATOM     26  C   UNL     1       5.017   3.919  12.549  0.00  0.00    +0.000 A 
ENDBRANCH  20  21
ENDBRANCH  19  20
ENDBRANCH   4  19
TORSDOF 6
ENDMDL
MODEL 3
REMARK VINA RESULT:      -7.5      0.709      1.180
REMARK  Name = 
REMARK  8 active torsions:
REMARK  status: ('A' for Active; 'I' for Inactive)
REMARK    1  A    between atoms: C_1  and  C_2
REMARK    2  A    between atoms: C_2  and  C_3
REMARK    3  A    between atoms: N_5  and  C_6
REMARK    4  A    between atoms: N_5  and  C_12
REMARK    5  A    between atoms: N_15  and  C_16
REMARK    6  A    between atoms: C_16  and  C_17
REMARK    7  A    between atoms: C_17  and  C_18
REMARK    8  A    between atoms: C_25  and  C_26
REMARK                            x       y       z     vdW  Elec       q    Type
REMARK                         _______ _______ _______ _____ _____    ______ ____
ROOT
ATOM      1  C   UNL     1       4.752   5.711  18.356  0.00  0.00    +0.000 C 
ATOM      2  C   UNL     1       5.281   4.278  18.137  0.00  0.00    +0.000 C 
ATOM      3  C   UNL     1       4.863   3.713  16.779  0.00  0.00    +0.000 C 
ATOM      4  N   UNL     1       5.291   4.525  15.642  0.00  0.00    +0.000 NA
ATOM      5  C   UNL     1       4.944   5.937  15.817  0.00  0.00    +0.000 C 
ATOM      6  C   UNL     1       5.292   6.578  17.173  0.00  0.00    +0.000 C 
ATOM      7  C   UNL     1       6.782   6.923  17.331  0.00  0.00    +0.000 C 
ENDROOT
BRANCH   1  10
ATOM      8  C   UNL     1       2.542   7.057  18.342  0.00  0.00    +0.000 C 
ATOM      9  O   UNL     1       1.331   7.156  18.574  0.00  0.00    +0.000 OA
ATOM     10  N   UNL     1       3.264   5.863  18.546  0.00  0.00    +0.000 N 
BRANCH  10  11
ATOM     11  C   UNL     1       2.512   4.827  19.191  0.00  0.00    +0.000 A 
ATOM     12  C   UNL     1       2.639   4.654  20.576  0.00  0.00    +0.000 A 
ATOM     13  C   UNL     1       1.999   3.594  21.222  0.00  0.00    +0.000 A 
ATOM     14  C   UNL     1       1.238   2.689  20.485  0.00  0.00    +0.000 A 
ATOM     15  C   UNL     1       1.107   2.851  19.103  0.00  0.00    +0.000 A 
ATOM     16  C   UNL     1       1.746   3.913  18.458  0.00  0.00    +0.000 A 
ENDBRANCH  10  11
BRANCH   8  18
ATOM     17  C   UNL     1       2.408   9.506  17.766  0.00  0.00    +0.000 C 
ATOM     18  C   UNL     1       3.278   8.261  17.785  0.00  0.00    +0.000 C 
ENDBRANCH   8  18
ENDBRANCH   1  10
BRANCH   4  19
ATOM     19  C   UNL     1       6.679   4.309  15.236  0.00  0.00    +0.000 C 
BRANCH  19  20
ATOM     20  C   UNL     1       6.980   4.844  13.829  0.00  0.00    +0.000 C 
BRANCH  20  21
ATOM     21  C   UNL     1       6.418   3.900  12.800  0.00  0.00    +0.000 A 
ATOM     22  C   UNL     1       5.040   3.875  12.546  0.00  0.00    +0.000 A 
ATOM     23  C   UNL     1       4.508   2.938  11.662  0.00  0.00    +0.000 A 
ATOM     24  C   UNL     1       5.351   2.027  11.036  0.00  0.00    +0.000 A 
ATOM     25  C   UNL     1       6.723   2.047  11.281  0.00  0.00    +0.000 A 
ATOM     26  C   UNL     1       7.261   2.983  12.161  0.00  0.00    +0.000 A 
ENDBRANCH  20  21
ENDBRANCH  19  20
ENDBRANCH   4  19
TORSDOF 6
ENDMDL
MODEL 4
REMARK VINA RESULT:      -7.3      2.606      8.003
REMARK  Name = 
REMARK  8 active torsions:
REMARK  status: ('A' for Active; 'I' for Inactive)
REMARK    1  A    between atoms: C_1  and  C_2
REMARK    2  A    between atoms: C_2  and  C_3
REMARK    3  A    between atoms: N_5  and  C_6
REMARK    4  A    between atoms: N_5  and  C_12
REMARK    5  A    between atoms: N_15  and  C_16
REMARK    6  A    between atoms: C_16  and  C_17
REMARK    7  A    between atoms: C_17  and  C_18
REMARK    8  A    between atoms: C_25  and  C_26
REMARK                            x       y       z     vdW  Elec       q    Type
REMARK                         _______ _______ _______ _____ _____    ______ ____
ROOT
ATOM      1  C   UNL     1       3.721   5.102  19.235  0.00  0.00    +0.000 C 
ATOM      2  C   UNL     1       4.524   6.400  19.006  0.00  0.00    +0.000 C 
ATOM      3  C   UNL     1       4.105   7.116  17.722  0.00  0.00    +0.000 C 
ATOM      4  N   UNL     1       2.684   7.454  17.668  0.00  0.00    +0.000 NA
ATOM      5  C   UNL     1       1.835   6.307  18.000  0.00  0.00    +0.000 C 
ATOM      6  C   UNL     1       2.211   5.503  19.257  0.00  0.00    +0.000 C 
ATOM      7  C   UNL     1       1.805   6.186  20.574  0.00  0.00    +0.000 C 
ENDROOT
BRANCH   1  10
ATOM      8  C   UNL     1       3.507   2.645  18.450  0.00  0.00    +0.000 C 
ATOM      9  O   UNL     1       3.813   1.720  17.689  0.00  0.00    +0.000 OA
ATOM     10  N   UNL     1       3.998   3.958  18.292  0.00  0.00    +0.000 N 
BRANCH  10  11
ATOM     11  C   UNL     1       4.998   4.092  17.275  0.00  0.00    +0.000 A 
ATOM     12  C   UNL     1       6.339   4.247  17.654  0.00  0.00    +0.000 A 
ATOM     13  C   UNL     1       7.326   4.478  16.694  0.00  0.00    +0.000 A 
ATOM     14  C   UNL     1       6.980   4.569  15.348  0.00  0.00    +0.000 A 
ATOM     15  C   UNL     1       5.645   4.417  14.959  0.00  0.00    +0.000 A 
ATOM     16  C   UNL     1       4.658   4.184  15.921  0.00  0.00    +0.000 A 
ENDBRANCH  10  11
BRANCH   8  18
ATOM     17  C   UNL     1       1.128   2.112  19.083  0.00  0.00    +0.000 C 
ATOM     18  C   UNL     1       2.539   2.367  19.585  0.00  0.00    +0.000 C 
ENDBRANCH   8  18
ENDBRANCH   1  10
BRANCH   4  19
ATOM     19  C   UNL     1       2.328   8.674  18.391  0.00  0.00    +0.000 C 
BRANCH  19  20
ATOM     20  C   UNL     1       1.025   9.309  17.885  0.00  0.00    +0.000 C 
BRANCH  20  21
ATOM     21  C   UNL     1       0.305   9.964  19.033  0.00  0.00    +0.000 A 
ATOM     22  C   UNL     1      -0.686  10.924  18.786  0.00  0.00    +0.000 A 
ATOM     23  C   UNL     1      -1.288  11.596  19.847  0.00  0.00    +0.000 A 
ATOM     24  C   UNL     1      -0.898  11.314  21.152  0.00  0.00    +0.000 A 
ATOM     25  C   UNL     1       0.085  10.359  21.406  0.00  0.00    +0.000 A 
ATOM     26  C   UNL     1       0.688   9.681  20.349  0.00  0.00    +0.000 A 
ENDBRANCH  20  21
ENDBRANCH  19  20
ENDBRANCH   4  19
TORSDOF 6
ENDMDL
MODEL 5
REMARK VINA RESULT:      -7.3      1.610      2.803
REMARK  Name = 
REMARK  8 active torsions:
REMARK  status: ('A' for Active; 'I' for Inactive)
REMARK    1  A    between atoms: C_1  and  C_2
REMARK    2  A    between atoms: C_2  and  C_3
REMARK    3  A    between atoms: N_5  and  C_6
REMARK    4  A    between atoms: N_5  and  C_12
REMARK    5  A    between atoms: N_15  and  C_16
REMARK    6  A    between atoms: C_16  and  C_17
REMARK    7  A    between atoms: C_17  and  C_18
REMARK    8  A    between atoms: C_25  and  C_26
REMARK                            x       y       z     vdW  Elec       q    Type
REMARK                         _______ _______ _______ _____ _____    ______ ____
ROOT
ATOM      1  C   UNL     1       3.121   5.310  17.513  0.00  0.00    +0.000 C 
ATOM      2  C   UNL     1       4.270   6.223  17.035  0.00  0.00    +0.000 C 
ATOM      3  C   UNL     1       5.475   6.171  17.975  0.00  0.00    +0.000 C 
ATOM      4  N   UNL     1       6.021   4.828  18.164  0.00  0.00    +0.000 NA
ATOM      5  C   UNL     1       4.978   3.854  18.497  0.00  0.00    +0.000 C 
ATOM      6  C   UNL     1       3.709   3.867  17.626  0.00  0.00    +0.000 C 
ATOM      7  C   UNL     1       3.895   3.199  16.252  0.00  0.00    +0.000 C 
ENDROOT
BRANCH   1  10
ATOM      8  C   UNL     1       2.233   7.068  19.191  0.00  0.00    +0.000 C 
ATOM      9  O   UNL     1       1.687   7.367  20.259  0.00  0.00    +0.000 OA
ATOM     10  N   UNL     1       2.394   5.733  18.764  0.00  0.00    +0.000 N 
BRANCH  10  11
ATOM     11  C   UNL     1       2.013   4.755  19.739  0.00  0.00    +0.000 A 
ATOM     12  C   UNL     1       2.720   4.687  20.948  0.00  0.00    +0.000 A 
ATOM     13  C   UNL     1       2.441   3.685  21.879  0.00  0.00    +0.000 A 
ATOM     14  C   UNL     1       1.462   2.732  21.604  0.00  0.00    +0.000 A 
ATOM     15  C   UNL     1       0.752   2.790  20.400  0.00  0.00    +0.000 A 
ATOM     16  C   UNL     1       1.031   3.795  19.471  0.00  0.00    +0.000 A 
ENDBRANCH  10  11
BRANCH   8  18
ATOM     17  C   UNL     1       1.628   9.179  17.958  0.00  0.00    +0.000 C 
ATOM     18  C   UNL     1       2.726   8.181  18.286  0.00  0.00    +0.000 C 
ENDBRANCH   8  18
ENDBRANCH   1  10
BRANCH   4  19
ATOM     19  C   UNL     1       6.914   4.386  17.094  0.00  0.00    +0.000 C 
BRANCH  19  20
ATOM     20  C   UNL     1       7.205   5.488  16.066  0.00  0.00    +0.000 C 
BRANCH  20  21
ATOM     21  C   UNL     1       7.091   4.923  14.675  0.00  0.00    +0.000 A 
ATOM     22  C   UNL     1       7.860   5.459  13.633  0.00  0.00    +0.000 A 
ATOM     23  C   UNL     1       7.688   4.999  12.330  0.00  0.00    +0.000 A 
ATOM     24  C   UNL     1       6.748   4.009  12.067  0.00  0.00    +0.000 A 
ATOM     25  C   UNL     1       5.981   3.469  13.098  0.00  0.00    +0.000 A 
ATOM     26  C   UNL     1       6.151   3.923  14.404  0.00  0.00    +0.000 A 
ENDBRANCH  20  21
ENDBRANCH  19  20
ENDBRANCH   4  19
TORSDOF 6
ENDMDL
MODEL 6
REMARK VINA RESULT:      -7.3      1.540      3.814
REMARK  Name = 
REMARK  8 active torsions:
REMARK  status: ('A' for Active; 'I' for Inactive)
REMARK    1  A    between atoms: C_1  and  C_2
REMARK    2  A    between atoms: C_2  and  C_3
REMARK    3  A    between atoms: N_5  and  C_6
REMARK    4  A    between atoms: N_5  and  C_12
REMARK    5  A    between atoms: N_15  and  C_16
REMARK    6  A    between atoms: C_16  and  C_17
REMARK    7  A    between atoms: C_17  and  C_18
REMARK    8  A    between atoms: C_25  and  C_26
REMARK                            x       y       z     vdW  Elec       q    Type
REMARK                         _______ _______ _______ _____ _____    ______ ____
ROOT
ATOM      1  C   UNL     1       4.075   4.562  19.679  0.00  0.00    +0.000 C 
ATOM      2  C   UNL     1       4.243   3.279  18.837  0.00  0.00    +0.000 C 
ATOM      3  C   UNL     1       3.955   3.522  17.355  0.00  0.00    +0.000 C 
ATOM      4  N   UNL     1       4.786   4.564  16.753  0.00  0.00    +0.000 NA
ATOM      5  C   UNL     1       4.794   5.790  17.554  0.00  0.00    +0.000 C 
ATOM      6  C   UNL     1       5.035   5.632  19.067  0.00  0.00    +0.000 C 
ATOM      7  C   UNL     1       6.507   5.380  19.436  0.00  0.00    +0.000 C 
ENDROOT
BRANCH   1  10
ATOM      8  C   UNL     1       1.544   4.282  20.136  0.00  0.00    +0.000 C 
ATOM      9  O   UNL     1       0.398   4.741  20.203  0.00  0.00    +0.000 OA
ATOM     10  N   UNL     1       2.670   5.081  19.850  0.00  0.00    +0.000 N 
BRANCH  10  11
ATOM     11  C   UNL     1       2.355   6.432  19.491  0.00  0.00    +0.000 A 
ATOM     12  C   UNL     1       2.026   7.347  20.501  0.00  0.00    +0.000 A 
ATOM     13  C   UNL     1       1.619   8.644  20.180  0.00  0.00    +0.000 A 
ATOM     14  C   UNL     1       1.523   9.033  18.846  0.00  0.00    +0.000 A 
ATOM     15  C   UNL     1       1.848   8.128  17.831  0.00  0.00    +0.000 A 
ATOM     16  C   UNL     1       2.257   6.831  18.153  0.00  0.00    +0.000 A 
ENDBRANCH  10  11
BRANCH   8  18
ATOM     17  C   UNL     1       1.669   2.471  21.882  0.00  0.00    +0.000 C 
ATOM     18  C   UNL     1       1.756   2.804  20.402  0.00  0.00    +0.000 C 
ENDBRANCH   8  18
ENDBRANCH   1  10
BRANCH   4  19
ATOM     19  C   UNL     1       6.120   4.115  16.357  0.00  0.00    +0.000 C 
BRANCH  19  20
ATOM     20  C   UNL     1       6.858   5.137  15.480  0.00  0.00    +0.000 C 
BRANCH  20  21
ATOM     21  C   UNL     1       6.877   4.656  14.054  0.00  0.00    +0.000 A 
ATOM     22  C   UNL     1       7.722   5.267  13.118  0.00  0.00    +0.000 A 
ATOM     23  C   UNL     1       7.675   4.885  11.779  0.00  0.00    +0.000 A 
ATOM     24  C   UNL     1       6.782   3.897  11.376  0.00  0.00    +0.000 A 
ATOM     25  C   UNL     1       5.940   3.283  12.302  0.00  0.00    +0.000 A 
ATOM     26  C   UNL     1       5.986   3.659  13.643  0.00  0.00    +0.000 A 
ENDBRANCH  20  21
ENDBRANCH  19  20
ENDBRANCH   4  19
TORSDOF 6
ENDMDL
MODEL 7
REMARK VINA RESULT:      -7.1      2.628      7.821
REMARK  Name = 
REMARK  8 active torsions:
REMARK  status: ('A' for Active; 'I' for Inactive)
REMARK    1  A    between atoms: C_1  and  C_2
REMARK    2  A    between atoms: C_2  and  C_3
REMARK    3  A    between atoms: N_5  and  C_6
REMARK    4  A    between atoms: N_5  and  C_12
REMARK    5  A    between atoms: N_15  and  C_16
REMARK    6  A    between atoms: C_16  and  C_17
REMARK    7  A    between atoms: C_17  and  C_18
REMARK    8  A    between atoms: C_25  and  C_26
REMARK                            x       y       z     vdW  Elec       q    Type
REMARK                         _______ _______ _______ _____ _____    ______ ____
ROOT
ATOM      1  C   UNL     1       3.656   4.940  19.303  0.00  0.00    +0.000 C 
ATOM      2  C   UNL     1       4.339   6.319  19.186  0.00  0.00    +0.000 C 
ATOM      3  C   UNL     1       3.849   7.101  17.967  0.00  0.00    +0.000 C 
ATOM      4  N   UNL     1       2.404   7.315  17.942  0.00  0.00    +0.000 NA
ATOM      5  C   UNL     1       1.662   6.075  18.175  0.00  0.00    +0.000 C 
ATOM      6  C   UNL     1       2.117   5.202  19.359  0.00  0.00    +0.000 C 
ATOM      7  C   UNL     1       1.662   5.733  20.729  0.00  0.00    +0.000 C 
ENDROOT
BRANCH   1  10
ATOM      8  C   UNL     1       3.621   2.559  18.291  0.00  0.00    +0.000 C 
ATOM      9  O   UNL     1       4.002   1.731  17.456  0.00  0.00    +0.000 OA
ATOM     10  N   UNL     1       4.026   3.910  18.266  0.00  0.00    +0.000 N 
BRANCH  10  11
ATOM     11  C   UNL     1       5.033   4.202  17.290  0.00  0.00    +0.000 A 
ATOM     12  C   UNL     1       4.671   4.275  15.938  0.00  0.00    +0.000 A 
ATOM     13  C   UNL     1       5.641   4.461  14.951  0.00  0.00    +0.000 A 
ATOM     14  C   UNL     1       6.984   4.561  15.307  0.00  0.00    +0.000 A 
ATOM     15  C   UNL     1       7.357   4.489  16.653  0.00  0.00    +0.000 A 
ATOM     16  C   UNL     1       6.384   4.306  17.639  0.00  0.00    +0.000 A 
ENDBRANCH  10  11
BRANCH   8  18
ATOM     17  C   UNL     1       1.232   1.991  18.851  0.00  0.00    +0.000 C 
ATOM     18  C   UNL     1       2.654   2.114  19.372  0.00  0.00    +0.000 C 
ENDBRANCH   8  18
ENDBRANCH   1  10
BRANCH   4  19
ATOM     19  C   UNL     1       1.947   8.434  18.766  0.00  0.00    +0.000 C 
BRANCH  19  20
ATOM     20  C   UNL     1       1.760   9.729  17.963  0.00  0.00    +0.000 C 
BRANCH  20  21
ATOM     21  C   UNL     1       0.419  10.334  18.288  0.00  0.00    +0.000 A 
ATOM     22  C   UNL     1      -0.752   9.763  17.773  0.00  0.00    +0.000 A 
ATOM     23  C   UNL     1      -1.984  10.374  17.996  0.00  0.00    +0.000 A 
ATOM     24  C   UNL     1      -2.045  11.554  18.729  0.00  0.00    +0.000 A 
ATOM     25  C   UNL     1      -0.884  12.126  19.247  0.00  0.00    +0.000 A 
ATOM     26  C   UNL     1       0.350  11.518  19.029  0.00  0.00    +0.000 A 
ENDBRANCH  20  21
ENDBRANCH  19  20
ENDBRANCH   4  19
TORSDOF 6
ENDMDL
MODEL 8
REMARK VINA RESULT:      -7.1      2.693      7.965
REMARK  Name = 
REMARK  8 active torsions:
REMARK  status: ('A' for Active; 'I' for Inactive)
REMARK    1  A    between atoms: C_1  and  C_2
REMARK    2  A    between atoms: C_2  and  C_3
REMARK    3  A    between atoms: N_5  and  C_6
REMARK    4  A    between atoms: N_5  and  C_12
REMARK    5  A    between atoms: N_15  and  C_16
REMARK    6  A    between atoms: C_16  and  C_17
REMARK    7  A    between atoms: C_17  and  C_18
REMARK    8  A    between atoms: C_25  and  C_26
REMARK                            x       y       z     vdW  Elec       q    Type
REMARK                         _______ _______ _______ _____ _____    ______ ____
ROOT
ATOM      1  C   UNL     1       3.653   4.895  19.326  0.00  0.00    +0.000 C 
ATOM      2  C   UNL     1       4.363   6.257  19.168  0.00  0.00    +0.000 C 
ATOM      3  C   UNL     1       3.877   7.018  17.934  0.00  0.00    +0.000 C 
ATOM      4  N   UNL     1       2.436   7.260  17.916  0.00  0.00    +0.000 NA
ATOM      5  C   UNL     1       1.672   6.040  18.187  0.00  0.00    +0.000 C 
ATOM      6  C   UNL     1       2.120   5.189  19.389  0.00  0.00    +0.000 C 
ATOM      7  C   UNL     1       1.688   5.763  20.749  0.00  0.00    +0.000 C 
ENDROOT
BRANCH   1  10
ATOM      8  C   UNL     1       3.530   2.500  18.354  0.00  0.00    +0.000 C 
ATOM      9  O   UNL     1       3.887   1.642  17.538  0.00  0.00    +0.000 OA
ATOM     10  N   UNL     1       3.993   3.832  18.312  0.00  0.00    +0.000 N 
BRANCH  10  11
ATOM     11  C   UNL     1       5.026   4.063  17.347  0.00  0.00    +0.000 A 
ATOM     12  C   UNL     1       6.346   4.232  17.788  0.00  0.00    +0.000 A 
ATOM     13  C   UNL     1       7.361   4.557  16.886  0.00  0.00    +0.000 A 
ATOM     14  C   UNL     1       7.063   4.729  15.536  0.00  0.00    +0.000 A 
ATOM     15  C   UNL     1       5.749   4.564  15.085  0.00  0.00    +0.000 A 
ATOM     16  C   UNL     1       4.735   4.237  15.989  0.00  0.00    +0.000 A 
ENDBRANCH  10  11
BRANCH   8  18
ATOM     17  C   UNL     1       1.112   2.035  18.884  0.00  0.00    +0.000 C 
ATOM     18  C   UNL     1       2.529   2.116  19.427  0.00  0.00    +0.000 C 
ENDBRANCH   8  18
ENDBRANCH   1  10
BRANCH   4  19
ATOM     19  C   UNL     1       2.009   8.407  18.716  0.00  0.00    +0.000 C 
BRANCH  19  20
ATOM     20  C   UNL     1       1.947   9.710  17.905  0.00  0.00    +0.000 C 
BRANCH  20  21
ATOM     21  C   UNL     1       0.988  10.667  18.562  0.00  0.00    +0.000 A 
ATOM     22  C   UNL     1      -0.300  10.242  18.913  0.00  0.00    +0.000 A 
ATOM     23  C   UNL     1      -1.217  11.150  19.436  0.00  0.00    +0.000 A 
ATOM     24  C   UNL     1      -0.850  12.481  19.604  0.00  0.00    +0.000 A 
ATOM     25  C   UNL     1       0.430  12.911  19.259  0.00  0.00    +0.000 A 
ATOM     26  C   UNL     1       1.353  12.006  18.739  0.00  0.00    +0.000 A 
ENDBRANCH  20  21
ENDBRANCH  19  20
ENDBRANCH   4  19
TORSDOF 6
ENDMDL
MODEL 9
REMARK VINA RESULT:      -7.0      1.697      2.514
REMARK  Name = 
REMARK  8 active torsions:
REMARK  status: ('A' for Active; 'I' for Inactive)
REMARK    1  A    between atoms: C_1  and  C_2
REMARK    2  A    between atoms: C_2  and  C_3
REMARK    3  A    between atoms: N_5  and  C_6
REMARK    4  A    between atoms: N_5  and  C_12
REMARK    5  A    between atoms: N_15  and  C_16
REMARK    6  A    between atoms: C_16  and  C_17
REMARK    7  A    between atoms: C_17  and  C_18
REMARK    8  A    between atoms: C_25  and  C_26
REMARK                            x       y       z     vdW  Elec       q    Type
REMARK                         _______ _______ _______ _____ _____    ______ ____
ROOT
ATOM      1  C   UNL     1       3.848   6.335  18.992  0.00  0.00    +0.000 C 
ATOM      2  C   UNL     1       5.016   5.399  19.368  0.00  0.00    +0.000 C 
ATOM      3  C   UNL     1       4.764   3.958  18.923  0.00  0.00    +0.000 C 
ATOM      4  N   UNL     1       4.521   3.815  17.488  0.00  0.00    +0.000 NA
ATOM      5  C   UNL     1       3.511   4.760  17.007  0.00  0.00    +0.000 C 
ATOM      6  C   UNL     1       3.664   6.228  17.444  0.00  0.00    +0.000 C 
ATOM      7  C   UNL     1       4.751   6.994  16.670  0.00  0.00    +0.000 C 
ENDROOT
BRANCH   1  10
ATOM      8  C   UNL     1       1.731   7.180  20.217  0.00  0.00    +0.000 C 
ATOM      9  O   UNL     1       0.710   6.974  20.883  0.00  0.00    +0.000 OA
ATOM     10  N   UNL     1       2.553   6.138  19.738  0.00  0.00    +0.000 N 
BRANCH  10  11
ATOM     11  C   UNL     1       2.192   4.838  20.221  0.00  0.00    +0.000 A 
ATOM     12  C   UNL     1       1.319   4.047  19.461  0.00  0.00    +0.000 A 
ATOM     13  C   UNL     1       0.870   2.817  19.947  0.00  0.00    +0.000 A 
ATOM     14  C   UNL     1       1.279   2.374  21.203  0.00  0.00    +0.000 A 
ATOM     15  C   UNL     1       2.149   3.155  21.969  0.00  0.00    +0.000 A 
ATOM     16  C   UNL     1       2.599   4.385  21.481  0.00  0.00    +0.000 A 
ENDBRANCH  10  11
BRANCH   8  18
ATOM     17  C   UNL     1       1.471   9.064  18.566  0.00  0.00    +0.000 C 
ATOM     18  C   UNL     1       2.101   8.610  19.871  0.00  0.00    +0.000 C 
ENDBRANCH   8  18
ENDBRANCH   1  10
BRANCH   4  19
ATOM     19  C   UNL     1       5.735   3.791  16.673  0.00  0.00    +0.000 C 
BRANCH  19  20
ATOM     20  C   UNL     1       5.523   3.122  15.307  0.00  0.00    +0.000 C 
BRANCH  20  21
ATOM     21  C   UNL     1       6.260   3.896  14.247  0.00  0.00    +0.000 A 
ATOM     22  C   UNL     1       6.172   3.508  12.903  0.00  0.00    +0.000 A 
ATOM     23  C   UNL     1       6.925   4.166  11.934  0.00  0.00    +0.000 A 
ATOM     24  C   UNL     1       7.768   5.209  12.307  0.00  0.00    +0.000 A 
ATOM     25  C   UNL     1       7.859   5.602  13.641  0.00  0.00    +0.000 A 
ATOM     26  C   UNL     1       7.105   4.949  14.614  0.00  0.00    +0.000 A 
ENDBRANCH  20  21
ENDBRANCH  19  20
ENDBRANCH   4  19
TORSDOF 6
ENDMDL
