MODEL 1
REMARK VINA RESULT:      -8.3      0.000      0.000
REMARK  Name = 
REMARK  2 active torsions:
REMARK  status: ('A' for Active; 'I' for Inactive)
REMARK    1  A    between atoms: C_2  and  C_3
REMARK    2  A    between atoms: C_20  and  C_21
REMARK                            x       y       z     vdW  Elec       q    Type
REMARK                         _______ _______ _______ _____ _____    ______ ____
ROOT
ATOM      1  O   UNL     1       4.231   4.565  19.796  0.00  0.00    +0.000 OA
ATOM      2  C   UNL     1       4.047   5.340  18.855  0.00  0.00    +0.000 C 
ATOM      3  N   UNL     1       3.016   6.274  18.835  0.00  0.00    +0.000 N 
ATOM      4  C   UNL     1       2.035   6.286  19.944  0.00  0.00    +0.000 C 
ATOM      5  C   UNL     1       1.858   7.699  20.553  0.00  0.00    +0.000 C 
ATOM      6  N   UNL     1       1.596   8.631  19.455  0.00  0.00    +0.000 N 
ATOM      7  C   UNL     1       0.617   9.585  19.533  0.00  0.00    +0.000 A 
ATOM      8  C   UNL     1      -0.019  10.031  18.371  0.00  0.00    +0.000 A 
ATOM      9  C   UNL     1      -1.054  10.955  18.448  0.00  0.00    +0.000 A 
ATOM     10  C   UNL     1      -1.439  11.441  19.690  0.00  0.00    +0.000 A 
ATOM     11  C   UNL     1      -0.754  10.966  20.796  0.00  0.00    +0.000 A 
ATOM     12  N   UNL     1       0.237  10.044  20.740  0.00  0.00    +0.000 NA
ATOM     13  C   UNL     1       2.653   8.709  18.456  0.00  0.00    +0.000 C 
ATOM     14  C   UNL     1       2.816   7.325  17.822  0.00  0.00    +0.000 C 
ENDROOT
BRANCH   2  15
ATOM     15  C   UNL     1       5.015   5.279  17.726  0.00  0.00    +0.000 A 
ATOM     16  C   UNL     1       6.245   5.930  17.874  0.00  0.00    +0.000 A 
ATOM     17  C   UNL     1       7.163   5.937  16.820  0.00  0.00    +0.000 A 
ATOM     18  C   UNL     1       6.841   5.313  15.616  0.00  0.00    +0.000 A 
ATOM     19  C   UNL     1       5.626   4.637  15.482  0.00  0.00    +0.000 A 
ATOM     20  C   UNL     1       4.731   4.586  16.547  0.00  0.00    +0.000 A 
ATOM     21  O   UNL     1       5.225   4.026  14.323  0.00  0.00    +0.000 OA
ATOM     22  C   UNL     1       6.336   3.789  13.455  0.00  0.00    +0.000 C 
ATOM     23  C   UNL     1       7.222   5.020  13.344  0.00  0.00    +0.000 C 
ATOM     24  O   UNL     1       7.773   5.389  14.614  0.00  0.00    +0.000 OA
ENDBRANCH   2  15
BRANCH  10  25
ATOM     25  C   UNL     1      -2.551  12.421  19.860  0.00  0.00    +0.000 C 
ATOM     26  F   UNL     1      -3.531  12.298  18.916  0.00  0.00    +0.000 F 
ATOM     27  F   UNL     1      -3.181  12.296  21.061  0.00  0.00    +0.000 F 
ATOM     28  F   UNL     1      -2.128  13.711  19.790  0.00  0.00    +0.000 F 
ENDBRANCH  10  25
TORSDOF 2
ENDMDL
MODEL 2
REMARK VINA RESULT:      -8.1      1.600      1.918
REMARK  Name = 
REMARK  2 active torsions:
REMARK  status: ('A' for Active; 'I' for Inactive)
REMARK    1  A    between atoms: C_2  and  C_3
REMARK    2  A    between atoms: C_20  and  C_21
REMARK                            x       y       z     vdW  Elec       q    Type
REMARK                         _______ _______ _______ _____ _____    ______ ____
ROOT
ATOM      1  O   UNL     1       3.781   2.890  18.224  0.00  0.00    +0.000 OA
ATOM      2  C   UNL     1       3.900   4.035  17.784  0.00  0.00    +0.000 C 
ATOM      3  N   UNL     1       3.114   5.097  18.219  0.00  0.00    +0.000 N 
ATOM      4  C   UNL     1       2.022   4.837  19.185  0.00  0.00    +0.000 C 
ATOM      5  C   UNL     1       2.085   5.783  20.409  0.00  0.00    +0.000 C 
ATOM      6  N   UNL     1       2.184   7.156  19.908  0.00  0.00    +0.000 N 
ATOM      7  C   UNL     1       1.440   8.175  20.439  0.00  0.00    +0.000 A 
ATOM      8  C   UNL     1       1.078   9.265  19.642  0.00  0.00    +0.000 A 
ATOM      9  C   UNL     1       0.273  10.275  20.157  0.00  0.00    +0.000 A 
ATOM     10  C   UNL     1      -0.155  10.196  21.475  0.00  0.00    +0.000 A 
ATOM     11  C   UNL     1       0.255   9.095  22.209  0.00  0.00    +0.000 A 
ATOM     12  N   UNL     1       1.015   8.089  21.714  0.00  0.00    +0.000 NA
ATOM     13  C   UNL     1       3.354   7.421  19.083  0.00  0.00    +0.000 C 
ATOM     14  C   UNL     1       3.288   6.514  17.852  0.00  0.00    +0.000 C 
ENDROOT
BRANCH   2  15
ATOM     15  C   UNL     1       4.970   4.268  16.777  0.00  0.00    +0.000 A 
ATOM     16  C   UNL     1       6.141   4.911  17.193  0.00  0.00    +0.000 A 
ATOM     17  C   UNL     1       7.151   5.191  16.268  0.00  0.00    +0.000 A 
ATOM     18  C   UNL     1       6.980   4.848  14.929  0.00  0.00    +0.000 A 
ATOM     19  C   UNL     1       5.824   4.177  14.522  0.00  0.00    +0.000 A 
ATOM     20  C   UNL     1       4.839   3.852  15.450  0.00  0.00    +0.000 A 
ATOM     21  O   UNL     1       5.569   3.832  13.221  0.00  0.00    +0.000 OA
ATOM     22  C   UNL     1       6.768   3.840  12.441  0.00  0.00    +0.000 C 
ATOM     23  C   UNL     1       7.587   5.093  12.701  0.00  0.00    +0.000 C 
ATOM     24  O   UNL     1       7.995   5.183  14.071  0.00  0.00    +0.000 OA
ENDBRANCH   2  15
BRANCH  10  25
ATOM     25  C   UNL     1      -1.034  11.227  22.098  0.00  0.00    +0.000 C 
ATOM     26  F   UNL     1      -2.008  11.688  21.258  0.00  0.00    +0.000 F 
ATOM     27  F   UNL     1      -1.688  10.763  23.198  0.00  0.00    +0.000 F 
ATOM     28  F   UNL     1      -0.345  12.326  22.505  0.00  0.00    +0.000 F 
ENDBRANCH  10  25
TORSDOF 2
ENDMDL
MODEL 3
REMARK VINA RESULT:      -8.0      5.861     10.455
REMARK  Name = 
REMARK  2 active torsions:
REMARK  status: ('A' for Active; 'I' for Inactive)
REMARK    1  A    between atoms: C_2  and  C_3
REMARK    2  A    between atoms: C_20  and  C_21
REMARK                            x       y       z     vdW  Elec       q    Type
REMARK                         _______ _______ _______ _____ _____    ______ ____
ROOT
ATOM      1  O   UNL     1      -0.187  12.324  18.513  0.00  0.00    +0.000 OA
ATOM      2  C   UNL     1      -0.379  11.611  19.500  0.00  0.00    +0.000 C 
ATOM      3  N   UNL     1       0.004  10.275  19.552  0.00  0.00    +0.000 N 
ATOM      4  C   UNL     1       0.584   9.644  18.345  0.00  0.00    +0.000 C 
ATOM      5  C   UNL     1       1.922   8.925  18.645  0.00  0.00    +0.000 C 
ATOM      6  N   UNL     1       1.706   8.038  19.791  0.00  0.00    +0.000 N 
ATOM      7  C   UNL     1       2.183   6.755  19.813  0.00  0.00    +0.000 A 
ATOM      8  C   UNL     1       1.515   5.774  20.549  0.00  0.00    +0.000 A 
ATOM      9  C   UNL     1       1.959   4.456  20.529  0.00  0.00    +0.000 A 
ATOM     10  C   UNL     1       3.082   4.130  19.780  0.00  0.00    +0.000 A 
ATOM     11  C   UNL     1       3.702   5.158  19.088  0.00  0.00    +0.000 A 
ATOM     12  N   UNL     1       3.264   6.439  19.075  0.00  0.00    +0.000 NA
ATOM     13  C   UNL     1       1.281   8.710  21.011  0.00  0.00    +0.000 C 
ATOM     14  C   UNL     1      -0.058   9.399  20.736  0.00  0.00    +0.000 C 
ENDROOT
BRANCH   2  15
ATOM     15  C   UNL     1      -1.008  12.250  20.687  0.00  0.00    +0.000 A 
ATOM     16  C   UNL     1      -0.193  12.993  21.549  0.00  0.00    +0.000 A 
ATOM     17  C   UNL     1      -0.736  13.570  22.700  0.00  0.00    +0.000 A 
ATOM     18  C   UNL     1      -2.084  13.385  22.999  0.00  0.00    +0.000 A 
ATOM     19  C   UNL     1      -2.902  12.669  22.122  0.00  0.00    +0.000 A 
ATOM     20  C   UNL     1      -2.376  12.136  20.948  0.00  0.00    +0.000 A 
ATOM     21  O   UNL     1      -4.229  12.419  22.359  0.00  0.00    +0.000 OA
ATOM     22  C   UNL     1      -4.754  13.315  23.342  0.00  0.00    +0.000 C 
ATOM     23  C   UNL     1      -3.822  13.430  24.538  0.00  0.00    +0.000 C 
ATOM     24  O   UNL     1      -2.541  13.948  24.161  0.00  0.00    +0.000 OA
ENDBRANCH   2  15
BRANCH  10  25
ATOM     25  C   UNL     1       3.612   2.739  19.692  0.00  0.00    +0.000 C 
ATOM     26  F   UNL     1       4.340   2.365  20.785  0.00  0.00    +0.000 F 
ATOM     27  F   UNL     1       2.625   1.808  19.573  0.00  0.00    +0.000 F 
ATOM     28  F   UNL     1       4.431   2.557  18.622  0.00  0.00    +0.000 F 
ENDBRANCH  10  25
TORSDOF 2
ENDMDL
MODEL 4
REMARK VINA RESULT:      -7.9      1.053      1.345
REMARK  Name = 
REMARK  2 active torsions:
REMARK  status: ('A' for Active; 'I' for Inactive)
REMARK    1  A    between atoms: C_2  and  C_3
REMARK    2  A    between atoms: C_20  and  C_21
REMARK                            x       y       z     vdW  Elec       q    Type
REMARK                         _______ _______ _______ _____ _____    ______ ____
ROOT
ATOM      1  O   UNL     1       4.362   3.557  18.606  0.00  0.00    +0.000 OA
ATOM      2  C   UNL     1       4.283   4.537  17.862  0.00  0.00    +0.000 C 
ATOM      3  N   UNL     1       3.355   5.556  18.051  0.00  0.00    +0.000 N 
ATOM      4  C   UNL     1       2.352   5.425  19.132  0.00  0.00    +0.000 C 
ATOM      5  C   UNL     1       2.306   6.677  20.043  0.00  0.00    +0.000 C 
ATOM      6  N   UNL     1       2.170   7.853  19.180  0.00  0.00    +0.000 N 
ATOM      7  C   UNL     1       1.293   8.864  19.468  0.00  0.00    +0.000 A 
ATOM      8  C   UNL     1       0.736   9.622  18.435  0.00  0.00    +0.000 A 
ATOM      9  C   UNL     1      -0.201  10.611  18.715  0.00  0.00    +0.000 A 
ATOM     10  C   UNL     1      -0.565  10.846  20.034  0.00  0.00    +0.000 A 
ATOM     11  C   UNL     1       0.039  10.066  21.007  0.00  0.00    +0.000 A 
ATOM     12  N   UNL     1       0.931   9.081  20.747  0.00  0.00    +0.000 NA
ATOM     13  C   UNL     1       3.254   8.039  18.226  0.00  0.00    +0.000 C 
ATOM     14  C   UNL     1       3.290   6.822  17.299  0.00  0.00    +0.000 C 
ENDROOT
BRANCH   2  15
ATOM     15  C   UNL     1       5.268   4.627  16.751  0.00  0.00    +0.000 A 
ATOM     16  C   UNL     1       6.486   5.270  16.996  0.00  0.00    +0.000 A 
ATOM     17  C   UNL     1       7.420   5.417  15.966  0.00  0.00    +0.000 A 
ATOM     18  C   UNL     1       7.124   4.941  14.690  0.00  0.00    +0.000 A 
ATOM     19  C   UNL     1       5.920   4.272  14.455  0.00  0.00    +0.000 A 
ATOM     20  C   UNL     1       5.011   4.079  15.491  0.00  0.00    +0.000 A 
ATOM     21  O   UNL     1       5.544   3.802  13.224  0.00  0.00    +0.000 OA
ATOM     22  C   UNL     1       6.671   3.688  12.351  0.00  0.00    +0.000 C 
ATOM     23  C   UNL     1       7.542   4.933  12.406  0.00  0.00    +0.000 C 
ATOM     24  O   UNL     1       8.069   5.150  13.720  0.00  0.00    +0.000 OA
ENDBRANCH   2  15
BRANCH  10  25
ATOM     25  C   UNL     1      -1.574  11.875  20.417  0.00  0.00    +0.000 C 
ATOM     26  F   UNL     1      -1.085  13.151  20.391  0.00  0.00    +0.000 F 
ATOM     27  F   UNL     1      -2.657  11.881  19.592  0.00  0.00    +0.000 F 
ATOM     28  F   UNL     1      -2.060  11.691  21.673  0.00  0.00    +0.000 F 
ENDBRANCH  10  25
TORSDOF 2
ENDMDL
MODEL 5
REMARK VINA RESULT:      -7.8      1.222      1.569
REMARK  Name = 
REMARK  2 active torsions:
REMARK  status: ('A' for Active; 'I' for Inactive)
REMARK    1  A    between atoms: C_2  and  C_3
REMARK    2  A    between atoms: C_20  and  C_21
REMARK                            x       y       z     vdW  Elec       q    Type
REMARK                         _______ _______ _______ _____ _____    ______ ____
ROOT
ATOM      1  O   UNL     1       3.456   3.192  19.539  0.00  0.00    +0.000 OA
ATOM      2  C   UNL     1       3.559   4.235  18.890  0.00  0.00    +0.000 C 
ATOM      3  N   UNL     1       2.732   5.335  19.093  0.00  0.00    +0.000 N 
ATOM      4  C   UNL     1       1.618   5.230  20.062  0.00  0.00    +0.000 C 
ATOM      5  C   UNL     1       1.618   6.396  21.082  0.00  0.00    +0.000 C 
ATOM      6  N   UNL     1       1.696   7.650  20.329  0.00  0.00    +0.000 N 
ATOM      7  C   UNL     1       0.909   8.728  20.634  0.00  0.00    +0.000 A 
ATOM      8  C   UNL     1       0.544   9.632  19.634  0.00  0.00    +0.000 A 
ATOM      9  C   UNL     1      -0.303  10.696  19.923  0.00  0.00    +0.000 A 
ATOM     10  C   UNL     1      -0.770  10.857  21.221  0.00  0.00    +0.000 A 
ATOM     11  C   UNL     1      -0.354   9.931  22.164  0.00  0.00    +0.000 A 
ATOM     12  N   UNL     1       0.447   8.874  21.891  0.00  0.00    +0.000 NA
ATOM     13  C   UNL     1       2.884   7.789  19.499  0.00  0.00    +0.000 C 
ATOM     14  C   UNL     1       2.880   6.661  18.464  0.00  0.00    +0.000 C 
ENDROOT
BRANCH   2  15
ATOM     15  C   UNL     1       4.654   4.305  17.886  0.00  0.00    +0.000 A 
ATOM     16  C   UNL     1       5.949   4.586  18.336  0.00  0.00    +0.000 A 
ATOM     17  C   UNL     1       6.997   4.707  17.420  0.00  0.00    +0.000 A 
ATOM     18  C   UNL     1       6.746   4.567  16.056  0.00  0.00    +0.000 A 
ATOM     19  C   UNL     1       5.458   4.255  15.611  0.00  0.00    +0.000 A 
ATOM     20  C   UNL     1       4.423   4.084  16.525  0.00  0.00    +0.000 A 
ATOM     21  O   UNL     1       5.125   4.130  14.288  0.00  0.00    +0.000 OA
ATOM     22  C   UNL     1       6.289   3.926  13.481  0.00  0.00    +0.000 C 
ATOM     23  C   UNL     1       7.396   4.900  13.852  0.00  0.00    +0.000 C 
ATOM     24  O   UNL     1       7.812   4.732  15.212  0.00  0.00    +0.000 OA
ENDBRANCH   2  15
BRANCH  10  25
ATOM     25  C   UNL     1      -1.694  11.961  21.610  0.00  0.00    +0.000 C 
ATOM     26  F   UNL     1      -1.062  13.156  21.803  0.00  0.00    +0.000 F 
ATOM     27  F   UNL     1      -2.651  12.199  20.671  0.00  0.00    +0.000 F 
ATOM     28  F   UNL     1      -2.359  11.703  22.768  0.00  0.00    +0.000 F 
ENDBRANCH  10  25
TORSDOF 2
ENDMDL
MODEL 6
REMARK VINA RESULT:      -7.7      3.302      4.366
REMARK  Name = 
REMARK  2 active torsions:
REMARK  status: ('A' for Active; 'I' for Inactive)
REMARK    1  A    between atoms: C_2  and  C_3
REMARK    2  A    between atoms: C_20  and  C_21
REMARK                            x       y       z     vdW  Elec       q    Type
REMARK                         _______ _______ _______ _____ _____    ______ ____
ROOT
ATOM      1  O   UNL     1       2.674   8.497  16.944  0.00  0.00    +0.000 OA
ATOM      2  C   UNL     1       2.387   8.121  18.083  0.00  0.00    +0.000 C 
ATOM      3  N   UNL     1       1.760   8.943  19.013  0.00  0.00    +0.000 N 
ATOM      4  C   UNL     1       1.504  10.359  18.667  0.00  0.00    +0.000 C 
ATOM      5  C   UNL     1       0.031  10.766  18.915  0.00  0.00    +0.000 C 
ATOM      6  N   UNL     1      -0.321  10.366  20.280  0.00  0.00    +0.000 N 
ATOM      7  C   UNL     1      -1.014  11.194  21.121  0.00  0.00    +0.000 A 
ATOM      8  C   UNL     1      -0.830  11.101  22.503  0.00  0.00    +0.000 A 
ATOM      9  C   UNL     1      -1.486  11.977  23.360  0.00  0.00    +0.000 A 
ATOM     10  C   UNL     1      -2.337  12.937  22.828  0.00  0.00    +0.000 A 
ATOM     11  C   UNL     1      -2.482  12.961  21.450  0.00  0.00    +0.000 A 
ATOM     12  N   UNL     1      -1.828  12.132  20.601  0.00  0.00    +0.000 NA
ATOM     13  C   UNL     1      -0.204   8.939  20.546  0.00  0.00    +0.000 C 
ATOM     14  C   UNL     1       1.256   8.530  20.336  0.00  0.00    +0.000 C 
ENDROOT
BRANCH   2  15
ATOM     15  C   UNL     1       2.696   6.708  18.429  0.00  0.00    +0.000 A 
ATOM     16  C   UNL     1       3.880   6.441  19.126  0.00  0.00    +0.000 A 
ATOM     17  C   UNL     1       4.231   5.123  19.430  0.00  0.00    +0.000 A 
ATOM     18  C   UNL     1       3.411   4.075  19.018  0.00  0.00    +0.000 A 
ATOM     19  C   UNL     1       2.213   4.345  18.350  0.00  0.00    +0.000 A 
ATOM     20  C   UNL     1       1.836   5.659  18.092  0.00  0.00    +0.000 A 
ATOM     21  O   UNL     1       1.369   3.370  17.889  0.00  0.00    +0.000 OA
ATOM     22  C   UNL     1       1.624   2.120  18.534  0.00  0.00    +0.000 C 
ATOM     23  C   UNL     1       3.112   1.814  18.578  0.00  0.00    +0.000 C 
ATOM     24  O   UNL     1       3.833   2.806  19.319  0.00  0.00    +0.000 OA
ENDBRANCH   2  15
BRANCH  10  25
ATOM     25  C   UNL     1      -3.064  13.925  23.676  0.00  0.00    +0.000 C 
ATOM     26  F   UNL     1      -3.631  14.941  22.960  0.00  0.00    +0.000 F 
ATOM     27  F   UNL     1      -4.082  13.361  24.382  0.00  0.00    +0.000 F 
ATOM     28  F   UNL     1      -2.257  14.523  24.592  0.00  0.00    +0.000 F 
ENDBRANCH  10  25
TORSDOF 2
ENDMDL
MODEL 7
REMARK VINA RESULT:      -7.7      5.836     10.535
REMARK  Name = 
REMARK  2 active torsions:
REMARK  status: ('A' for Active; 'I' for Inactive)
REMARK    1  A    between atoms: C_2  and  C_3
REMARK    2  A    between atoms: C_20  and  C_21
REMARK                            x       y       z     vdW  Elec       q    Type
REMARK                         _______ _______ _______ _____ _____    ______ ____
ROOT
ATOM      1  O   UNL     1      -0.930  12.473  18.360  0.00  0.00    +0.000 OA
ATOM      2  C   UNL     1      -0.898  11.767  19.369  0.00  0.00    +0.000 C 
ATOM      3  N   UNL     1      -0.351  10.488  19.379  0.00  0.00    +0.000 N 
ATOM      4  C   UNL     1       0.133   9.902  18.108  0.00  0.00    +0.000 C 
ATOM      5  C   UNL     1       1.577   9.356  18.229  0.00  0.00    +0.000 C 
ATOM      6  N   UNL     1       1.628   8.477  19.400  0.00  0.00    +0.000 N 
ATOM      7  C   UNL     1       2.257   7.262  19.367  0.00  0.00    +0.000 A 
ATOM      8  C   UNL     1       1.819   6.226  20.195  0.00  0.00    +0.000 A 
ATOM      9  C   UNL     1       2.414   4.971  20.125  0.00  0.00    +0.000 A 
ATOM     10  C   UNL     1       3.456   4.764  19.232  0.00  0.00    +0.000 A 
ATOM     11  C   UNL     1       3.847   5.841  18.453  0.00  0.00    +0.000 A 
ATOM     12  N   UNL     1       3.259   7.060  18.490  0.00  0.00    +0.000 NA
ATOM     13  C   UNL     1       1.292   9.124  20.661  0.00  0.00    +0.000 C 
ATOM     14  C   UNL     1      -0.145   9.640  20.567  0.00  0.00    +0.000 C 
ENDROOT
BRANCH   2  15
ATOM     15  C   UNL     1      -1.434  12.354  20.626  0.00  0.00    +0.000 A 
ATOM     16  C   UNL     1      -0.549  13.031  21.471  0.00  0.00    +0.000 A 
ATOM     17  C   UNL     1      -1.002  13.557  22.684  0.00  0.00    +0.000 A 
ATOM     18  C   UNL     1      -2.334  13.386  23.059  0.00  0.00    +0.000 A 
ATOM     19  C   UNL     1      -3.224  12.736  22.199  0.00  0.00    +0.000 A 
ATOM     20  C   UNL     1      -2.786  12.257  20.968  0.00  0.00    +0.000 A 
ATOM     21  O   UNL     1      -4.539  12.503  22.508  0.00  0.00    +0.000 OA
ATOM     22  C   UNL     1      -4.978  13.357  23.568  0.00  0.00    +0.000 C 
ATOM     23  C   UNL     1      -3.970  13.386  24.706  0.00  0.00    +0.000 C 
ATOM     24  O   UNL     1      -2.703  13.895  24.276  0.00  0.00    +0.000 OA
ENDBRANCH   2  15
BRANCH  10  25
ATOM     25  C   UNL     1       4.136   3.445  19.083  0.00  0.00    +0.000 C 
ATOM     26  F   UNL     1       3.728   2.745  17.982  0.00  0.00    +0.000 F 
ATOM     27  F   UNL     1       5.487   3.561  18.962  0.00  0.00    +0.000 F 
ATOM     28  F   UNL     1       3.923   2.622  20.144  0.00  0.00    +0.000 F 
ENDBRANCH  10  25
TORSDOF 2
ENDMDL
MODEL 8
REMARK VINA RESULT:      -7.6      5.916     10.537
REMARK  Name = 
REMARK  2 active torsions:
REMARK  status: ('A' for Active; 'I' for Inactive)
REMARK    1  A    between atoms: C_2  and  C_3
REMARK    2  A    between atoms: C_20  and  C_21
REMARK                            x       y       z     vdW  Elec       q    Type
REMARK                         _______ _______ _______ _____ _____    ______ ____
ROOT
ATOM      1  O   UNL     1      -0.352  12.438  18.403  0.00  0.00    +0.000 OA
ATOM      2  C   UNL     1      -0.566  11.757  19.408  0.00  0.00    +0.000 C 
ATOM      3  N   UNL     1      -0.168  10.429  19.521  0.00  0.00    +0.000 N 
ATOM      4  C   UNL     1       0.461   9.765  18.356  0.00  0.00    +0.000 C 
ATOM      5  C   UNL     1       1.798   9.076  18.726  0.00  0.00    +0.000 C 
ATOM      6  N   UNL     1       1.556   8.227  19.895  0.00  0.00    +0.000 N 
ATOM      7  C   UNL     1       2.049   6.953  19.978  0.00  0.00    +0.000 A 
ATOM      8  C   UNL     1       1.370   5.988  20.727  0.00  0.00    +0.000 A 
ATOM      9  C   UNL     1       1.832   4.677  20.768  0.00  0.00    +0.000 A 
ATOM     10  C   UNL     1       2.983   4.342  20.069  0.00  0.00    +0.000 A 
ATOM     11  C   UNL     1       3.612   5.353  19.361  0.00  0.00    +0.000 A 
ATOM     12  N   UNL     1       3.158   6.627  19.288  0.00  0.00    +0.000 NA
ATOM     13  C   UNL     1       1.081   8.936  21.075  0.00  0.00    +0.000 C 
ATOM     14  C   UNL     1      -0.257   9.595  20.732  0.00  0.00    +0.000 C 
ENDROOT
BRANCH   2  15
ATOM     15  C   UNL     1      -1.243  12.428  20.551  0.00  0.00    +0.000 A 
ATOM     16  C   UNL     1      -2.638  12.345  20.635  0.00  0.00    +0.000 A 
ATOM     17  C   UNL     1      -3.317  13.000  21.666  0.00  0.00    +0.000 A 
ATOM     18  C   UNL     1      -2.603  13.753  22.596  0.00  0.00    +0.000 A 
ATOM     19  C   UNL     1      -1.209  13.809  22.529  0.00  0.00    +0.000 A 
ATOM     20  C   UNL     1      -0.527  13.115  21.534  0.00  0.00    +0.000 A 
ATOM     21  O   UNL     1      -0.440  14.549  23.388  0.00  0.00    +0.000 OA
ATOM     22  C   UNL     1      -1.166  14.882  24.574  0.00  0.00    +0.000 C 
ATOM     23  C   UNL     1      -2.560  15.390  24.243  0.00  0.00    +0.000 C 
ATOM     24  O   UNL     1      -3.335  14.398  23.559  0.00  0.00    +0.000 OA
ENDBRANCH   2  15
BRANCH  10  25
ATOM     25  C   UNL     1       3.535   2.957  20.047  0.00  0.00    +0.000 C 
ATOM     26  F   UNL     1       2.860   2.117  19.208  0.00  0.00    +0.000 F 
ATOM     27  F   UNL     1       4.834   2.916  19.640  0.00  0.00    +0.000 F 
ATOM     28  F   UNL     1       3.505   2.361  21.269  0.00  0.00    +0.000 F 
ENDBRANCH  10  25
TORSDOF 2
ENDMDL
MODEL 9
REMARK VINA RESULT:      -7.5      5.988     10.819
REMARK  Name = 
REMARK  2 active torsions:
REMARK  status: ('A' for Active; 'I' for Inactive)
REMARK    1  A    between atoms: C_2  and  C_3
REMARK    2  A    between atoms: C_20  and  C_21
REMARK                            x       y       z     vdW  Elec       q    Type
REMARK                         _______ _______ _______ _____ _____    ______ ____
ROOT
ATOM      1  O   UNL     1      -0.912  12.866  19.262  0.00  0.00    +0.000 OA
ATOM      2  C   UNL     1      -0.971  12.103  20.229  0.00  0.00    +0.000 C 
ATOM      3  N   UNL     1      -0.515  10.790  20.183  0.00  0.00    +0.000 N 
ATOM      4  C   UNL     1      -0.020  10.243  18.900  0.00  0.00    +0.000 C 
ATOM      5  C   UNL     1       1.377   9.590  19.041  0.00  0.00    +0.000 C 
ATOM      6  N   UNL     1       1.319   8.646  20.160  0.00  0.00    +0.000 N 
ATOM      7  C   UNL     1       1.863   7.392  20.078  0.00  0.00    +0.000 A 
ATOM      8  C   UNL     1       1.321   6.345  20.827  0.00  0.00    +0.000 A 
ATOM      9  C   UNL     1       1.830   5.057  20.705  0.00  0.00    +0.000 A 
ATOM     10  C   UNL     1       2.892   4.827  19.842  0.00  0.00    +0.000 A 
ATOM     11  C   UNL     1       3.388   5.915  19.142  0.00  0.00    +0.000 A 
ATOM     12  N   UNL     1       2.884   7.169  19.229  0.00  0.00    +0.000 NA
ATOM     13  C   UNL     1       0.976   9.242  21.444  0.00  0.00    +0.000 C 
ATOM     14  C   UNL     1      -0.417   9.864  21.326  0.00  0.00    +0.000 C 
ENDROOT
BRANCH   2  15
ATOM     15  C   UNL     1      -1.518  12.655  21.497  0.00  0.00    +0.000 A 
ATOM     16  C   UNL     1      -2.800  12.259  21.893  0.00  0.00    +0.000 A 
ATOM     17  C   UNL     1      -3.369  12.791  23.054  0.00  0.00    +0.000 A 
ATOM     18  C   UNL     1      -2.665  13.732  23.803  0.00  0.00    +0.000 A 
ATOM     19  C   UNL     1      -1.372  14.102  23.423  0.00  0.00    +0.000 A 
ATOM     20  C   UNL     1      -0.783  13.536  22.296  0.00  0.00    +0.000 A 
ATOM     21  O   UNL     1      -0.628  15.040  24.089  0.00  0.00    +0.000 OA
ATOM     22  C   UNL     1      -1.133  15.254  25.410  0.00  0.00    +0.000 C 
ATOM     23  C   UNL     1      -2.645  15.413  25.405  0.00  0.00    +0.000 C 
ATOM     24  O   UNL     1      -3.296  14.238  24.909  0.00  0.00    +0.000 OA
ENDBRANCH   2  15
BRANCH  10  25
ATOM     25  C   UNL     1       3.485   3.473  19.640  0.00  0.00    +0.000 C 
ATOM     26  F   UNL     1       4.802   3.505  19.280  0.00  0.00    +0.000 F 
ATOM     27  F   UNL     1       3.430   2.704  20.763  0.00  0.00    +0.000 F 
ATOM     28  F   UNL     1       2.852   2.764  18.668  0.00  0.00    +0.000 F 
ENDBRANCH  10  25
TORSDOF 2
ENDMDL
