MODEL 1
REMARK VINA RESULT:      -7.1      0.000      0.000
REMARK  Name = 
REMARK  10 active torsions:
REMARK  status: ('A' for Active; 'I' for Inactive)
REMARK    1  A    between atoms: C_1  and  C_2
REMARK    2  A    between atoms: C_2  and  C_3
REMARK    3  A    between atoms: C_3  and  O_4
REMARK    4  A    between atoms: O_4  and  C_5
REMARK    5  A    between atoms: C_7  and  N_8
REMARK    6  A    between atoms: C_11  and  O_12
REMARK    7  A    between atoms: C_17  and  N_18
REMARK    8  A    between atoms: C_19  and  C_21
REMARK    9  A    between atoms: C_21  and  C_22
REMARK   10  A    between atoms: C_21  and  C_23
REMARK                            x       y       z     vdW  Elec       q    Type
REMARK                         _______ _______ _______ _____ _____    ______ ____
ROOT
ATOM      1  C   UNL     1       2.272   7.253  19.745  0.00  0.00    +0.000 A 
ATOM      2  C   UNL     1       1.450   8.348  20.074  0.00  0.00    +0.000 A 
ATOM      3  C   UNL     1       1.158   9.393  19.189  0.00  0.00    +0.000 A 
ATOM      4  C   UNL     1       1.752   9.315  17.928  0.00  0.00    +0.000 A 
ATOM      5  C   UNL     1       2.601   8.253  17.577  0.00  0.00    +0.000 A 
ATOM      6  C   UNL     1       2.876   7.223  18.481  0.00  0.00    +0.000 A 
ENDROOT
BRANCH   3   7
ATOM      7  N   UNL     1       0.297  10.423  19.535  0.00  0.00    +0.000 N 
ATOM      8  C   UNL     1       0.810  11.745  19.926  0.00  0.00    +0.000 C 
ATOM      9  C   UNL     1       0.588  12.755  18.810  0.00  0.00    +0.000 C 
ATOM     10  C   UNL     1      -0.876  12.791  18.383  0.00  0.00    +0.000 C 
ATOM     11  C   UNL     1      -1.407  11.397  18.047  0.00  0.00    +0.000 C 
ATOM     12  C   UNL     1      -1.114  10.368  19.147  0.00  0.00    +0.000 C 
BRANCH  10  13
ATOM     13  O   UNL     1      -1.675  13.411  19.392  0.00  0.00    +0.000 OA
ATOM     14  H   UNL     1      -1.203  13.371  20.241  0.00  0.00    +0.000 HD
ENDBRANCH  10  13
ENDBRANCH   3   7
BRANCH   6  15
ATOM     15  N   UNL     1       3.720   6.145  18.126  0.00  0.00    +0.000 N 
ATOM     16  C   UNL     1       3.257   4.913  17.687  0.00  0.00    +0.000 C 
ATOM     17  O   UNL     1       2.077   4.667  17.438  0.00  0.00    +0.000 OA
ATOM     18  H   UNL     1       4.676   6.398  17.914  0.00  0.00    +0.000 HD
BRANCH  16  19
ATOM     19  C   UNL     1       4.343   3.833  17.562  0.00  0.00    +0.000 C 
ATOM     20  C   UNL     1       3.705   2.451  17.775  0.00  0.00    +0.000 C 
BRANCH  19  21
ATOM     21  C   UNL     1       5.053   3.829  16.226  0.00  0.00    +0.000 C 
ATOM     22  C   UNL     1       5.443   5.075  15.468  0.00  0.00    +0.000 C 
ATOM     23  C   UNL     1       6.497   4.277  16.178  0.00  0.00    +0.000 C 
ENDBRANCH  19  21
ENDBRANCH  16  19
ENDBRANCH   6  15
BRANCH   1  24
ATOM     24  O   UNL     1       2.550   6.222  20.629  0.00  0.00    +0.000 OA
BRANCH  24  25
ATOM     25  C   UNL     1       1.459   5.312  20.828  0.00  0.00    +0.000 C 
BRANCH  25  27
ATOM     26  C   UNL     1       1.127   2.886  20.354  0.00  0.00    +0.000 C 
ATOM     27  C   UNL     1       1.940   3.905  21.146  0.00  0.00    +0.000 C 
ENDBRANCH  25  27
ENDBRANCH  24  25
ENDBRANCH   1  24
TORSDOF 8
ENDMDL
MODEL 2
REMARK VINA RESULT:      -6.9      1.000      1.036
REMARK  Name = 
REMARK  10 active torsions:
REMARK  status: ('A' for Active; 'I' for Inactive)
REMARK    1  A    between atoms: C_1  and  C_2
REMARK    2  A    between atoms: C_2  and  C_3
REMARK    3  A    between atoms: C_3  and  O_4
REMARK    4  A    between atoms: O_4  and  C_5
REMARK    5  A    between atoms: C_7  and  N_8
REMARK    6  A    between atoms: C_11  and  O_12
REMARK    7  A    between atoms: C_17  and  N_18
REMARK    8  A    between atoms: C_19  and  C_21
REMARK    9  A    between atoms: C_21  and  C_22
REMARK   10  A    between atoms: C_21  and  C_23
REMARK                            x       y       z     vdW  Elec       q    Type
REMARK                         _______ _______ _______ _____ _____    ______ ____
ROOT
ATOM      1  C   UNL     1       2.144   6.931  19.711  0.00  0.00    +0.000 A 
ATOM      2  C   UNL     1       1.565   8.144  20.129  0.00  0.00    +0.000 A 
ATOM      3  C   UNL     1       1.378   9.247  19.286  0.00  0.00    +0.000 A 
ATOM      4  C   UNL     1       1.825   9.098  17.971  0.00  0.00    +0.000 A 
ATOM      5  C   UNL     1       2.434   7.913  17.529  0.00  0.00    +0.000 A 
ATOM      6  C   UNL     1       2.608   6.828  18.393  0.00  0.00    +0.000 A 
ENDROOT
BRANCH   3   7
ATOM      7  N   UNL     1       0.751  10.402  19.725  0.00  0.00    +0.000 N 
ATOM      8  C   UNL     1       1.466  11.688  19.768  0.00  0.00    +0.000 C 
ATOM      9  C   UNL     1       1.000  12.594  18.639  0.00  0.00    +0.000 C 
ATOM     10  C   UNL     1      -0.517  12.760  18.655  0.00  0.00    +0.000 C 
ATOM     11  C   UNL     1      -1.238  11.412  18.679  0.00  0.00    +0.000 C 
ATOM     12  C   UNL     1      -0.711  10.476  19.775  0.00  0.00    +0.000 C 
BRANCH  10  13
ATOM     13  O   UNL     1      -0.918  13.572  19.759  0.00  0.00    +0.000 OA
ATOM     14  H   UNL     1      -1.798  13.290  20.059  0.00  0.00    +0.000 HD
ENDBRANCH  10  13
ENDBRANCH   3   7
BRANCH   6  15
ATOM     15  N   UNL     1       3.210   5.628  17.945  0.00  0.00    +0.000 N 
ATOM     16  C   UNL     1       4.579   5.404  17.942  0.00  0.00    +0.000 C 
ATOM     17  O   UNL     1       5.405   6.167  18.444  0.00  0.00    +0.000 OA
ATOM     18  H   UNL     1       2.595   4.826  17.909  0.00  0.00    +0.000 HD
BRANCH  16  19
ATOM     19  C   UNL     1       5.012   4.120  17.218  0.00  0.00    +0.000 C 
ATOM     20  C   UNL     1       3.998   3.005  17.522  0.00  0.00    +0.000 C 
BRANCH  19  21
ATOM     21  C   UNL     1       5.121   4.269  15.716  0.00  0.00    +0.000 C 
ATOM     22  C   UNL     1       5.676   5.488  15.022  0.00  0.00    +0.000 C 
ATOM     23  C   UNL     1       6.496   4.234  15.088  0.00  0.00    +0.000 C 
ENDBRANCH  19  21
ENDBRANCH  16  19
ENDBRANCH   6  15
BRANCH   1  24
ATOM     24  O   UNL     1       2.319   5.844  20.553  0.00  0.00    +0.000 OA
BRANCH  24  25
ATOM     25  C   UNL     1       1.184   4.971  20.625  0.00  0.00    +0.000 C 
BRANCH  25  27
ATOM     26  C   UNL     1       1.517   2.693  21.583  0.00  0.00    +0.000 C 
ATOM     27  C   UNL     1       1.550   3.529  20.309  0.00  0.00    +0.000 C 
ENDBRANCH  25  27
ENDBRANCH  24  25
ENDBRANCH   1  24
TORSDOF 8
ENDMDL
MODEL 3
REMARK VINA RESULT:      -6.8      1.428      3.403
REMARK  Name = 
REMARK  10 active torsions:
REMARK  status: ('A' for Active; 'I' for Inactive)
REMARK    1  A    between atoms: C_1  and  C_2
REMARK    2  A    between atoms: C_2  and  C_3
REMARK    3  A    between atoms: C_3  and  O_4
REMARK    4  A    between atoms: O_4  and  C_5
REMARK    5  A    between atoms: C_7  and  N_8
REMARK    6  A    between atoms: C_11  and  O_12
REMARK    7  A    between atoms: C_17  and  N_18
REMARK    8  A    between atoms: C_19  and  C_21
REMARK    9  A    between atoms: C_21  and  C_22
REMARK   10  A    between atoms: C_21  and  C_23
REMARK                            x       y       z     vdW  Elec       q    Type
REMARK                         _______ _______ _______ _____ _____    ______ ____
ROOT
ATOM      1  C   UNL     1       2.394   7.445  18.563  0.00  0.00    +0.000 A 
ATOM      2  C   UNL     1       1.861   8.691  18.181  0.00  0.00    +0.000 A 
ATOM      3  C   UNL     1       1.168   9.539  19.054  0.00  0.00    +0.000 A 
ATOM      4  C   UNL     1       1.001   9.074  20.360  0.00  0.00    +0.000 A 
ATOM      5  C   UNL     1       1.493   7.824  20.766  0.00  0.00    +0.000 A 
ATOM      6  C   UNL     1       2.180   6.997  19.873  0.00  0.00    +0.000 A 
ENDROOT
BRANCH   3   7
ATOM      7  N   UNL     1       0.711  10.784  18.650  0.00  0.00    +0.000 N 
ATOM      8  C   UNL     1      -0.714  11.015  18.363  0.00  0.00    +0.000 C 
ATOM      9  C   UNL     1      -1.360  11.818  19.481  0.00  0.00    +0.000 C 
ATOM     10  C   UNL     1      -0.593  13.110  19.747  0.00  0.00    +0.000 C 
ATOM     11  C   UNL     1       0.896  12.852  19.976  0.00  0.00    +0.000 C 
ATOM     12  C   UNL     1       1.524  11.980  18.880  0.00  0.00    +0.000 C 
BRANCH  10  13
ATOM     13  O   UNL     1      -0.792  14.036  18.678  0.00  0.00    +0.000 OA
ATOM     14  H   UNL     1       0.061  14.438  18.442  0.00  0.00    +0.000 HD
ENDBRANCH  10  13
ENDBRANCH   3   7
BRANCH   6  15
ATOM     15  N   UNL     1       2.688   5.742  20.284  0.00  0.00    +0.000 N 
ATOM     16  C   UNL     1       1.918   4.594  20.392  0.00  0.00    +0.000 C 
ATOM     17  O   UNL     1       0.746   4.511  20.022  0.00  0.00    +0.000 OA
ATOM     18  H   UNL     1       3.692   5.637  20.208  0.00  0.00    +0.000 HD
BRANCH  16  19
ATOM     19  C   UNL     1       2.633   3.407  21.057  0.00  0.00    +0.000 C 
ATOM     20  C   UNL     1       1.619   2.615  21.898  0.00  0.00    +0.000 C 
BRANCH  19  21
ATOM     21  C   UNL     1       3.283   2.456  20.075  0.00  0.00    +0.000 C 
ATOM     22  C   UNL     1       3.493   2.759  18.612  0.00  0.00    +0.000 C 
ATOM     23  C   UNL     1       4.662   2.793  19.553  0.00  0.00    +0.000 C 
ENDBRANCH  19  21
ENDBRANCH  16  19
ENDBRANCH   6  15
BRANCH   1  24
ATOM     24  O   UNL     1       3.082   6.616  17.692  0.00  0.00    +0.000 OA
BRANCH  24  25
ATOM     25  C   UNL     1       4.451   6.992  17.485  0.00  0.00    +0.000 C 
BRANCH  25  27
ATOM     26  C   UNL     1       5.153   5.001  16.158  0.00  0.00    +0.000 C 
ATOM     27  C   UNL     1       4.978   6.516  16.140  0.00  0.00    +0.000 C 
ENDBRANCH  25  27
ENDBRANCH  24  25
ENDBRANCH   1  24
TORSDOF 8
ENDMDL
MODEL 4
REMARK VINA RESULT:      -6.8      1.215      1.570
REMARK  Name = 
REMARK  10 active torsions:
REMARK  status: ('A' for Active; 'I' for Inactive)
REMARK    1  A    between atoms: C_1  and  C_2
REMARK    2  A    between atoms: C_2  and  C_3
REMARK    3  A    between atoms: C_3  and  O_4
REMARK    4  A    between atoms: O_4  and  C_5
REMARK    5  A    between atoms: C_7  and  N_8
REMARK    6  A    between atoms: C_11  and  O_12
REMARK    7  A    between atoms: C_17  and  N_18
REMARK    8  A    between atoms: C_19  and  C_21
REMARK    9  A    between atoms: C_21  and  C_22
REMARK   10  A    between atoms: C_21  and  C_23
REMARK                            x       y       z     vdW  Elec       q    Type
REMARK                         _______ _______ _______ _____ _____    ______ ____
ROOT
ATOM      1  C   UNL     1       2.144   6.892  19.734  0.00  0.00    +0.000 A 
ATOM      2  C   UNL     1       1.654   8.137  20.173  0.00  0.00    +0.000 A 
ATOM      3  C   UNL     1       1.599   9.279  19.364  0.00  0.00    +0.000 A 
ATOM      4  C   UNL     1       2.088   9.135  18.063  0.00  0.00    +0.000 A 
ATOM      5  C   UNL     1       2.610   7.916  17.602  0.00  0.00    +0.000 A 
ATOM      6  C   UNL     1       2.653   6.792  18.433  0.00  0.00    +0.000 A 
ENDROOT
BRANCH   3   7
ATOM      7  N   UNL     1       1.056  10.471  19.819  0.00  0.00    +0.000 N 
ATOM      8  C   UNL     1       0.352  11.385  18.906  0.00  0.00    +0.000 C 
ATOM      9  C   UNL     1      -1.149  11.319  19.138  0.00  0.00    +0.000 C 
ATOM     10  C   UNL     1      -1.492  11.568  20.604  0.00  0.00    +0.000 C 
ATOM     11  C   UNL     1      -0.699  10.654  21.538  0.00  0.00    +0.000 C 
ATOM     12  C   UNL     1       0.808  10.670  21.248  0.00  0.00    +0.000 C 
BRANCH  10  13
ATOM     13  O   UNL     1      -1.284  12.941  20.938  0.00  0.00    +0.000 OA
ATOM     14  H   UNL     1      -0.363  13.064  21.223  0.00  0.00    +0.000 HD
ENDBRANCH  10  13
ENDBRANCH   3   7
BRANCH   6  15
ATOM     15  N   UNL     1       3.167   5.560  17.966  0.00  0.00    +0.000 N 
ATOM     16  C   UNL     1       4.493   5.175  18.099  0.00  0.00    +0.000 C 
ATOM     17  O   UNL     1       5.333   5.802  18.747  0.00  0.00    +0.000 OA
ATOM     18  H   UNL     1       2.476   4.839  17.801  0.00  0.00    +0.000 HD
BRANCH  16  19
ATOM     19  C   UNL     1       4.865   3.895  17.334  0.00  0.00    +0.000 C 
ATOM     20  C   UNL     1       3.754   2.852  17.529  0.00  0.00    +0.000 C 
BRANCH  19  21
ATOM     21  C   UNL     1       5.067   4.105  15.849  0.00  0.00    +0.000 C 
ATOM     22  C   UNL     1       5.581   5.384  15.235  0.00  0.00    +0.000 C 
ATOM     23  C   UNL     1       6.481   4.187  15.320  0.00  0.00    +0.000 C 
ENDBRANCH  19  21
ENDBRANCH  16  19
ENDBRANCH   6  15
BRANCH   1  24
ATOM     24  O   UNL     1       2.188   5.768  20.543  0.00  0.00    +0.000 OA
BRANCH  24  25
ATOM     25  C   UNL     1       0.982   4.991  20.532  0.00  0.00    +0.000 C 
BRANCH  25  27
ATOM     26  C   UNL     1       2.389   3.125  21.401  0.00  0.00    +0.000 C 
ATOM     27  C   UNL     1       1.263   3.499  20.444  0.00  0.00    +0.000 C 
ENDBRANCH  25  27
ENDBRANCH  24  25
ENDBRANCH   1  24
TORSDOF 8
ENDMDL
MODEL 5
REMARK VINA RESULT:      -6.6      2.165      7.952
REMARK  Name = 
REMARK  10 active torsions:
REMARK  status: ('A' for Active; 'I' for Inactive)
REMARK    1  A    between atoms: C_1  and  C_2
REMARK    2  A    between atoms: C_2  and  C_3
REMARK    3  A    between atoms: C_3  and  O_4
REMARK    4  A    between atoms: O_4  and  C_5
REMARK    5  A    between atoms: C_7  and  N_8
REMARK    6  A    between atoms: C_11  and  O_12
REMARK    7  A    between atoms: C_17  and  N_18
REMARK    8  A    between atoms: C_19  and  C_21
REMARK    9  A    between atoms: C_21  and  C_22
REMARK   10  A    between atoms: C_21  and  C_23
REMARK                            x       y       z     vdW  Elec       q    Type
REMARK                         _______ _______ _______ _____ _____    ______ ____
ROOT
ATOM      1  C   UNL     1       1.201   8.780  19.948  0.00  0.00    +0.000 A 
ATOM      2  C   UNL     1       1.937   7.601  20.173  0.00  0.00    +0.000 A 
ATOM      3  C   UNL     1       2.757   7.002  19.208  0.00  0.00    +0.000 A 
ATOM      4  C   UNL     1       2.801   7.631  17.962  0.00  0.00    +0.000 A 
ATOM      5  C   UNL     1       2.057   8.791  17.695  0.00  0.00    +0.000 A 
ATOM      6  C   UNL     1       1.245   9.366  18.677  0.00  0.00    +0.000 A 
ENDROOT
BRANCH   3   7
ATOM      7  N   UNL     1       3.510   5.872  19.491  0.00  0.00    +0.000 N 
ATOM      8  C   UNL     1       2.921   4.721  20.194  0.00  0.00    +0.000 C 
ATOM      9  C   UNL     1       2.680   3.572  19.227  0.00  0.00    +0.000 C 
ATOM     10  C   UNL     1       3.955   3.214  18.468  0.00  0.00    +0.000 C 
ATOM     11  C   UNL     1       4.586   4.437  17.803  0.00  0.00    +0.000 C 
ATOM     12  C   UNL     1       4.757   5.617  18.769  0.00  0.00    +0.000 C 
BRANCH  10  13
ATOM     13  O   UNL     1       4.888   2.569  19.337  0.00  0.00    +0.000 OA
ATOM     14  H   UNL     1       5.746   3.020  19.274  0.00  0.00    +0.000 HD
ENDBRANCH  10  13
ENDBRANCH   3   7
BRANCH   6  15
ATOM     15  N   UNL     1       0.504  10.543  18.414  0.00  0.00    +0.000 N 
ATOM     16  C   UNL     1       1.005  11.825  18.581  0.00  0.00    +0.000 C 
ATOM     17  O   UNL     1       2.180  12.079  18.849  0.00  0.00    +0.000 OA
ATOM     18  H   UNL     1      -0.301  10.420  17.814  0.00  0.00    +0.000 HD
BRANCH  16  19
ATOM     19  C   UNL     1      -0.042  12.941  18.438  0.00  0.00    +0.000 C 
ATOM     20  C   UNL     1      -1.430  12.375  18.775  0.00  0.00    +0.000 C 
BRANCH  19  21
ATOM     21  C   UNL     1       0.213  14.138  19.328  0.00  0.00    +0.000 C 
ATOM     22  C   UNL     1       1.261  15.190  19.057  0.00  0.00    +0.000 C 
ATOM     23  C   UNL     1      -0.187  15.507  18.824  0.00  0.00    +0.000 C 
ENDBRANCH  19  21
ENDBRANCH  16  19
ENDBRANCH   6  15
BRANCH   1  24
ATOM     24  O   UNL     1       0.396   9.366  20.912  0.00  0.00    +0.000 OA
BRANCH  24  25
ATOM     25  C   UNL     1       0.875   9.199  22.254  0.00  0.00    +0.000 C 
BRANCH  25  27
ATOM     26  C   UNL     1      -0.943  10.800  22.843  0.00  0.00    +0.000 C 
ATOM     27  C   UNL     1      -0.182   9.557  23.287  0.00  0.00    +0.000 C 
ENDBRANCH  25  27
ENDBRANCH  24  25
ENDBRANCH   1  24
TORSDOF 8
ENDMDL
MODEL 6
REMARK VINA RESULT:      -6.6      1.959      7.656
REMARK  Name = 
REMARK  10 active torsions:
REMARK  status: ('A' for Active; 'I' for Inactive)
REMARK    1  A    between atoms: C_1  and  C_2
REMARK    2  A    between atoms: C_2  and  C_3
REMARK    3  A    between atoms: C_3  and  O_4
REMARK    4  A    between atoms: O_4  and  C_5
REMARK    5  A    between atoms: C_7  and  N_8
REMARK    6  A    between atoms: C_11  and  O_12
REMARK    7  A    between atoms: C_17  and  N_18
REMARK    8  A    between atoms: C_19  and  C_21
REMARK    9  A    between atoms: C_21  and  C_22
REMARK   10  A    between atoms: C_21  and  C_23
REMARK                            x       y       z     vdW  Elec       q    Type
REMARK                         _______ _______ _______ _____ _____    ______ ____
ROOT
ATOM      1  C   UNL     1       1.512   8.562  20.384  0.00  0.00    +0.000 A 
ATOM      2  C   UNL     1       1.817   7.188  20.354  0.00  0.00    +0.000 A 
ATOM      3  C   UNL     1       2.232   6.510  19.201  0.00  0.00    +0.000 A 
ATOM      4  C   UNL     1       2.314   7.274  18.035  0.00  0.00    +0.000 A 
ATOM      5  C   UNL     1       1.989   8.639  18.023  0.00  0.00    +0.000 A 
ATOM      6  C   UNL     1       1.576   9.290  19.189  0.00  0.00    +0.000 A 
ENDROOT
BRANCH   3   7
ATOM      7  N   UNL     1       2.578   5.168  19.229  0.00  0.00    +0.000 N 
ATOM      8  C   UNL     1       2.101   4.281  20.302  0.00  0.00    +0.000 C 
ATOM      9  C   UNL     1       1.007   3.360  19.786  0.00  0.00    +0.000 C 
ATOM     10  C   UNL     1       1.468   2.596  18.548  0.00  0.00    +0.000 C 
ATOM     11  C   UNL     1       2.022   3.532  17.474  0.00  0.00    +0.000 C 
ATOM     12  C   UNL     1       3.073   4.508  18.020  0.00  0.00    +0.000 C 
BRANCH  10  13
ATOM     13  O   UNL     1       2.431   1.603  18.905  0.00  0.00    +0.000 OA
ATOM     14  H   UNL     1       2.755   1.782  19.803  0.00  0.00    +0.000 HD
ENDBRANCH  10  13
ENDBRANCH   3   7
BRANCH   6  15
ATOM     15  N   UNL     1       1.260  10.669  19.182  0.00  0.00    +0.000 N 
ATOM     16  C   UNL     1       0.012  11.175  18.849  0.00  0.00    +0.000 C 
ATOM     17  O   UNL     1      -0.985  10.480  18.651  0.00  0.00    +0.000 OA
ATOM     18  H   UNL     1       1.886  11.258  19.717  0.00  0.00    +0.000 HD
BRANCH  16  19
ATOM     19  C   UNL     1      -0.038  12.704  18.706  0.00  0.00    +0.000 C 
ATOM     20  C   UNL     1      -1.202  13.251  19.548  0.00  0.00    +0.000 C 
BRANCH  19  21
ATOM     21  C   UNL     1       1.232  13.403  19.141  0.00  0.00    +0.000 C 
ATOM     22  C   UNL     1       2.394  13.699  18.225  0.00  0.00    +0.000 C 
ATOM     23  C   UNL     1       1.482  14.812  18.650  0.00  0.00    +0.000 C 
ENDBRANCH  19  21
ENDBRANCH  16  19
ENDBRANCH   6  15
BRANCH   1  24
ATOM     24  O   UNL     1       1.106   9.224  21.533  0.00  0.00    +0.000 OA
BRANCH  24  25
ATOM     25  C   UNL     1      -0.213   8.874  21.975  0.00  0.00    +0.000 C 
BRANCH  25  27
ATOM     26  C   UNL     1      -0.700  11.240  22.592  0.00  0.00    +0.000 C 
ATOM     27  C   UNL     1      -0.709   9.795  23.078  0.00  0.00    +0.000 C 
ENDBRANCH  25  27
ENDBRANCH  24  25
ENDBRANCH   1  24
TORSDOF 8
ENDMDL
MODEL 7
REMARK VINA RESULT:      -6.6      1.730      2.398
REMARK  Name = 
REMARK  10 active torsions:
REMARK  status: ('A' for Active; 'I' for Inactive)
REMARK    1  A    between atoms: C_1  and  C_2
REMARK    2  A    between atoms: C_2  and  C_3
REMARK    3  A    between atoms: C_3  and  O_4
REMARK    4  A    between atoms: O_4  and  C_5
REMARK    5  A    between atoms: C_7  and  N_8
REMARK    6  A    between atoms: C_11  and  O_12
REMARK    7  A    between atoms: C_17  and  N_18
REMARK    8  A    between atoms: C_19  and  C_21
REMARK    9  A    between atoms: C_21  and  C_22
REMARK   10  A    between atoms: C_21  and  C_23
REMARK                            x       y       z     vdW  Elec       q    Type
REMARK                         _______ _______ _______ _____ _____    ______ ____
ROOT
ATOM      1  C   UNL     1       3.155   6.463  19.295  0.00  0.00    +0.000 A 
ATOM      2  C   UNL     1       2.170   7.343  19.783  0.00  0.00    +0.000 A 
ATOM      3  C   UNL     1       1.696   8.451  19.069  0.00  0.00    +0.000 A 
ATOM      4  C   UNL     1       2.274   8.669  17.817  0.00  0.00    +0.000 A 
ATOM      5  C   UNL     1       3.279   7.829  17.312  0.00  0.00    +0.000 A 
ATOM      6  C   UNL     1       3.734   6.730  18.047  0.00  0.00    +0.000 A 
ENDROOT
BRANCH   3   7
ATOM      7  N   UNL     1       0.683   9.259  19.564  0.00  0.00    +0.000 N 
ATOM      8  C   UNL     1       0.140   9.056  20.916  0.00  0.00    +0.000 C 
ATOM      9  C   UNL     1       0.634  10.143  21.858  0.00  0.00    +0.000 C 
ATOM     10  C   UNL     1       0.334  11.532  21.301  0.00  0.00    +0.000 C 
ATOM     11  C   UNL     1       0.848  11.697  19.871  0.00  0.00    +0.000 C 
ATOM     12  C   UNL     1       0.405  10.556  18.945  0.00  0.00    +0.000 C 
BRANCH  10  13
ATOM     13  O   UNL     1      -1.066  11.807  21.375  0.00  0.00    +0.000 OA
ATOM     14  H   UNL     1      -1.281  12.128  22.267  0.00  0.00    +0.000 HD
ENDBRANCH  10  13
ENDBRANCH   3   7
BRANCH   6  15
ATOM     15  N   UNL     1       4.738   5.875  17.535  0.00  0.00    +0.000 N 
ATOM     16  C   UNL     1       5.996   6.307  17.143  0.00  0.00    +0.000 C 
ATOM     17  O   UNL     1       6.419   7.450  17.317  0.00  0.00    +0.000 OA
ATOM     18  H   UNL     1       4.615   4.892  17.744  0.00  0.00    +0.000 HD
BRANCH  16  19
ATOM     19  C   UNL     1       6.840   5.242  16.425  0.00  0.00    +0.000 C 
ATOM     20  C   UNL     1       7.683   4.483  17.462  0.00  0.00    +0.000 C 
BRANCH  19  21
ATOM     21  C   UNL     1       6.023   4.235  15.646  0.00  0.00    +0.000 C 
ATOM     22  C   UNL     1       5.157   4.580  14.458  0.00  0.00    +0.000 C 
ATOM     23  C   UNL     1       6.466   3.878  14.244  0.00  0.00    +0.000 C 
ENDBRANCH  19  21
ENDBRANCH  16  19
ENDBRANCH   6  15
BRANCH   1  24
ATOM     24  O   UNL     1       3.613   5.367  20.009  0.00  0.00    +0.000 OA
BRANCH  24  25
ATOM     25  C   UNL     1       2.698   4.263  20.035  0.00  0.00    +0.000 C 
BRANCH  25  27
ATOM     26  C   UNL     1       1.469   2.646  21.482  0.00  0.00    +0.000 C 
ATOM     27  C   UNL     1       2.148   4.010  21.430  0.00  0.00    +0.000 C 
ENDBRANCH  25  27
ENDBRANCH  24  25
ENDBRANCH   1  24
TORSDOF 8
ENDMDL
MODEL 8
REMARK VINA RESULT:      -6.5      0.834      1.263
REMARK  Name = 
REMARK  10 active torsions:
REMARK  status: ('A' for Active; 'I' for Inactive)
REMARK    1  A    between atoms: C_1  and  C_2
REMARK    2  A    between atoms: C_2  and  C_3
REMARK    3  A    between atoms: C_3  and  O_4
REMARK    4  A    between atoms: O_4  and  C_5
REMARK    5  A    between atoms: C_7  and  N_8
REMARK    6  A    between atoms: C_11  and  O_12
REMARK    7  A    between atoms: C_17  and  N_18
REMARK    8  A    between atoms: C_19  and  C_21
REMARK    9  A    between atoms: C_21  and  C_22
REMARK   10  A    between atoms: C_21  and  C_23
REMARK                            x       y       z     vdW  Elec       q    Type
REMARK                         _______ _______ _______ _____ _____    ______ ____
ROOT
ATOM      1  C   UNL     1       2.170   7.372  19.808  0.00  0.00    +0.000 A 
ATOM      2  C   UNL     1       1.315   8.440  20.143  0.00  0.00    +0.000 A 
ATOM      3  C   UNL     1       0.951   9.453  19.248  0.00  0.00    +0.000 A 
ATOM      4  C   UNL     1       1.505   9.372  17.969  0.00  0.00    +0.000 A 
ATOM      5  C   UNL     1       2.383   8.337  17.609  0.00  0.00    +0.000 A 
ATOM      6  C   UNL     1       2.731   7.340  18.525  0.00  0.00    +0.000 A 
ENDROOT
BRANCH   3   7
ATOM      7  N   UNL     1       0.060  10.455  19.603  0.00  0.00    +0.000 N 
ATOM      8  C   UNL     1      -0.580  10.469  20.928  0.00  0.00    +0.000 C 
ATOM      9  C   UNL     1       0.035  11.547  21.806  0.00  0.00    +0.000 C 
ATOM     10  C   UNL     1      -0.001  12.907  21.117  0.00  0.00    +0.000 C 
ATOM     11  C   UNL     1       0.608  12.853  19.716  0.00  0.00    +0.000 C 
ATOM     12  C   UNL     1       0.033  11.716  18.861  0.00  0.00    +0.000 C 
BRANCH  10  13
ATOM     13  O   UNL     1      -1.339  13.408  21.072  0.00  0.00    +0.000 OA
ATOM     14  H   UNL     1      -1.336  14.346  21.326  0.00  0.00    +0.000 HD
ENDBRANCH  10  13
ENDBRANCH   3   7
BRANCH   6  15
ATOM     15  N   UNL     1       3.606   6.289  18.161  0.00  0.00    +0.000 N 
ATOM     16  C   UNL     1       3.180   5.045  17.719  0.00  0.00    +0.000 C 
ATOM     17  O   UNL     1       2.006   4.765  17.472  0.00  0.00    +0.000 OA
ATOM     18  H   UNL     1       4.554   6.572  17.947  0.00  0.00    +0.000 HD
BRANCH  16  19
ATOM     19  C   UNL     1       4.297   3.999  17.585  0.00  0.00    +0.000 C 
ATOM     20  C   UNL     1       3.710   2.601  17.836  0.00  0.00    +0.000 C 
BRANCH  19  21
ATOM     21  C   UNL     1       4.975   3.995  16.233  0.00  0.00    +0.000 C 
ATOM     22  C   UNL     1       5.464   5.235  15.524  0.00  0.00    +0.000 C 
ATOM     23  C   UNL     1       6.454   4.310  16.169  0.00  0.00    +0.000 C 
ENDBRANCH  19  21
ENDBRANCH  16  19
ENDBRANCH   6  15
BRANCH   1  24
ATOM     24  O   UNL     1       2.520   6.372  20.701  0.00  0.00    +0.000 OA
BRANCH  24  25
ATOM     25  C   UNL     1       1.565   5.306  20.790  0.00  0.00    +0.000 C 
BRANCH  25  27
ATOM     26  C   UNL     1       1.194   2.855  21.068  0.00  0.00    +0.000 C 
ATOM     27  C   UNL     1       2.218   3.982  21.154  0.00  0.00    +0.000 C 
ENDBRANCH  25  27
ENDBRANCH  24  25
ENDBRANCH   1  24
TORSDOF 8
ENDMDL
MODEL 9
REMARK VINA RESULT:      -6.5      1.844      2.656
REMARK  Name = 
REMARK  10 active torsions:
REMARK  status: ('A' for Active; 'I' for Inactive)
REMARK    1  A    between atoms: C_1  and  C_2
REMARK    2  A    between atoms: C_2  and  C_3
REMARK    3  A    between atoms: C_3  and  O_4
REMARK    4  A    between atoms: O_4  and  C_5
REMARK    5  A    between atoms: C_7  and  N_8
REMARK    6  A    between atoms: C_11  and  O_12
REMARK    7  A    between atoms: C_17  and  N_18
REMARK    8  A    between atoms: C_19  and  C_21
REMARK    9  A    between atoms: C_21  and  C_22
REMARK   10  A    between atoms: C_21  and  C_23
REMARK                            x       y       z     vdW  Elec       q    Type
REMARK                         _______ _______ _______ _____ _____    ______ ____
ROOT
ATOM      1  C   UNL     1       2.027   6.440  20.107  0.00  0.00    +0.000 A 
ATOM      2  C   UNL     1       1.681   7.534  20.923  0.00  0.00    +0.000 A 
ATOM      3  C   UNL     1       1.552   8.845  20.450  0.00  0.00    +0.000 A 
ATOM      4  C   UNL     1       1.812   9.037  19.091  0.00  0.00    +0.000 A 
ATOM      5  C   UNL     1       2.188   7.974  18.255  0.00  0.00    +0.000 A 
ATOM      6  C   UNL     1       2.310   6.674  18.755  0.00  0.00    +0.000 A 
ENDROOT
BRANCH   3   7
ATOM      7  N   UNL     1       1.153   9.884  21.277  0.00  0.00    +0.000 N 
ATOM      8  C   UNL     1       0.613  11.135  20.722  0.00  0.00    +0.000 C 
ATOM      9  C   UNL     1      -0.892  11.204  20.929  0.00  0.00    +0.000 C 
ATOM     10  C   UNL     1      -1.257  11.001  22.396  0.00  0.00    +0.000 C 
ATOM     11  C   UNL     1      -0.630   9.731  22.970  0.00  0.00    +0.000 C 
ATOM     12  C   UNL     1       0.877   9.634  22.693  0.00  0.00    +0.000 C 
BRANCH  10  13
ATOM     13  O   UNL     1      -0.884  12.146  23.166  0.00  0.00    +0.000 OA
ATOM     14  H   UNL     1       0.074  12.125  23.323  0.00  0.00    +0.000 HD
ENDBRANCH  10  13
ENDBRANCH   3   7
BRANCH   6  15
ATOM     15  N   UNL     1       2.676   5.599  17.912  0.00  0.00    +0.000 N 
ATOM     16  C   UNL     1       3.979   5.148  17.756  0.00  0.00    +0.000 C 
ATOM     17  O   UNL     1       4.932   5.544  18.427  0.00  0.00    +0.000 OA
ATOM     18  H   UNL     1       1.922   4.975  17.655  0.00  0.00    +0.000 HD
BRANCH  16  19
ATOM     19  C   UNL     1       4.165   4.114  16.634  0.00  0.00    +0.000 C 
ATOM     20  C   UNL     1       5.545   4.316  15.988  0.00  0.00    +0.000 C 
BRANCH  19  21
ATOM     21  C   UNL     1       4.064   2.678  17.101  0.00  0.00    +0.000 C 
ATOM     22  C   UNL     1       3.843   2.265  18.536  0.00  0.00    +0.000 C 
ATOM     23  C   UNL     1       2.715   2.162  17.552  0.00  0.00    +0.000 C 
ENDBRANCH  19  21
ENDBRANCH  16  19
ENDBRANCH   6  15
BRANCH   1  24
ATOM     24  O   UNL     1       2.147   5.144  20.586  0.00  0.00    +0.000 OA
BRANCH  24  25
ATOM     25  C   UNL     1       0.936   4.378  20.509  0.00  0.00    +0.000 C 
BRANCH  25  27
ATOM     26  C   UNL     1       2.331   2.782  21.823  0.00  0.00    +0.000 C 
ATOM     27  C   UNL     1       1.164   2.914  20.851  0.00  0.00    +0.000 C 
ENDBRANCH  25  27
ENDBRANCH  24  25
ENDBRANCH   1  24
TORSDOF 8
ENDMDL
