MODEL 1
REMARK VINA RESULT:      -8.7      0.000      0.000
REMARK  Name = 
REMARK  4 active torsions:
REMARK  status: ('A' for Active; 'I' for Inactive)
REMARK    1  A    between atoms: C_4  and  C_5
REMARK    2  A    between atoms: C_5  and  C_6
REMARK    3  A    between atoms: C_6  and  N_7
REMARK    4  A    between atoms: C_10  and  C_11
REMARK                            x       y       z     vdW  Elec       q    Type
REMARK                         _______ _______ _______ _____ _____    ______ ____
ROOT
ATOM      1  N   UNL     1       7.883   7.457  16.899  0.00  0.00    +0.000 N 
ATOM      2  C   UNL     1       6.980   6.449  16.961  0.00  0.00    +0.000 A 
ATOM      3  N   UNL     1       5.950   6.389  17.772  0.00  0.00    +0.000 NA
ATOM      4  C   UNL     1       5.252   5.205  17.584  0.00  0.00    +0.000 A 
ATOM      5  C   UNL     1       5.781   4.370  16.620  0.00  0.00    +0.000 A 
ATOM      6  S   UNL     1       7.158   5.093  15.912  0.00  0.00    +0.000 S 
ATOM      7  H   UNL     1       8.711   7.249  16.352  0.00  0.00    +0.000 HD
ENDROOT
BRANCH   4   8
ATOM      8  C   UNL     1       4.016   4.914  18.304  0.00  0.00    +0.000 A 
ATOM      9  C   UNL     1       3.651   5.640  19.449  0.00  0.00    +0.000 A 
ATOM     10  C   UNL     1       2.515   5.310  20.201  0.00  0.00    +0.000 A 
ATOM     11  C   UNL     1       1.761   4.221  19.763  0.00  0.00    +0.000 A 
ATOM     12  N   UNL     1       0.637   3.625  20.272  0.00  0.00    +0.000 N 
ATOM     13  N   UNL     1       0.198   2.574  19.558  0.00  0.00    +0.000 NA
ATOM     14  C   UNL     1       1.074   2.500  18.551  0.00  0.00    +0.000 A 
ATOM     15  C   UNL     1       2.074   3.494  18.621  0.00  0.00    +0.000 A 
ATOM     16  C   UNL     1       3.205   3.851  17.865  0.00  0.00    +0.000 A 
ATOM     17  H   UNL     1       0.127   3.882  21.110  0.00  0.00    +0.000 HD
ENDBRANCH   4   8
BRANCH   1  18
ATOM     18  C   UNL     1       8.140   8.210  18.123  0.00  0.00    +0.000 C 
BRANCH  18  19
ATOM     19  C   UNL     1       8.092   9.715  17.835  0.00  0.00    +0.000 C 
BRANCH  19  23
ATOM     20  C   UNL     1      11.212  11.896  19.867  0.00  0.00    +0.000 A 
ATOM     21  C   UNL     1      10.195  11.288  20.599  0.00  0.00    +0.000 A 
ATOM     22  C   UNL     1       9.188  10.580  19.943  0.00  0.00    +0.000 A 
ATOM     23  C   UNL     1       9.189  10.471  18.544  0.00  0.00    +0.000 A 
ATOM     24  C   UNL     1      10.213  11.091  17.817  0.00  0.00    +0.000 A 
ATOM     25  C   UNL     1      11.221  11.799  18.476  0.00  0.00    +0.000 A 
ENDBRANCH  19  23
ENDBRANCH  18  19
ENDBRANCH   1  18
TORSDOF 4
ENDMDL
MODEL 2
REMARK VINA RESULT:      -8.7      0.064      1.009
REMARK  Name = 
REMARK  4 active torsions:
REMARK  status: ('A' for Active; 'I' for Inactive)
REMARK    1  A    between atoms: C_4  and  C_5
REMARK    2  A    between atoms: C_5  and  C_6
REMARK    3  A    between atoms: C_6  and  N_7
REMARK    4  A    between atoms: C_10  and  C_11
REMARK                            x       y       z     vdW  Elec       q    Type
REMARK                         _______ _______ _______ _____ _____    ______ ____
ROOT
ATOM      1  N   UNL     1       7.863   7.416  16.859  0.00  0.00    +0.000 N 
ATOM      2  C   UNL     1       6.957   6.410  16.923  0.00  0.00    +0.000 A 
ATOM      3  N   UNL     1       5.936   6.347  17.746  0.00  0.00    +0.000 NA
ATOM      4  C   UNL     1       5.233   5.167  17.557  0.00  0.00    +0.000 A 
ATOM      5  C   UNL     1       5.746   4.339  16.579  0.00  0.00    +0.000 A 
ATOM      6  S   UNL     1       7.118   5.062  15.861  0.00  0.00    +0.000 S 
ATOM      7  H   UNL     1       8.684   7.209  16.301  0.00  0.00    +0.000 HD
ENDROOT
BRANCH   4   8
ATOM      8  C   UNL     1       4.004   4.874  18.289  0.00  0.00    +0.000 A 
ATOM      9  C   UNL     1       3.656   5.591  19.445  0.00  0.00    +0.000 A 
ATOM     10  C   UNL     1       2.527   5.259  20.208  0.00  0.00    +0.000 A 
ATOM     11  C   UNL     1       1.764   4.176  19.769  0.00  0.00    +0.000 A 
ATOM     12  N   UNL     1       0.644   3.580  20.286  0.00  0.00    +0.000 N 
ATOM     13  N   UNL     1       0.193   2.537  19.568  0.00  0.00    +0.000 NA
ATOM     14  C   UNL     1       1.055   2.469  18.550  0.00  0.00    +0.000 A 
ATOM     15  C   UNL     1       2.060   3.459  18.616  0.00  0.00    +0.000 A 
ATOM     16  C   UNL     1       3.184   3.819  17.850  0.00  0.00    +0.000 A 
ATOM     17  H   UNL     1       0.146   3.831  21.133  0.00  0.00    +0.000 HD
ENDBRANCH   4   8
BRANCH   1  18
ATOM     18  C   UNL     1       8.138   8.157  18.086  0.00  0.00    +0.000 C 
BRANCH  18  19
ATOM     19  C   UNL     1       8.053   9.664  17.820  0.00  0.00    +0.000 C 
BRANCH  19  23
ATOM     20  C   UNL     1      11.224  11.841  19.777  0.00  0.00    +0.000 A 
ATOM     21  C   UNL     1      11.205  11.733  18.388  0.00  0.00    +0.000 A 
ATOM     22  C   UNL     1      10.178  11.031  17.755  0.00  0.00    +0.000 A 
ATOM     23  C   UNL     1       9.156  10.432  18.506  0.00  0.00    +0.000 A 
ATOM     24  C   UNL     1       9.188  10.542  19.902  0.00  0.00    +0.000 A 
ATOM     25  C   UNL     1      10.216  11.245  20.534  0.00  0.00    +0.000 A 
ENDBRANCH  19  23
ENDBRANCH  18  19
ENDBRANCH   1  18
TORSDOF 4
ENDMDL
MODEL 3
REMARK VINA RESULT:      -8.4      4.333      7.511
REMARK  Name = 
REMARK  4 active torsions:
REMARK  status: ('A' for Active; 'I' for Inactive)
REMARK    1  A    between atoms: C_4  and  C_5
REMARK    2  A    between atoms: C_5  and  C_6
REMARK    3  A    between atoms: C_6  and  N_7
REMARK    4  A    between atoms: C_10  and  C_11
REMARK                            x       y       z     vdW  Elec       q    Type
REMARK                         _______ _______ _______ _____ _____    ______ ____
ROOT
ATOM      1  N   UNL     1       4.874   3.363  17.084  0.00  0.00    +0.000 N 
ATOM      2  C   UNL     1       4.688   4.698  17.217  0.00  0.00    +0.000 A 
ATOM      3  N   UNL     1       3.643   5.279  17.761  0.00  0.00    +0.000 NA
ATOM      4  C   UNL     1       3.771   6.658  17.706  0.00  0.00    +0.000 A 
ATOM      5  C   UNL     1       4.930   7.108  17.104  0.00  0.00    +0.000 A 
ATOM      6  S   UNL     1       5.893   5.780  16.625  0.00  0.00    +0.000 S 
ATOM      7  H   UNL     1       5.642   3.103  16.475  0.00  0.00    +0.000 HD
ENDROOT
BRANCH   4   8
ATOM      8  C   UNL     1       2.785   7.550  18.309  0.00  0.00    +0.000 A 
ATOM      9  C   UNL     1       2.301   8.673  17.620  0.00  0.00    +0.000 A 
ATOM     10  C   UNL     1       1.424   9.587  18.222  0.00  0.00    +0.000 A 
ATOM     11  C   UNL     1       1.055   9.333  19.544  0.00  0.00    +0.000 A 
ATOM     12  N   UNL     1       0.259  10.025  20.419  0.00  0.00    +0.000 N 
ATOM     13  N   UNL     1       0.146   9.454  21.631  0.00  0.00    +0.000 NA
ATOM     14  C   UNL     1       0.894   8.352  21.523  0.00  0.00    +0.000 A 
ATOM     15  C   UNL     1       1.492   8.218  20.250  0.00  0.00    +0.000 A 
ATOM     16  C   UNL     1       2.354   7.300  19.625  0.00  0.00    +0.000 A 
ATOM     17  H   UNL     1      -0.227  10.899  20.253  0.00  0.00    +0.000 HD
ENDBRANCH   4   8
BRANCH   1  18
ATOM     18  C   UNL     1       3.686   2.525  16.951  0.00  0.00    +0.000 C 
BRANCH  18  19
ATOM     19  C   UNL     1       3.552   1.605  18.170  0.00  0.00    +0.000 C 
BRANCH  19  23
ATOM     20  C   UNL     1       1.247   3.385  21.354  0.00  0.00    +0.000 A 
ATOM     21  C   UNL     1       2.558   2.972  21.587  0.00  0.00    +0.000 A 
ATOM     22  C   UNL     1       3.304   2.399  20.557  0.00  0.00    +0.000 A 
ATOM     23  C   UNL     1       2.747   2.236  19.280  0.00  0.00    +0.000 A 
ATOM     24  C   UNL     1       1.427   2.648  19.058  0.00  0.00    +0.000 A 
ATOM     25  C   UNL     1       0.681   3.222  20.090  0.00  0.00    +0.000 A 
ENDBRANCH  19  23
ENDBRANCH  18  19
ENDBRANCH   1  18
TORSDOF 4
ENDMDL
MODEL 4
REMARK VINA RESULT:      -8.3      4.415      7.515
REMARK  Name = 
REMARK  4 active torsions:
REMARK  status: ('A' for Active; 'I' for Inactive)
REMARK    1  A    between atoms: C_4  and  C_5
REMARK    2  A    between atoms: C_5  and  C_6
REMARK    3  A    between atoms: C_6  and  N_7
REMARK    4  A    between atoms: C_10  and  C_11
REMARK                            x       y       z     vdW  Elec       q    Type
REMARK                         _______ _______ _______ _____ _____    ______ ____
ROOT
ATOM      1  N   UNL     1       4.856   3.274  17.013  0.00  0.00    +0.000 N 
ATOM      2  C   UNL     1       4.661   4.611  17.118  0.00  0.00    +0.000 A 
ATOM      3  N   UNL     1       3.649   5.195  17.717  0.00  0.00    +0.000 NA
ATOM      4  C   UNL     1       3.753   6.574  17.610  0.00  0.00    +0.000 A 
ATOM      5  C   UNL     1       4.859   7.018  16.913  0.00  0.00    +0.000 A 
ATOM      6  S   UNL     1       5.805   5.687  16.408  0.00  0.00    +0.000 S 
ATOM      7  H   UNL     1       5.582   3.004  16.359  0.00  0.00    +0.000 HD
ENDROOT
BRANCH   4   8
ATOM      8  C   UNL     1       2.800   7.472  18.255  0.00  0.00    +0.000 A 
ATOM      9  C   UNL     1       2.306   8.608  17.593  0.00  0.00    +0.000 A 
ATOM     10  C   UNL     1       1.462   9.527  18.233  0.00  0.00    +0.000 A 
ATOM     11  C   UNL     1       1.136   9.265  19.564  0.00  0.00    +0.000 A 
ATOM     12  N   UNL     1       0.379   9.959  20.472  0.00  0.00    +0.000 N 
ATOM     13  N   UNL     1       0.300   9.378  21.682  0.00  0.00    +0.000 NA
ATOM     14  C   UNL     1       1.030   8.269  21.539  0.00  0.00    +0.000 A 
ATOM     15  C   UNL     1       1.582   8.139  20.245  0.00  0.00    +0.000 A 
ATOM     16  C   UNL     1       2.410   7.216  19.582  0.00  0.00    +0.000 A 
ATOM     17  H   UNL     1      -0.101  10.841  20.330  0.00  0.00    +0.000 HD
ENDBRANCH   4   8
BRANCH   1  18
ATOM     18  C   UNL     1       3.674   2.418  16.992  0.00  0.00    +0.000 C 
BRANCH  18  19
ATOM     19  C   UNL     1       3.615   1.571  18.268  0.00  0.00    +0.000 C 
BRANCH  19  23
ATOM     20  C   UNL     1       1.211   3.424  21.336  0.00  0.00    +0.000 A 
ATOM     21  C   UNL     1       0.706   3.279  20.045  0.00  0.00    +0.000 A 
ATOM     22  C   UNL     1       1.482   2.678  19.054  0.00  0.00    +0.000 A 
ATOM     23  C   UNL     1       2.772   2.211  19.345  0.00  0.00    +0.000 A 
ATOM     24  C   UNL     1       3.273   2.367  20.644  0.00  0.00    +0.000 A 
ATOM     25  C   UNL     1       2.495   2.969  21.635  0.00  0.00    +0.000 A 
ENDBRANCH  19  23
ENDBRANCH  18  19
ENDBRANCH   1  18
TORSDOF 4
ENDMDL
MODEL 5
REMARK VINA RESULT:      -8.3      3.461      5.469
REMARK  Name = 
REMARK  4 active torsions:
REMARK  status: ('A' for Active; 'I' for Inactive)
REMARK    1  A    between atoms: C_4  and  C_5
REMARK    2  A    between atoms: C_5  and  C_6
REMARK    3  A    between atoms: C_6  and  N_7
REMARK    4  A    between atoms: C_10  and  C_11
REMARK                            x       y       z     vdW  Elec       q    Type
REMARK                         _______ _______ _______ _____ _____    ______ ____
ROOT
ATOM      1  N   UNL     1       4.543   3.359  16.762  0.00  0.00    +0.000 N 
ATOM      2  C   UNL     1       4.007   4.078  17.777  0.00  0.00    +0.000 A 
ATOM      3  N   UNL     1       3.485   5.279  17.677  0.00  0.00    +0.000 NA
ATOM      4  C   UNL     1       3.056   5.726  18.918  0.00  0.00    +0.000 A 
ATOM      5  C   UNL     1       3.271   4.843  19.957  0.00  0.00    +0.000 A 
ATOM      6  S   UNL     1       3.996   3.412  19.367  0.00  0.00    +0.000 S 
ATOM      7  H   UNL     1       5.066   2.541  17.054  0.00  0.00    +0.000 HD
ENDROOT
BRANCH   4   8
ATOM      8  C   UNL     1       2.366   7.002  19.082  0.00  0.00    +0.000 A 
ATOM      9  C   UNL     1       2.271   7.921  18.025  0.00  0.00    +0.000 A 
ATOM     10  C   UNL     1       1.691   9.186  18.197  0.00  0.00    +0.000 A 
ATOM     11  C   UNL     1       1.214   9.495  19.471  0.00  0.00    +0.000 A 
ATOM     12  N   UNL     1       0.633  10.628  19.978  0.00  0.00    +0.000 N 
ATOM     13  N   UNL     1       0.307  10.546  21.280  0.00  0.00    +0.000 NA
ATOM     14  C   UNL     1       0.690   9.310  21.614  0.00  0.00    +0.000 A 
ATOM     15  C   UNL     1       1.265   8.603  20.535  0.00  0.00    +0.000 A 
ATOM     16  C   UNL     1       1.830   7.330  20.341  0.00  0.00    +0.000 A 
ATOM     17  H   UNL     1       0.442  11.496  19.490  0.00  0.00    +0.000 HD
ENDBRANCH   4   8
BRANCH   1  18
ATOM     18  C   UNL     1       5.144   4.097  15.655  0.00  0.00    +0.000 C 
BRANCH  18  19
ATOM     19  C   UNL     1       6.670   4.114  15.802  0.00  0.00    +0.000 C 
BRANCH  19  23
ATOM     20  C   UNL     1       8.028   6.979  18.729  0.00  0.00    +0.000 A 
ATOM     21  C   UNL     1       7.547   7.415  17.496  0.00  0.00    +0.000 A 
ATOM     22  C   UNL     1       7.105   6.489  16.551  0.00  0.00    +0.000 A 
ATOM     23  C   UNL     1       7.137   5.115  16.830  0.00  0.00    +0.000 A 
ATOM     24  C   UNL     1       7.628   4.687  18.070  0.00  0.00    +0.000 A 
ATOM     25  C   UNL     1       8.070   5.615  19.016  0.00  0.00    +0.000 A 
ENDBRANCH  19  23
ENDBRANCH  18  19
ENDBRANCH   1  18
TORSDOF 4
ENDMDL
MODEL 6
REMARK VINA RESULT:      -8.3      1.195      1.607
REMARK  Name = 
REMARK  4 active torsions:
REMARK  status: ('A' for Active; 'I' for Inactive)
REMARK    1  A    between atoms: C_4  and  C_5
REMARK    2  A    between atoms: C_5  and  C_6
REMARK    3  A    between atoms: C_6  and  N_7
REMARK    4  A    between atoms: C_10  and  C_11
REMARK                            x       y       z     vdW  Elec       q    Type
REMARK                         _______ _______ _______ _____ _____    ______ ____
ROOT
ATOM      1  N   UNL     1       7.043   7.376  16.634  0.00  0.00    +0.000 N 
ATOM      2  C   UNL     1       6.388   6.201  16.796  0.00  0.00    +0.000 A 
ATOM      3  N   UNL     1       5.362   5.996  17.589  0.00  0.00    +0.000 NA
ATOM      4  C   UNL     1       4.958   4.671  17.529  0.00  0.00    +0.000 A 
ATOM      5  C   UNL     1       5.705   3.878  16.681  0.00  0.00    +0.000 A 
ATOM      6  S   UNL     1       6.916   4.814  15.919  0.00  0.00    +0.000 S 
ATOM      7  H   UNL     1       7.921   7.303  16.132  0.00  0.00    +0.000 HD
ENDROOT
BRANCH   4   8
ATOM      8  C   UNL     1       3.788   4.186  18.254  0.00  0.00    +0.000 A 
ATOM      9  C   UNL     1       2.497   4.301  17.715  0.00  0.00    +0.000 A 
ATOM     10  C   UNL     1       1.357   3.923  18.439  0.00  0.00    +0.000 A 
ATOM     11  C   UNL     1       1.563   3.429  19.728  0.00  0.00    +0.000 A 
ATOM     12  N   UNL     1       0.687   3.010  20.695  0.00  0.00    +0.000 N 
ATOM     13  N   UNL     1       1.277   2.600  21.832  0.00  0.00    +0.000 NA
ATOM     14  C   UNL     1       2.579   2.759  21.578  0.00  0.00    +0.000 A 
ATOM     15  C   UNL     1       2.826   3.274  20.286  0.00  0.00    +0.000 A 
ATOM     16  C   UNL     1       3.960   3.638  19.538  0.00  0.00    +0.000 A 
ATOM     17  H   UNL     1      -0.325   2.989  20.645  0.00  0.00    +0.000 HD
ENDBRANCH   4   8
BRANCH   1  18
ATOM     18  C   UNL     1       7.068   8.298  17.765  0.00  0.00    +0.000 C 
BRANCH  18  19
ATOM     19  C   UNL     1       8.504   8.469  18.272  0.00  0.00    +0.000 C 
BRANCH  19  23
ATOM     20  C   UNL     1       9.477  12.601  19.050  0.00  0.00    +0.000 A 
ATOM     21  C   UNL     1       9.809  11.618  19.980  0.00  0.00    +0.000 A 
ATOM     22  C   UNL     1       9.496  10.282  19.728  0.00  0.00    +0.000 A 
ATOM     23  C   UNL     1       8.851   9.914  18.538  0.00  0.00    +0.000 A 
ATOM     24  C   UNL     1       8.517  10.910  17.612  0.00  0.00    +0.000 A 
ATOM     25  C   UNL     1       8.831  12.247  17.866  0.00  0.00    +0.000 A 
ENDBRANCH  19  23
ENDBRANCH  18  19
ENDBRANCH   1  18
TORSDOF 4
ENDMDL
MODEL 7
REMARK VINA RESULT:      -8.2      4.029      6.817
REMARK  Name = 
REMARK  4 active torsions:
REMARK  status: ('A' for Active; 'I' for Inactive)
REMARK    1  A    between atoms: C_4  and  C_5
REMARK    2  A    between atoms: C_5  and  C_6
REMARK    3  A    between atoms: C_6  and  N_7
REMARK    4  A    between atoms: C_10  and  C_11
REMARK                            x       y       z     vdW  Elec       q    Type
REMARK                         _______ _______ _______ _____ _____    ______ ____
ROOT
ATOM      1  N   UNL     1       7.447   5.207  15.227  0.00  0.00    +0.000 N 
ATOM      2  C   UNL     1       6.799   5.177  16.416  0.00  0.00    +0.000 A 
ATOM      3  N   UNL     1       5.597   4.691  16.624  0.00  0.00    +0.000 NA
ATOM      4  C   UNL     1       5.234   4.847  17.953  0.00  0.00    +0.000 A 
ATOM      5  C   UNL     1       6.181   5.467  18.742  0.00  0.00    +0.000 A 
ATOM      6  S   UNL     1       7.567   5.834  17.812  0.00  0.00    +0.000 S 
ATOM      7  H   UNL     1       8.280   5.786  15.215  0.00  0.00    +0.000 HD
ENDROOT
BRANCH   4   8
ATOM      8  C   UNL     1       3.975   4.324  18.476  0.00  0.00    +0.000 A 
ATOM      9  C   UNL     1       2.789   4.394  17.728  0.00  0.00    +0.000 A 
ATOM     10  C   UNL     1       1.558   3.979  18.255  0.00  0.00    +0.000 A 
ATOM     11  C   UNL     1       1.561   3.496  19.563  0.00  0.00    +0.000 A 
ATOM     12  N   UNL     1       0.551   3.049  20.374  0.00  0.00    +0.000 N 
ATOM     13  N   UNL     1       0.955   2.662  21.597  0.00  0.00    +0.000 NA
ATOM     14  C   UNL     1       2.275   2.865  21.563  0.00  0.00    +0.000 A 
ATOM     15  C   UNL     1       2.718   3.385  20.327  0.00  0.00    +0.000 A 
ATOM     16  C   UNL     1       3.948   3.786  19.776  0.00  0.00    +0.000 A 
ATOM     17  H   UNL     1      -0.438   2.993  20.155  0.00  0.00    +0.000 HD
ENDBRANCH   4   8
BRANCH   1  18
ATOM     18  C   UNL     1       6.636   5.291  14.016  0.00  0.00    +0.000 C 
BRANCH  18  19
ATOM     19  C   UNL     1       7.444   4.808  12.807  0.00  0.00    +0.000 C 
BRANCH  19  23
ATOM     20  C   UNL     1       5.671   1.342  10.945  0.00  0.00    +0.000 A 
ATOM     21  C   UNL     1       4.860   2.314  11.527  0.00  0.00    +0.000 A 
ATOM     22  C   UNL     1       5.433   3.435  12.127  0.00  0.00    +0.000 A 
ATOM     23  C   UNL     1       6.826   3.599  12.148  0.00  0.00    +0.000 A 
ATOM     24  C   UNL     1       7.633   2.614  11.565  0.00  0.00    +0.000 A 
ATOM     25  C   UNL     1       7.058   1.491  10.964  0.00  0.00    +0.000 A 
ENDBRANCH  19  23
ENDBRANCH  18  19
ENDBRANCH   1  18
TORSDOF 4
ENDMDL
MODEL 8
REMARK VINA RESULT:      -8.2      3.973      6.884
REMARK  Name = 
REMARK  4 active torsions:
REMARK  status: ('A' for Active; 'I' for Inactive)
REMARK    1  A    between atoms: C_4  and  C_5
REMARK    2  A    between atoms: C_5  and  C_6
REMARK    3  A    between atoms: C_6  and  N_7
REMARK    4  A    between atoms: C_10  and  C_11
REMARK                            x       y       z     vdW  Elec       q    Type
REMARK                         _______ _______ _______ _____ _____    ______ ____
ROOT
ATOM      1  N   UNL     1       7.361   5.215  15.288  0.00  0.00    +0.000 N 
ATOM      2  C   UNL     1       6.727   5.236  16.485  0.00  0.00    +0.000 A 
ATOM      3  N   UNL     1       5.550   4.711  16.740  0.00  0.00    +0.000 NA
ATOM      4  C   UNL     1       5.193   4.939  18.060  0.00  0.00    +0.000 A 
ATOM      5  C   UNL     1       6.120   5.653  18.795  0.00  0.00    +0.000 A 
ATOM      6  S   UNL     1       7.478   6.019  17.824  0.00  0.00    +0.000 S 
ATOM      7  H   UNL     1       8.166   5.829  15.227  0.00  0.00    +0.000 HD
ENDROOT
BRANCH   4   8
ATOM      8  C   UNL     1       3.965   4.397  18.633  0.00  0.00    +0.000 A 
ATOM      9  C   UNL     1       2.729   4.552  17.987  0.00  0.00    +0.000 A 
ATOM     10  C   UNL     1       1.530   4.116  18.571  0.00  0.00    +0.000 A 
ATOM     11  C   UNL     1       1.620   3.522  19.830  0.00  0.00    +0.000 A 
ATOM     12  N   UNL     1       0.663   3.026  20.676  0.00  0.00    +0.000 N 
ATOM     13  N   UNL     1       1.148   2.529  21.827  0.00  0.00    +0.000 NA
ATOM     14  C   UNL     1       2.467   2.709  21.708  0.00  0.00    +0.000 A 
ATOM     15  C   UNL     1       2.828   3.326  20.490  0.00  0.00    +0.000 A 
ATOM     16  C   UNL     1       4.022   3.749  19.881  0.00  0.00    +0.000 A 
ATOM     17  H   UNL     1      -0.340   3.008  20.530  0.00  0.00    +0.000 HD
ENDBRANCH   4   8
BRANCH   1  18
ATOM     18  C   UNL     1       6.535   5.182  14.085  0.00  0.00    +0.000 C 
BRANCH  18  19
ATOM     19  C   UNL     1       7.373   4.730  12.884  0.00  0.00    +0.000 C 
BRANCH  19  23
ATOM     20  C   UNL     1       5.709   1.279  10.900  0.00  0.00    +0.000 A 
ATOM     21  C   UNL     1       7.091   1.431  10.995  0.00  0.00    +0.000 A 
ATOM     22  C   UNL     1       7.629   2.546  11.638  0.00  0.00    +0.000 A 
ATOM     23  C   UNL     1       6.789   3.519  12.198  0.00  0.00    +0.000 A 
ATOM     24  C   UNL     1       5.401   3.360  12.092  0.00  0.00    +0.000 A 
ATOM     25  C   UNL     1       4.864   2.243  11.447  0.00  0.00    +0.000 A 
ENDBRANCH  19  23
ENDBRANCH  18  19
ENDBRANCH   1  18
TORSDOF 4
ENDMDL
MODEL 9
REMARK VINA RESULT:      -8.1      1.115      1.749
REMARK  Name = 
REMARK  4 active torsions:
REMARK  status: ('A' for Active; 'I' for Inactive)
REMARK    1  A    between atoms: C_4  and  C_5
REMARK    2  A    between atoms: C_5  and  C_6
REMARK    3  A    between atoms: C_6  and  N_7
REMARK    4  A    between atoms: C_10  and  C_11
REMARK                            x       y       z     vdW  Elec       q    Type
REMARK                         _______ _______ _______ _____ _____    ______ ____
ROOT
ATOM      1  N   UNL     1       7.251   7.562  16.769  0.00  0.00    +0.000 N 
ATOM      2  C   UNL     1       6.563   6.398  16.847  0.00  0.00    +0.000 A 
ATOM      3  N   UNL     1       5.522   6.171  17.614  0.00  0.00    +0.000 NA
ATOM      4  C   UNL     1       5.082   4.864  17.463  0.00  0.00    +0.000 A 
ATOM      5  C   UNL     1       5.816   4.107  16.571  0.00  0.00    +0.000 A 
ATOM      6  S   UNL     1       7.061   5.057  15.885  0.00  0.00    +0.000 S 
ATOM      7  H   UNL     1       8.133   7.497  16.272  0.00  0.00    +0.000 HD
ENDROOT
BRANCH   4   8
ATOM      8  C   UNL     1       3.891   4.366  18.143  0.00  0.00    +0.000 A 
ATOM      9  C   UNL     1       2.620   4.468  17.556  0.00  0.00    +0.000 A 
ATOM     10  C   UNL     1       1.458   4.078  18.236  0.00  0.00    +0.000 A 
ATOM     11  C   UNL     1       1.620   3.584  19.531  0.00  0.00    +0.000 A 
ATOM     12  N   UNL     1       0.713   3.154  20.465  0.00  0.00    +0.000 N 
ATOM     13  N   UNL     1       1.263   2.749  21.623  0.00  0.00    +0.000 NA
ATOM     14  C   UNL     1       2.572   2.922  21.418  0.00  0.00    +0.000 A 
ATOM     15  C   UNL     1       2.863   3.442  20.137  0.00  0.00    +0.000 A 
ATOM     16  C   UNL     1       4.020   3.819  19.433  0.00  0.00    +0.000 A 
ATOM     17  H   UNL     1      -0.296   3.123  20.376  0.00  0.00    +0.000 HD
ENDBRANCH   4   8
BRANCH   1  18
ATOM     18  C   UNL     1       7.289   8.406  17.958  0.00  0.00    +0.000 C 
BRANCH  18  19
ATOM     19  C   UNL     1       8.741   8.682  18.362  0.00  0.00    +0.000 C 
BRANCH  19  23
ATOM     20  C   UNL     1       9.388  12.781  19.545  0.00  0.00    +0.000 A 
ATOM     21  C   UNL     1       9.032  12.481  18.232  0.00  0.00    +0.000 A 
ATOM     22  C   UNL     1       8.820  11.156  17.850  0.00  0.00    +0.000 A 
ATOM     23  C   UNL     1       8.960  10.116  18.780  0.00  0.00    +0.000 A 
ATOM     24  C   UNL     1       9.324  10.428  20.096  0.00  0.00    +0.000 A 
ATOM     25  C   UNL     1       9.535  11.755  20.477  0.00  0.00    +0.000 A 
ENDBRANCH  19  23
ENDBRANCH  18  19
ENDBRANCH   1  18
TORSDOF 4
ENDMDL
