MODEL 1
REMARK VINA RESULT:      -8.7      0.000      0.000
REMARK  Name = 
REMARK  1 active torsions:
REMARK  status: ('A' for Active; 'I' for Inactive)
REMARK    1  A    between atoms: C_8  and  C_9
REMARK                            x       y       z     vdW  Elec       q    Type
REMARK                         _______ _______ _______ _____ _____    ______ ____
ROOT
ATOM      1  C   UNL     1       1.870   2.769  18.545  0.00  0.00    +0.000 A 
ATOM      2  C   UNL     1       2.460   3.041  19.783  0.00  0.00    +0.000 A 
ATOM      3  C   UNL     1       3.737   3.595  19.844  0.00  0.00    +0.000 A 
ATOM      4  C   UNL     1       4.407   3.866  18.651  0.00  0.00    +0.000 A 
ATOM      5  C   UNL     1       3.833   3.595  17.398  0.00  0.00    +0.000 A 
ATOM      6  C   UNL     1       2.552   3.043  17.354  0.00  0.00    +0.000 A 
ATOM      7  C   UNL     1       4.596   3.886  16.170  0.00  0.00    +0.000 A 
ATOM      8  C   UNL     1       5.838   4.423  16.210  0.00  0.00    +0.000 A 
ATOM      9  C   UNL     1       6.402   4.720  17.486  0.00  0.00    +0.000 A 
ATOM     10  N   UNL     1       7.555   5.249  17.847  0.00  0.00    +0.000 NA
ATOM     11  N   UNL     1       7.546   5.275  19.221  0.00  0.00    +0.000 NA
ATOM     12  N   UNL     1       6.416   4.774  19.705  0.00  0.00    +0.000 NA
ATOM     13  N   UNL     1       5.688   4.428  18.628  0.00  0.00    +0.000 N 
ENDROOT
BRANCH   8  14
ATOM     14  C   UNL     1       6.510   4.640  14.976  0.00  0.00    +0.000 A 
ATOM     15  N   UNL     1       6.368   4.109  13.776  0.00  0.00    +0.000 NA
ATOM     16  N   UNL     1       7.315   4.702  12.975  0.00  0.00    +0.000 NA
ATOM     17  N   UNL     1       8.033   5.583  13.657  0.00  0.00    +0.000 NA
ATOM     18  N   UNL     1       7.537   5.547  14.899  0.00  0.00    +0.000 N 
ATOM     19  H   UNL     1       7.933   6.138  15.624  0.00  0.00    +0.000 HD
ENDBRANCH   8  14
TORSDOF 1
ENDMDL
MODEL 2
REMARK VINA RESULT:      -8.0      2.124      2.568
REMARK  Name = 
REMARK  1 active torsions:
REMARK  status: ('A' for Active; 'I' for Inactive)
REMARK    1  A    between atoms: C_8  and  C_9
REMARK                            x       y       z     vdW  Elec       q    Type
REMARK                         _______ _______ _______ _____ _____    ______ ____
ROOT
ATOM      1  C   UNL     1       1.849   1.888  19.160  0.00  0.00    +0.000 A 
ATOM      2  C   UNL     1       1.160   2.965  19.727  0.00  0.00    +0.000 A 
ATOM      3  C   UNL     1       1.521   4.273  19.412  0.00  0.00    +0.000 A 
ATOM      4  C   UNL     1       2.579   4.480  18.525  0.00  0.00    +0.000 A 
ATOM      5  C   UNL     1       3.286   3.412  17.949  0.00  0.00    +0.000 A 
ATOM      6  C   UNL     1       2.909   2.108  18.274  0.00  0.00    +0.000 A 
ATOM      7  C   UNL     1       4.407   3.692  17.032  0.00  0.00    +0.000 A 
ATOM      8  C   UNL     1       4.773   4.956  16.715  0.00  0.00    +0.000 A 
ATOM      9  C   UNL     1       4.031   6.034  17.284  0.00  0.00    +0.000 A 
ATOM     10  N   UNL     1       4.129   7.343  17.159  0.00  0.00    +0.000 NA
ATOM     11  N   UNL     1       3.149   7.874  17.963  0.00  0.00    +0.000 NA
ATOM     12  N   UNL     1       2.457   6.920  18.574  0.00  0.00    +0.000 NA
ATOM     13  N   UNL     1       2.997   5.762  18.152  0.00  0.00    +0.000 N 
ENDROOT
BRANCH   8  14
ATOM     14  C   UNL     1       5.886   5.129  15.848  0.00  0.00    +0.000 A 
ATOM     15  N   UNL     1       7.065   5.700  16.011  0.00  0.00    +0.000 NA
ATOM     16  N   UNL     1       7.723   5.577  14.810  0.00  0.00    +0.000 NA
ATOM     17  N   UNL     1       6.975   4.946  13.917  0.00  0.00    +0.000 NA
ATOM     18  N   UNL     1       5.833   4.667  14.556  0.00  0.00    +0.000 N 
ATOM     19  H   UNL     1       5.083   4.184  14.073  0.00  0.00    +0.000 HD
ENDBRANCH   8  14
TORSDOF 1
ENDMDL
MODEL 3
REMARK VINA RESULT:      -7.9      2.284      2.902
REMARK  Name = 
REMARK  1 active torsions:
REMARK  status: ('A' for Active; 'I' for Inactive)
REMARK    1  A    between atoms: C_8  and  C_9
REMARK                            x       y       z     vdW  Elec       q    Type
REMARK                         _______ _______ _______ _____ _____    ______ ____
ROOT
ATOM      1  C   UNL     1       2.344   2.583  20.957  0.00  0.00    +0.000 A 
ATOM      2  C   UNL     1       1.561   3.710  21.227  0.00  0.00    +0.000 A 
ATOM      3  C   UNL     1       1.762   4.890  20.516  0.00  0.00    +0.000 A 
ATOM      4  C   UNL     1       2.756   4.920  19.536  0.00  0.00    +0.000 A 
ATOM      5  C   UNL     1       3.555   3.800  19.253  0.00  0.00    +0.000 A 
ATOM      6  C   UNL     1       3.338   2.625  19.973  0.00  0.00    +0.000 A 
ATOM      7  C   UNL     1       4.602   3.897  18.219  0.00  0.00    +0.000 A 
ATOM      8  C   UNL     1       4.813   5.035  17.519  0.00  0.00    +0.000 A 
ATOM      9  C   UNL     1       3.978   6.160  17.794  0.00  0.00    +0.000 A 
ATOM     10  N   UNL     1       3.925   7.374  17.282  0.00  0.00    +0.000 NA
ATOM     11  N   UNL     1       2.923   8.027  17.960  0.00  0.00    +0.000 NA
ATOM     12  N   UNL     1       2.366   7.239  18.871  0.00  0.00    +0.000 NA
ATOM     13  N   UNL     1       3.015   6.064  18.774  0.00  0.00    +0.000 N 
ENDROOT
BRANCH   8  14
ATOM     14  C   UNL     1       5.866   5.045  16.563  0.00  0.00    +0.000 A 
ATOM     15  N   UNL     1       7.073   4.510  16.559  0.00  0.00    +0.000 NA
ATOM     16  N   UNL     1       7.652   4.871  15.365  0.00  0.00    +0.000 NA
ATOM     17  N   UNL     1       6.828   5.613  14.640  0.00  0.00    +0.000 NA
ATOM     18  N   UNL     1       5.719   5.724  15.380  0.00  0.00    +0.000 N 
ATOM     19  H   UNL     1       4.929   6.263  15.038  0.00  0.00    +0.000 HD
ENDBRANCH   8  14
TORSDOF 1
ENDMDL
MODEL 4
REMARK VINA RESULT:      -7.6      1.093      1.226
REMARK  Name = 
REMARK  1 active torsions:
REMARK  status: ('A' for Active; 'I' for Inactive)
REMARK    1  A    between atoms: C_8  and  C_9
REMARK                            x       y       z     vdW  Elec       q    Type
REMARK                         _______ _______ _______ _____ _____    ______ ____
ROOT
ATOM      1  C   UNL     1       2.375   3.616  18.752  0.00  0.00    +0.000 A 
ATOM      2  C   UNL     1       3.015   4.360  19.750  0.00  0.00    +0.000 A 
ATOM      3  C   UNL     1       4.205   5.027  19.472  0.00  0.00    +0.000 A 
ATOM      4  C   UNL     1       4.740   4.936  18.186  0.00  0.00    +0.000 A 
ATOM      5  C   UNL     1       4.115   4.190  17.173  0.00  0.00    +0.000 A 
ATOM      6  C   UNL     1       2.922   3.530  17.467  0.00  0.00    +0.000 A 
ATOM      7  C   UNL     1       4.737   4.114  15.837  0.00  0.00    +0.000 A 
ATOM      8  C   UNL     1       5.893   4.755  15.550  0.00  0.00    +0.000 A 
ATOM      9  C   UNL     1       6.507   5.532  16.578  0.00  0.00    +0.000 A 
ATOM     10  N   UNL     1       7.601   6.268  16.602  0.00  0.00    +0.000 NA
ATOM     11  N   UNL     1       7.692   6.767  17.880  0.00  0.00    +0.000 NA
ATOM     12  N   UNL     1       6.680   6.353  18.633  0.00  0.00    +0.000 NA
ATOM     13  N   UNL     1       5.927   5.582  17.827  0.00  0.00    +0.000 N 
ENDROOT
BRANCH   8  14
ATOM     14  C   UNL     1       6.435   4.599  14.244  0.00  0.00    +0.000 A 
ATOM     15  N   UNL     1       6.137   3.789  13.245  0.00  0.00    +0.000 NA
ATOM     16  N   UNL     1       7.017   4.087  12.231  0.00  0.00    +0.000 NA
ATOM     17  N   UNL     1       7.844   5.059  12.587  0.00  0.00    +0.000 NA
ATOM     18  N   UNL     1       7.488   5.379  13.835  0.00  0.00    +0.000 N 
ATOM     19  H   UNL     1       7.987   6.106  14.338  0.00  0.00    +0.000 HD
ENDBRANCH   8  14
TORSDOF 1
ENDMDL
MODEL 5
REMARK VINA RESULT:      -7.5      1.903      5.292
REMARK  Name = 
REMARK  1 active torsions:
REMARK  status: ('A' for Active; 'I' for Inactive)
REMARK    1  A    between atoms: C_8  and  C_9
REMARK                            x       y       z     vdW  Elec       q    Type
REMARK                         _______ _______ _______ _____ _____    ______ ____
ROOT
ATOM      1  C   UNL     1       6.749   3.880  12.245  0.00  0.00    +0.000 A 
ATOM      2  C   UNL     1       7.607   4.967  12.439  0.00  0.00    +0.000 A 
ATOM      3  C   UNL     1       7.702   5.571  13.690  0.00  0.00    +0.000 A 
ATOM      4  C   UNL     1       6.926   5.069  14.736  0.00  0.00    +0.000 A 
ATOM      5  C   UNL     1       6.055   3.981  14.560  0.00  0.00    +0.000 A 
ATOM      6  C   UNL     1       5.975   3.386  13.300  0.00  0.00    +0.000 A 
ATOM      7  C   UNL     1       5.246   3.505  15.698  0.00  0.00    +0.000 A 
ATOM      8  C   UNL     1       5.325   4.080  16.921  0.00  0.00    +0.000 A 
ATOM      9  C   UNL     1       6.232   5.167  17.097  0.00  0.00    +0.000 A 
ATOM     10  N   UNL     1       6.541   5.906  18.145  0.00  0.00    +0.000 NA
ATOM     11  N   UNL     1       7.472   6.816  17.705  0.00  0.00    +0.000 NA
ATOM     12  N   UNL     1       7.737   6.649  16.415  0.00  0.00    +0.000 NA
ATOM     13  N   UNL     1       6.970   5.615  16.023  0.00  0.00    +0.000 N 
ENDROOT
BRANCH   8  14
ATOM     14  C   UNL     1       4.484   3.574  17.949  0.00  0.00    +0.000 A 
ATOM     15  N   UNL     1       3.176   3.419  18.038  0.00  0.00    +0.000 NA
ATOM     16  N   UNL     1       2.932   2.895  19.286  0.00  0.00    +0.000 NA
ATOM     17  N   UNL     1       4.060   2.728  19.962  0.00  0.00    +0.000 NA
ATOM     18  N   UNL     1       5.025   3.149  19.137  0.00  0.00    +0.000 N 
ATOM     19  H   UNL     1       5.995   3.128  19.434  0.00  0.00    +0.000 HD
ENDBRANCH   8  14
TORSDOF 1
ENDMDL
MODEL 6
REMARK VINA RESULT:      -7.5      2.175      5.233
REMARK  Name = 
REMARK  1 active torsions:
REMARK  status: ('A' for Active; 'I' for Inactive)
REMARK    1  A    between atoms: C_8  and  C_9
REMARK                            x       y       z     vdW  Elec       q    Type
REMARK                         _______ _______ _______ _____ _____    ______ ____
ROOT
ATOM      1  C   UNL     1       6.067   4.171  13.725  0.00  0.00    +0.000 A 
ATOM      2  C   UNL     1       7.251   4.779  14.156  0.00  0.00    +0.000 A 
ATOM      3  C   UNL     1       7.454   5.038  15.509  0.00  0.00    +0.000 A 
ATOM      4  C   UNL     1       6.455   4.682  16.416  0.00  0.00    +0.000 A 
ATOM      5  C   UNL     1       5.257   4.075  16.002  0.00  0.00    +0.000 A 
ATOM      6  C   UNL     1       5.072   3.820  14.643  0.00  0.00    +0.000 A 
ATOM      7  C   UNL     1       4.229   3.737  17.005  0.00  0.00    +0.000 A 
ATOM      8  C   UNL     1       4.408   3.982  18.323  0.00  0.00    +0.000 A 
ATOM      9  C   UNL     1       5.639   4.574  18.737  0.00  0.00    +0.000 A 
ATOM     10  N   UNL     1       6.108   4.912  19.923  0.00  0.00    +0.000 NA
ATOM     11  N   UNL     1       7.349   5.457  19.696  0.00  0.00    +0.000 NA
ATOM     12  N   UNL     1       7.647   5.458  18.403  0.00  0.00    +0.000 NA
ATOM     13  N   UNL     1       6.585   4.902  17.791  0.00  0.00    +0.000 N 
ENDROOT
BRANCH   8  14
ATOM     14  C   UNL     1       3.349   3.651  19.212  0.00  0.00    +0.000 A 
ATOM     15  N   UNL     1       2.576   2.586  19.323  0.00  0.00    +0.000 NA
ATOM     16  N   UNL     1       1.713   2.841  20.362  0.00  0.00    +0.000 NA
ATOM     17  N   UNL     1       1.939   4.036  20.888  0.00  0.00    +0.000 NA
ATOM     18  N   UNL     1       2.952   4.543  20.177  0.00  0.00    +0.000 N 
ATOM     19  H   UNL     1       3.310   5.470  20.386  0.00  0.00    +0.000 HD
ENDBRANCH   8  14
TORSDOF 1
ENDMDL
MODEL 7
REMARK VINA RESULT:      -7.5      2.753      3.149
REMARK  Name = 
REMARK  1 active torsions:
REMARK  status: ('A' for Active; 'I' for Inactive)
REMARK    1  A    between atoms: C_8  and  C_9
REMARK                            x       y       z     vdW  Elec       q    Type
REMARK                         _______ _______ _______ _____ _____    ______ ____
ROOT
ATOM      1  C   UNL     1       1.733   8.659  18.798  0.00  0.00    +0.000 A 
ATOM      2  C   UNL     1       1.549   7.789  19.877  0.00  0.00    +0.000 A 
ATOM      3  C   UNL     1       2.307   6.625  19.976  0.00  0.00    +0.000 A 
ATOM      4  C   UNL     1       3.245   6.350  18.979  0.00  0.00    +0.000 A 
ATOM      5  C   UNL     1       3.441   7.209  17.885  0.00  0.00    +0.000 A 
ATOM      6  C   UNL     1       2.675   8.373  17.804  0.00  0.00    +0.000 A 
ATOM      7  C   UNL     1       4.434   6.858  16.853  0.00  0.00    +0.000 A 
ATOM      8  C   UNL     1       5.178   5.731  16.932  0.00  0.00    +0.000 A 
ATOM      9  C   UNL     1       4.992   4.878  18.060  0.00  0.00    +0.000 A 
ATOM     10  N   UNL     1       5.564   3.746  18.422  0.00  0.00    +0.000 NA
ATOM     11  N   UNL     1       4.960   3.378  19.601  0.00  0.00    +0.000 NA
ATOM     12  N   UNL     1       4.036   4.259  19.964  0.00  0.00    +0.000 NA
ATOM     13  N   UNL     1       4.050   5.206  19.009  0.00  0.00    +0.000 N 
ENDROOT
BRANCH   8  14
ATOM     14  C   UNL     1       6.089   5.459  15.873  0.00  0.00    +0.000 A 
ATOM     15  N   UNL     1       7.349   5.796  15.671  0.00  0.00    +0.000 NA
ATOM     16  N   UNL     1       7.703   5.257  14.456  0.00  0.00    +0.000 NA
ATOM     17  N   UNL     1       6.688   4.601  13.911  0.00  0.00    +0.000 NA
ATOM     18  N   UNL     1       5.685   4.724  14.787  0.00  0.00    +0.000 N 
ATOM     19  H   UNL     1       4.781   4.306  14.589  0.00  0.00    +0.000 HD
ENDBRANCH   8  14
TORSDOF 1
ENDMDL
MODEL 8
REMARK VINA RESULT:      -7.3      4.069      6.306
REMARK  Name = 
REMARK  1 active torsions:
REMARK  status: ('A' for Active; 'I' for Inactive)
REMARK    1  A    between atoms: C_8  and  C_9
REMARK                            x       y       z     vdW  Elec       q    Type
REMARK                         _______ _______ _______ _____ _____    ______ ____
ROOT
ATOM      1  C   UNL     1       5.556   5.392  15.621  0.00  0.00    +0.000 A 
ATOM      2  C   UNL     1       5.387   4.050  15.978  0.00  0.00    +0.000 A 
ATOM      3  C   UNL     1       4.546   3.705  17.032  0.00  0.00    +0.000 A 
ATOM      4  C   UNL     1       3.881   4.722  17.719  0.00  0.00    +0.000 A 
ATOM      5  C   UNL     1       4.041   6.076  17.379  0.00  0.00    +0.000 A 
ATOM      6  C   UNL     1       4.886   6.404  16.318  0.00  0.00    +0.000 A 
ATOM      7  C   UNL     1       3.327   7.109  18.153  0.00  0.00    +0.000 A 
ATOM      8  C   UNL     1       2.506   6.792  19.181  0.00  0.00    +0.000 A 
ATOM      9  C   UNL     1       2.330   5.413  19.502  0.00  0.00    +0.000 A 
ATOM     10  N   UNL     1       1.601   4.799  20.414  0.00  0.00    +0.000 NA
ATOM     11  N   UNL     1       1.848   3.457  20.254  0.00  0.00    +0.000 NA
ATOM     12  N   UNL     1       2.709   3.239  19.267  0.00  0.00    +0.000 NA
ATOM     13  N   UNL     1       3.014   4.457  18.784  0.00  0.00    +0.000 N 
ENDROOT
BRANCH   8  14
ATOM     14  C   UNL     1       1.885   7.857  19.890  0.00  0.00    +0.000 A 
ATOM     15  N   UNL     1       1.322   8.984  19.495  0.00  0.00    +0.000 NA
ATOM     16  N   UNL     1       0.907   9.630  20.635  0.00  0.00    +0.000 NA
ATOM     17  N   UNL     1       1.203   8.925  21.718  0.00  0.00    +0.000 NA
ATOM     18  N   UNL     1       1.811   7.825  21.260  0.00  0.00    +0.000 N 
ATOM     19  H   UNL     1       2.146   7.120  21.909  0.00  0.00    +0.000 HD
ENDBRANCH   8  14
TORSDOF 1
ENDMDL
MODEL 9
REMARK VINA RESULT:      -7.3      2.249      2.803
REMARK  Name = 
REMARK  1 active torsions:
REMARK  status: ('A' for Active; 'I' for Inactive)
REMARK    1  A    between atoms: C_8  and  C_9
REMARK                            x       y       z     vdW  Elec       q    Type
REMARK                         _______ _______ _______ _____ _____    ______ ____
ROOT
ATOM      1  C   UNL     1       1.740   1.622  18.809  0.00  0.00    +0.000 A 
ATOM      2  C   UNL     1       0.895   2.574  19.389  0.00  0.00    +0.000 A 
ATOM      3  C   UNL     1       1.188   3.931  19.280  0.00  0.00    +0.000 A 
ATOM      4  C   UNL     1       2.336   4.314  18.585  0.00  0.00    +0.000 A 
ATOM      5  C   UNL     1       3.200   3.373  18.000  0.00  0.00    +0.000 A 
ATOM      6  C   UNL     1       2.889   2.017  18.117  0.00  0.00    +0.000 A 
ATOM      7  C   UNL     1       4.409   3.836  17.293  0.00  0.00    +0.000 A 
ATOM      8  C   UNL     1       4.710   5.150  17.178  0.00  0.00    +0.000 A 
ATOM      9  C   UNL     1       3.813   6.099  17.752  0.00  0.00    +0.000 A 
ATOM     10  N   UNL     1       3.821   7.418  17.791  0.00  0.00    +0.000 NA
ATOM     11  N   UNL     1       2.701   7.781  18.500  0.00  0.00    +0.000 NA
ATOM     12  N   UNL     1       2.012   6.716  18.892  0.00  0.00    +0.000 NA
ATOM     13  N   UNL     1       2.696   5.656  18.424  0.00  0.00    +0.000 N 
ENDROOT
BRANCH   8  14
ATOM     14  C   UNL     1       5.913   5.500  16.506  0.00  0.00    +0.000 A 
ATOM     15  N   UNL     1       6.438   5.119  15.357  0.00  0.00    +0.000 NA
ATOM     16  N   UNL     1       7.635   5.786  15.237  0.00  0.00    +0.000 NA
ATOM     17  N   UNL     1       7.853   6.565  16.286  0.00  0.00    +0.000 NA
ATOM     18  N   UNL     1       6.789   6.391  17.076  0.00  0.00    +0.000 N 
ATOM     19  H   UNL     1       6.724   6.883  17.962  0.00  0.00    +0.000 HD
ENDBRANCH   8  14
TORSDOF 1
ENDMDL
