MODEL 1
REMARK VINA RESULT:      -8.0      0.000      0.000
REMARK  Name = 
REMARK  9 active torsions:
REMARK  status: ('A' for Active; 'I' for Inactive)
REMARK    1  A    between atoms: C_1  and  C_2
REMARK    2  A    between atoms: C_2  and  C_3
REMARK    3  A    between atoms: C_3  and  C_4
REMARK    4  A    between atoms: C_4  and  C_5
REMARK    5  A    between atoms: N_7  and  N_8
REMARK    6  A    between atoms: N_8  and  C_9
REMARK    7  A    between atoms: N_16  and  C_17
REMARK    8  A    between atoms: C_17  and  C_18
REMARK    9  A    between atoms: C_18  and  C_19
REMARK                            x       y       z     vdW  Elec       q    Type
REMARK                         _______ _______ _______ _____ _____    ______ ____
ROOT
ATOM      1  C   UNL     1       7.624   6.958  17.333  0.00  0.00    +0.000 C 
ATOM      2  C   UNL     1       6.624   6.062  17.257  0.00  0.00    +0.000 C 
ATOM      3  C   UNL     1       6.985   4.649  17.061  0.00  0.00    +0.000 C 
ATOM      4  O   UNL     1       8.137   4.258  16.864  0.00  0.00    +0.000 OA
ATOM      5  N   UNL     1       5.950   3.781  17.132  0.00  0.00    +0.000 N 
ATOM      6  C   UNL     1       4.631   4.068  17.351  0.00  0.00    +0.000 C 
ATOM      7  O   UNL     1       3.843   3.126  17.333  0.00  0.00    +0.000 OA
ATOM      8  N   UNL     1       4.295   5.390  17.560  0.00  0.00    +0.000 N 
ATOM      9  C   UNL     1       5.209   6.440  17.452  0.00  0.00    +0.000 C 
ATOM     10  O   UNL     1       4.885   7.628  17.506  0.00  0.00    +0.000 OA
ATOM     11  H   UNL     1       6.168   2.804  16.999  0.00  0.00    +0.000 HD
ENDROOT
BRANCH   1  12
ATOM     12  N   UNL     1       7.599   8.322  17.562  0.00  0.00    +0.000 N 
ATOM     13  H   UNL     1       6.688   8.646  17.934  0.00  0.00    +0.000 HD
BRANCH  12  16
ATOM     14  C   UNL     1       8.790  10.238  18.356  0.00  0.00    +0.000 C 
ATOM     15  O   UNL     1       8.187  10.974  17.582  0.00  0.00    +0.000 OA
ATOM     16  N   UNL     1       8.625   8.857  18.390  0.00  0.00    +0.000 N 
ATOM     17  H   UNL     1       8.781   8.371  19.269  0.00  0.00    +0.000 HD
BRANCH  14  18
ATOM     18  C   UNL     1       9.840  10.732  19.336  0.00  0.00    +0.000 C 
BRANCH  18  19
ATOM     19  C   UNL     1       9.295  10.958  20.746  0.00  0.00    +0.000 C 
BRANCH  19  21
ATOM     20  C   UNL     1       9.071  13.458  20.504  0.00  0.00    +0.000 C 
ATOM     21  C   UNL     1       9.690  12.325  21.308  0.00  0.00    +0.000 C 
ENDBRANCH  19  21
ENDBRANCH  18  19
ENDBRANCH  14  18
ENDBRANCH  12  16
ENDBRANCH   1  12
BRANCH   8  22
ATOM     22  C   UNL     1       2.883   5.789  17.671  0.00  0.00    +0.000 C 
BRANCH  22  23
ATOM     23  C   UNL     1       2.323   6.095  19.068  0.00  0.00    +0.000 C 
BRANCH  23  24
ATOM     24  C   UNL     1       2.022   4.816  19.812  0.00  0.00    +0.000 A 
ATOM     25  C   UNL     1       1.189   3.846  19.235  0.00  0.00    +0.000 A 
ATOM     26  C   UNL     1       0.839   2.699  19.948  0.00  0.00    +0.000 A 
ATOM     27  C   UNL     1       1.323   2.510  21.242  0.00  0.00    +0.000 A 
ATOM     28  C   UNL     1       2.169   3.458  21.815  0.00  0.00    +0.000 A 
ATOM     29  C   UNL     1       2.519   4.607  21.104  0.00  0.00    +0.000 A 
ENDBRANCH  23  24
ENDBRANCH  22  23
ENDBRANCH   8  22
TORSDOF 8
ENDMDL
MODEL 2
REMARK VINA RESULT:      -7.9      0.318      1.021
REMARK  Name = 
REMARK  9 active torsions:
REMARK  status: ('A' for Active; 'I' for Inactive)
REMARK    1  A    between atoms: C_1  and  C_2
REMARK    2  A    between atoms: C_2  and  C_3
REMARK    3  A    between atoms: C_3  and  C_4
REMARK    4  A    between atoms: C_4  and  C_5
REMARK    5  A    between atoms: N_7  and  N_8
REMARK    6  A    between atoms: N_8  and  C_9
REMARK    7  A    between atoms: N_16  and  C_17
REMARK    8  A    between atoms: C_17  and  C_18
REMARK    9  A    between atoms: C_18  and  C_19
REMARK                            x       y       z     vdW  Elec       q    Type
REMARK                         _______ _______ _______ _____ _____    ______ ____
ROOT
ATOM      1  C   UNL     1       7.632   6.943  17.498  0.00  0.00    +0.000 C 
ATOM      2  C   UNL     1       6.644   6.038  17.380  0.00  0.00    +0.000 C 
ATOM      3  C   UNL     1       7.024   4.628  17.203  0.00  0.00    +0.000 C 
ATOM      4  O   UNL     1       8.187   4.246  17.056  0.00  0.00    +0.000 OA
ATOM      5  N   UNL     1       5.994   3.751  17.231  0.00  0.00    +0.000 N 
ATOM      6  C   UNL     1       4.665   4.029  17.393  0.00  0.00    +0.000 C 
ATOM      7  O   UNL     1       3.886   3.080  17.343  0.00  0.00    +0.000 OA
ATOM      8  N   UNL     1       4.310   5.348  17.584  0.00  0.00    +0.000 N 
ATOM      9  C   UNL     1       5.219   6.405  17.513  0.00  0.00    +0.000 C 
ATOM     10  O   UNL     1       4.883   7.590  17.550  0.00  0.00    +0.000 OA
ATOM     11  H   UNL     1       6.226   2.776  17.110  0.00  0.00    +0.000 HD
ENDROOT
BRANCH   1  12
ATOM     12  N   UNL     1       7.586   8.307  17.722  0.00  0.00    +0.000 N 
ATOM     13  H   UNL     1       6.687   8.611  18.137  0.00  0.00    +0.000 HD
BRANCH  12  16
ATOM     14  C   UNL     1       8.811  10.247  18.398  0.00  0.00    +0.000 C 
ATOM     15  O   UNL     1       8.189  10.953  17.612  0.00  0.00    +0.000 OA
ATOM     16  N   UNL     1       8.639   8.869  18.496  0.00  0.00    +0.000 N 
ATOM     17  H   UNL     1       8.819   8.421  19.390  0.00  0.00    +0.000 HD
BRANCH  14  18
ATOM     18  C   UNL     1       9.892  10.775  19.325  0.00  0.00    +0.000 C 
BRANCH  18  19
ATOM     19  C   UNL     1       9.367  11.174  20.703  0.00  0.00    +0.000 C 
BRANCH  19  21
ATOM     20  C   UNL     1       9.439  13.300  22.057  0.00  0.00    +0.000 C 
ATOM     21  C   UNL     1       8.967  12.650  20.766  0.00  0.00    +0.000 C 
ENDBRANCH  19  21
ENDBRANCH  18  19
ENDBRANCH  14  18
ENDBRANCH  12  16
ENDBRANCH   1  12
BRANCH   8  22
ATOM     22  C   UNL     1       2.890   5.735  17.633  0.00  0.00    +0.000 C 
BRANCH  22  23
ATOM     23  C   UNL     1       2.287   6.107  18.996  0.00  0.00    +0.000 C 
BRANCH  23  24
ATOM     24  C   UNL     1       1.929   4.864  19.776  0.00  0.00    +0.000 A 
ATOM     25  C   UNL     1       2.392   4.701  21.090  0.00  0.00    +0.000 A 
ATOM     26  C   UNL     1       2.135   3.520  21.788  0.00  0.00    +0.000 A 
ATOM     27  C   UNL     1       1.412   2.496  21.180  0.00  0.00    +0.000 A 
ATOM     28  C   UNL     1       0.930   2.658  19.882  0.00  0.00    +0.000 A 
ATOM     29  C   UNL     1       1.187   3.838  19.181  0.00  0.00    +0.000 A 
ENDBRANCH  23  24
ENDBRANCH  22  23
ENDBRANCH   8  22
TORSDOF 8
ENDMDL
MODEL 3
REMARK VINA RESULT:      -7.9      3.982      6.565
REMARK  Name = 
REMARK  9 active torsions:
REMARK  status: ('A' for Active; 'I' for Inactive)
REMARK    1  A    between atoms: C_1  and  C_2
REMARK    2  A    between atoms: C_2  and  C_3
REMARK    3  A    between atoms: C_3  and  C_4
REMARK    4  A    between atoms: C_4  and  C_5
REMARK    5  A    between atoms: N_7  and  N_8
REMARK    6  A    between atoms: N_8  and  C_9
REMARK    7  A    between atoms: N_16  and  C_17
REMARK    8  A    between atoms: C_17  and  C_18
REMARK    9  A    between atoms: C_18  and  C_19
REMARK                            x       y       z     vdW  Elec       q    Type
REMARK                         _______ _______ _______ _____ _____    ______ ____
ROOT
ATOM      1  C   UNL     1       7.346   4.730  15.371  0.00  0.00    +0.000 C 
ATOM      2  C   UNL     1       6.670   4.862  16.526  0.00  0.00    +0.000 C 
ATOM      3  C   UNL     1       7.373   4.525  17.774  0.00  0.00    +0.000 C 
ATOM      4  O   UNL     1       8.504   4.037  17.811  0.00  0.00    +0.000 OA
ATOM      5  N   UNL     1       6.691   4.809  18.907  0.00  0.00    +0.000 N 
ATOM      6  C   UNL     1       5.443   5.355  19.017  0.00  0.00    +0.000 C 
ATOM      7  O   UNL     1       4.989   5.490  20.151  0.00  0.00    +0.000 OA
ATOM      8  N   UNL     1       4.792   5.694  17.848  0.00  0.00    +0.000 N 
ATOM      9  C   UNL     1       5.299   5.411  16.578  0.00  0.00    +0.000 C 
ATOM     10  O   UNL     1       4.662   5.592  15.539  0.00  0.00    +0.000 OA
ATOM     11  H   UNL     1       7.150   4.587  19.779  0.00  0.00    +0.000 HD
ENDROOT
BRANCH   1  12
ATOM     12  N   UNL     1       6.976   5.015  14.069  0.00  0.00    +0.000 N 
ATOM     13  H   UNL     1       7.785   5.042  13.423  0.00  0.00    +0.000 HD
BRANCH  12  16
ATOM     14  C   UNL     1       6.322   3.540  12.304  0.00  0.00    +0.000 C 
ATOM     15  O   UNL     1       7.374   3.736  11.706  0.00  0.00    +0.000 OA
ATOM     16  N   UNL     1       5.977   4.188  13.486  0.00  0.00    +0.000 N 
ATOM     17  H   UNL     1       5.361   3.710  14.139  0.00  0.00    +0.000 HD
BRANCH  14  18
ATOM     18  C   UNL     1       5.233   2.607  11.801  0.00  0.00    +0.000 C 
BRANCH  18  19
ATOM     19  C   UNL     1       4.608   3.061  10.482  0.00  0.00    +0.000 C 
BRANCH  19  21
ATOM     20  C   UNL     1       2.754   4.388   9.407  0.00  0.00    +0.000 C 
ATOM     21  C   UNL     1       3.249   3.733  10.687  0.00  0.00    +0.000 C 
ENDBRANCH  19  21
ENDBRANCH  18  19
ENDBRANCH  14  18
ENDBRANCH  12  16
ENDBRANCH   1  12
BRANCH   8  22
ATOM     22  C   UNL     1       3.397   6.162  17.884  0.00  0.00    +0.000 C 
BRANCH  22  23
ATOM     23  C   UNL     1       2.282   5.139  17.622  0.00  0.00    +0.000 C 
BRANCH  23  24
ATOM     24  C   UNL     1       2.121   4.214  18.806  0.00  0.00    +0.000 A 
ATOM     25  C   UNL     1       2.505   2.869  18.706  0.00  0.00    +0.000 A 
ATOM     26  C   UNL     1       2.284   1.990  19.766  0.00  0.00    +0.000 A 
ATOM     27  C   UNL     1       1.681   2.448  20.935  0.00  0.00    +0.000 A 
ATOM     28  C   UNL     1       1.315   3.789  21.052  0.00  0.00    +0.000 A 
ATOM     29  C   UNL     1       1.534   4.670  19.992  0.00  0.00    +0.000 A 
ENDBRANCH  23  24
ENDBRANCH  22  23
ENDBRANCH   8  22
TORSDOF 8
ENDMDL
MODEL 4
REMARK VINA RESULT:      -7.8      3.872      7.009
REMARK  Name = 
REMARK  9 active torsions:
REMARK  status: ('A' for Active; 'I' for Inactive)
REMARK    1  A    between atoms: C_1  and  C_2
REMARK    2  A    between atoms: C_2  and  C_3
REMARK    3  A    between atoms: C_3  and  C_4
REMARK    4  A    between atoms: C_4  and  C_5
REMARK    5  A    between atoms: N_7  and  N_8
REMARK    6  A    between atoms: N_8  and  C_9
REMARK    7  A    between atoms: N_16  and  C_17
REMARK    8  A    between atoms: C_17  and  C_18
REMARK    9  A    between atoms: C_18  and  C_19
REMARK                            x       y       z     vdW  Elec       q    Type
REMARK                         _______ _______ _______ _____ _____    ______ ____
ROOT
ATOM      1  C   UNL     1       2.001   6.086  20.833  0.00  0.00    +0.000 C 
ATOM      2  C   UNL     1       2.525   5.051  20.154  0.00  0.00    +0.000 C 
ATOM      3  C   UNL     1       2.495   3.726  20.793  0.00  0.00    +0.000 C 
ATOM      4  O   UNL     1       2.110   3.532  21.947  0.00  0.00    +0.000 OA
ATOM      5  N   UNL     1       2.908   2.704  20.008  0.00  0.00    +0.000 N 
ATOM      6  C   UNL     1       3.349   2.769  18.716  0.00  0.00    +0.000 C 
ATOM      7  O   UNL     1       3.721   1.718  18.198  0.00  0.00    +0.000 OA
ATOM      8  N   UNL     1       3.355   4.008  18.107  0.00  0.00    +0.000 N 
ATOM      9  C   UNL     1       3.037   5.192  18.774  0.00  0.00    +0.000 C 
ATOM     10  O   UNL     1       3.170   6.309  18.272  0.00  0.00    +0.000 OA
ATOM     11  H   UNL     1       2.898   1.783  20.422  0.00  0.00    +0.000 HD
ENDROOT
BRANCH   1  12
ATOM     12  N   UNL     1       1.841   7.413  20.478  0.00  0.00    +0.000 N 
ATOM     13  H   UNL     1       1.070   7.553  19.800  0.00  0.00    +0.000 HD
BRANCH  12  16
ATOM     14  C   UNL     1       0.360   8.613  21.922  0.00  0.00    +0.000 C 
ATOM     15  O   UNL     1      -0.622   8.174  21.332  0.00  0.00    +0.000 OA
ATOM     16  N   UNL     1       1.670   8.349  21.535  0.00  0.00    +0.000 N 
ATOM     17  H   UNL     1       2.395   8.349  22.248  0.00  0.00    +0.000 HD
BRANCH  14  18
ATOM     18  C   UNL     1       0.272   9.550  23.115  0.00  0.00    +0.000 C 
BRANCH  18  19
ATOM     19  C   UNL     1      -1.051  10.312  23.191  0.00  0.00    +0.000 C 
BRANCH  19  21
ATOM     20  C   UNL     1      -2.206  12.344  22.248  0.00  0.00    +0.000 C 
ATOM     21  C   UNL     1      -0.899  11.778  22.780  0.00  0.00    +0.000 C 
ENDBRANCH  19  21
ENDBRANCH  18  19
ENDBRANCH  14  18
ENDBRANCH  12  16
ENDBRANCH   1  12
BRANCH   8  22
ATOM     22  C   UNL     1       3.940   4.174  16.767  0.00  0.00    +0.000 C 
BRANCH  22  23
ATOM     23  C   UNL     1       5.426   3.835  16.577  0.00  0.00    +0.000 C 
BRANCH  23  24
ATOM     24  C   UNL     1       6.298   4.923  17.158  0.00  0.00    +0.000 A 
ATOM     25  C   UNL     1       7.102   4.658  18.277  0.00  0.00    +0.000 A 
ATOM     26  C   UNL     1       7.846   5.679  18.870  0.00  0.00    +0.000 A 
ATOM     27  C   UNL     1       7.797   6.969  18.347  0.00  0.00    +0.000 A 
ATOM     28  C   UNL     1       7.018   7.237  17.222  0.00  0.00    +0.000 A 
ATOM     29  C   UNL     1       6.271   6.218  16.628  0.00  0.00    +0.000 A 
ENDBRANCH  23  24
ENDBRANCH  22  23
ENDBRANCH   8  22
TORSDOF 8
ENDMDL
MODEL 5
REMARK VINA RESULT:      -7.7      4.146      6.835
REMARK  Name = 
REMARK  9 active torsions:
REMARK  status: ('A' for Active; 'I' for Inactive)
REMARK    1  A    between atoms: C_1  and  C_2
REMARK    2  A    between atoms: C_2  and  C_3
REMARK    3  A    between atoms: C_3  and  C_4
REMARK    4  A    between atoms: C_4  and  C_5
REMARK    5  A    between atoms: N_7  and  N_8
REMARK    6  A    between atoms: N_8  and  C_9
REMARK    7  A    between atoms: N_16  and  C_17
REMARK    8  A    between atoms: C_17  and  C_18
REMARK    9  A    between atoms: C_18  and  C_19
REMARK                            x       y       z     vdW  Elec       q    Type
REMARK                         _______ _______ _______ _____ _____    ______ ____
ROOT
ATOM      1  C   UNL     1       5.260   3.763  18.346  0.00  0.00    +0.000 C 
ATOM      2  C   UNL     1       4.196   4.428  18.830  0.00  0.00    +0.000 C 
ATOM      3  C   UNL     1       3.261   3.689  19.693  0.00  0.00    +0.000 C 
ATOM      4  O   UNL     1       3.343   2.480  19.913  0.00  0.00    +0.000 OA
ATOM      5  N   UNL     1       2.291   4.444  20.260  0.00  0.00    +0.000 N 
ATOM      6  C   UNL     1       2.085   5.787  20.114  0.00  0.00    +0.000 C 
ATOM      7  O   UNL     1       1.111   6.269  20.689  0.00  0.00    +0.000 OA
ATOM      8  N   UNL     1       2.975   6.485  19.325  0.00  0.00    +0.000 N 
ATOM      9  C   UNL     1       3.997   5.874  18.595  0.00  0.00    +0.000 C 
ATOM     10  O   UNL     1       4.707   6.476  17.788  0.00  0.00    +0.000 OA
ATOM     11  H   UNL     1       1.634   3.962  20.857  0.00  0.00    +0.000 HD
ENDROOT
BRANCH   1  12
ATOM     12  N   UNL     1       6.318   4.195  17.567  0.00  0.00    +0.000 N 
ATOM     13  H   UNL     1       7.218   3.765  17.846  0.00  0.00    +0.000 HD
BRANCH  12  16
ATOM     14  C   UNL     1       6.911   4.943  15.374  0.00  0.00    +0.000 C 
ATOM     15  O   UNL     1       7.549   5.884  15.833  0.00  0.00    +0.000 OA
ATOM     16  N   UNL     1       6.183   4.053  16.158  0.00  0.00    +0.000 N 
ATOM     17  H   UNL     1       6.054   3.103  15.820  0.00  0.00    +0.000 HD
BRANCH  14  18
ATOM     18  C   UNL     1       6.783   4.662  13.887  0.00  0.00    +0.000 C 
BRANCH  18  19
ATOM     19  C   UNL     1       5.629   3.719  13.545  0.00  0.00    +0.000 C 
BRANCH  19  21
ATOM     20  C   UNL     1       4.321   3.218  11.449  0.00  0.00    +0.000 C 
ATOM     21  C   UNL     1       5.695   3.223  12.099  0.00  0.00    +0.000 C 
ENDBRANCH  19  21
ENDBRANCH  18  19
ENDBRANCH  14  18
ENDBRANCH  12  16
ENDBRANCH   1  12
BRANCH   8  22
ATOM     22  C   UNL     1       2.740   7.905  19.016  0.00  0.00    +0.000 C 
BRANCH  22  23
ATOM     23  C   UNL     1       1.671   8.252  17.969  0.00  0.00    +0.000 C 
BRANCH  23  24
ATOM     24  C   UNL     1       0.716   9.290  18.509  0.00  0.00    +0.000 A 
ATOM     25  C   UNL     1       0.849   9.751  19.827  0.00  0.00    +0.000 A 
ATOM     26  C   UNL     1      -0.078  10.647  20.360  0.00  0.00    +0.000 A 
ATOM     27  C   UNL     1      -1.142  11.094  19.578  0.00  0.00    +0.000 A 
ATOM     28  C   UNL     1      -1.269  10.659  18.260  0.00  0.00    +0.000 A 
ATOM     29  C   UNL     1      -0.345   9.761  17.725  0.00  0.00    +0.000 A 
ENDBRANCH  23  24
ENDBRANCH  22  23
ENDBRANCH   8  22
TORSDOF 8
ENDMDL
MODEL 6
REMARK VINA RESULT:      -7.6      3.585      7.006
REMARK  Name = 
REMARK  9 active torsions:
REMARK  status: ('A' for Active; 'I' for Inactive)
REMARK    1  A    between atoms: C_1  and  C_2
REMARK    2  A    between atoms: C_2  and  C_3
REMARK    3  A    between atoms: C_3  and  C_4
REMARK    4  A    between atoms: C_4  and  C_5
REMARK    5  A    between atoms: N_7  and  N_8
REMARK    6  A    between atoms: N_8  and  C_9
REMARK    7  A    between atoms: N_16  and  C_17
REMARK    8  A    between atoms: C_17  and  C_18
REMARK    9  A    between atoms: C_18  and  C_19
REMARK                            x       y       z     vdW  Elec       q    Type
REMARK                         _______ _______ _______ _____ _____    ______ ____
ROOT
ATOM      1  C   UNL     1       1.735   5.884  20.980  0.00  0.00    +0.000 C 
ATOM      2  C   UNL     1       2.126   4.933  20.114  0.00  0.00    +0.000 C 
ATOM      3  C   UNL     1       1.650   3.560  20.344  0.00  0.00    +0.000 C 
ATOM      4  O   UNL     1       1.000   3.217  21.333  0.00  0.00    +0.000 OA
ATOM      5  N   UNL     1       1.961   2.677  19.366  0.00  0.00    +0.000 N 
ATOM      6  C   UNL     1       2.662   2.916  18.217  0.00  0.00    +0.000 C 
ATOM      7  O   UNL     1       2.871   1.955  17.480  0.00  0.00    +0.000 OA
ATOM      8  N   UNL     1       3.089   4.208  17.989  0.00  0.00    +0.000 N 
ATOM      9  C   UNL     1       2.931   5.243  18.913  0.00  0.00    +0.000 C 
ATOM     10  O   UNL     1       3.427   6.361  18.770  0.00  0.00    +0.000 OA
ATOM     11  H   UNL     1       1.647   1.727  19.498  0.00  0.00    +0.000 HD
ENDROOT
BRANCH   1  12
ATOM     12  N   UNL     1       1.973   7.246  20.995  0.00  0.00    +0.000 N 
ATOM     13  H   UNL     1       2.808   7.510  20.441  0.00  0.00    +0.000 HD
BRANCH  12  16
ATOM     14  C   UNL     1       0.764   9.287  21.303  0.00  0.00    +0.000 C 
ATOM     15  O   UNL     1       1.436   9.574  22.288  0.00  0.00    +0.000 OA
ATOM     16  N   UNL     1       0.901   8.094  20.600  0.00  0.00    +0.000 N 
ATOM     17  H   UNL     1       0.672   8.086  19.610  0.00  0.00    +0.000 HD
BRANCH  14  18
ATOM     18  C   UNL     1      -0.344  10.172  20.757  0.00  0.00    +0.000 C 
BRANCH  18  19
ATOM     19  C   UNL     1      -0.326  10.296  19.234  0.00  0.00    +0.000 C 
BRANCH  19  21
ATOM     20  C   UNL     1      -1.755   9.975  17.182  0.00  0.00    +0.000 C 
ATOM     21  C   UNL     1      -1.734  10.394  18.644  0.00  0.00    +0.000 C 
ENDBRANCH  19  21
ENDBRANCH  18  19
ENDBRANCH  14  18
ENDBRANCH  12  16
ENDBRANCH   1  12
BRANCH   8  22
ATOM     22  C   UNL     1       3.960   4.512  16.842  0.00  0.00    +0.000 C 
BRANCH  22  23
ATOM     23  C   UNL     1       5.425   4.052  16.903  0.00  0.00    +0.000 C 
BRANCH  23  24
ATOM     24  C   UNL     1       6.297   5.135  17.495  0.00  0.00    +0.000 A 
ATOM     25  C   UNL     1       6.412   6.376  16.850  0.00  0.00    +0.000 A 
ATOM     26  C   UNL     1       7.278   7.351  17.345  0.00  0.00    +0.000 A 
ATOM     27  C   UNL     1       8.033   7.096  18.488  0.00  0.00    +0.000 A 
ATOM     28  C   UNL     1       7.909   5.873  19.147  0.00  0.00    +0.000 A 
ATOM     29  C   UNL     1       7.044   4.895  18.653  0.00  0.00    +0.000 A 
ENDBRANCH  23  24
ENDBRANCH  22  23
ENDBRANCH   8  22
TORSDOF 8
ENDMDL
MODEL 7
REMARK VINA RESULT:      -7.6      3.934      6.553
REMARK  Name = 
REMARK  9 active torsions:
REMARK  status: ('A' for Active; 'I' for Inactive)
REMARK    1  A    between atoms: C_1  and  C_2
REMARK    2  A    between atoms: C_2  and  C_3
REMARK    3  A    between atoms: C_3  and  C_4
REMARK    4  A    between atoms: C_4  and  C_5
REMARK    5  A    between atoms: N_7  and  N_8
REMARK    6  A    between atoms: N_8  and  C_9
REMARK    7  A    between atoms: N_16  and  C_17
REMARK    8  A    between atoms: C_17  and  C_18
REMARK    9  A    between atoms: C_18  and  C_19
REMARK                            x       y       z     vdW  Elec       q    Type
REMARK                         _______ _______ _______ _____ _____    ______ ____
ROOT
ATOM      1  C   UNL     1       7.554   5.227  15.522  0.00  0.00    +0.000 C 
ATOM      2  C   UNL     1       6.804   5.204  16.639  0.00  0.00    +0.000 C 
ATOM      3  C   UNL     1       7.371   4.557  17.832  0.00  0.00    +0.000 C 
ATOM      4  O   UNL     1       8.445   3.953  17.837  0.00  0.00    +0.000 OA
ATOM      5  N   UNL     1       6.632   4.688  18.958  0.00  0.00    +0.000 N 
ATOM      6  C   UNL     1       5.436   5.334  19.101  0.00  0.00    +0.000 C 
ATOM      7  O   UNL     1       4.909   5.295  20.210  0.00  0.00    +0.000 OA
ATOM      8  N   UNL     1       4.914   5.962  17.988  0.00  0.00    +0.000 N 
ATOM      9  C   UNL     1       5.491   5.878  16.719  0.00  0.00    +0.000 C 
ATOM     10  O   UNL     1       4.958   6.324  15.702  0.00  0.00    +0.000 OA
ATOM     11  H   UNL     1       6.997   4.253  19.792  0.00  0.00    +0.000 HD
ENDROOT
BRANCH   1  12
ATOM     12  N   UNL     1       7.316   5.797  14.285  0.00  0.00    +0.000 N 
ATOM     13  H   UNL     1       7.877   6.654  14.128  0.00  0.00    +0.000 HD
BRANCH  12  16
ATOM     14  C   UNL     1       6.431   4.072  12.885  0.00  0.00    +0.000 C 
ATOM     15  O   UNL     1       5.474   3.909  13.635  0.00  0.00    +0.000 OA
ATOM     16  N   UNL     1       7.471   4.958  13.147  0.00  0.00    +0.000 N 
ATOM     17  H   UNL     1       7.968   5.367  12.360  0.00  0.00    +0.000 HD
BRANCH  14  18
ATOM     18  C   UNL     1       6.634   3.282  11.603  0.00  0.00    +0.000 C 
BRANCH  18  19
ATOM     19  C   UNL     1       5.833   1.981  11.559  0.00  0.00    +0.000 C 
BRANCH  19  21
ATOM     20  C   UNL     1       5.986  -0.524  11.324  0.00  0.00    +0.000 C 
ATOM     21  C   UNL     1       6.665   0.806  11.039  0.00  0.00    +0.000 C 
ENDBRANCH  19  21
ENDBRANCH  18  19
ENDBRANCH  14  18
ENDBRANCH  12  16
ENDBRANCH   1  12
BRANCH   8  22
ATOM     22  C   UNL     1       3.571   6.562  18.035  0.00  0.00    +0.000 C 
BRANCH  22  23
ATOM     23  C   UNL     1       2.401   5.769  17.433  0.00  0.00    +0.000 C 
BRANCH  23  24
ATOM     24  C   UNL     1       2.223   4.455  18.156  0.00  0.00    +0.000 A 
ATOM     25  C   UNL     1       2.641   3.258  17.554  0.00  0.00    +0.000 A 
ATOM     26  C   UNL     1       2.405   2.033  18.179  0.00  0.00    +0.000 A 
ATOM     27  C   UNL     1       1.753   1.994  19.410  0.00  0.00    +0.000 A 
ATOM     28  C   UNL     1       1.354   3.180  20.025  0.00  0.00    +0.000 A 
ATOM     29  C   UNL     1       1.587   4.406  19.402  0.00  0.00    +0.000 A 
ENDBRANCH  23  24
ENDBRANCH  22  23
ENDBRANCH   8  22
TORSDOF 8
ENDMDL
MODEL 8
REMARK VINA RESULT:      -7.5      4.538      7.020
REMARK  Name = 
REMARK  9 active torsions:
REMARK  status: ('A' for Active; 'I' for Inactive)
REMARK    1  A    between atoms: C_1  and  C_2
REMARK    2  A    between atoms: C_2  and  C_3
REMARK    3  A    between atoms: C_3  and  C_4
REMARK    4  A    between atoms: C_4  and  C_5
REMARK    5  A    between atoms: N_7  and  N_8
REMARK    6  A    between atoms: N_8  and  C_9
REMARK    7  A    between atoms: N_16  and  C_17
REMARK    8  A    between atoms: C_17  and  C_18
REMARK    9  A    between atoms: C_18  and  C_19
REMARK                            x       y       z     vdW  Elec       q    Type
REMARK                         _______ _______ _______ _____ _____    ______ ____
ROOT
ATOM      1  C   UNL     1       5.068   3.136  16.944  0.00  0.00    +0.000 C 
ATOM      2  C   UNL     1       3.990   3.481  17.670  0.00  0.00    +0.000 C 
ATOM      3  C   UNL     1       3.321   2.424  18.445  0.00  0.00    +0.000 C 
ATOM      4  O   UNL     1       3.631   1.233  18.388  0.00  0.00    +0.000 OA
ATOM      5  N   UNL     1       2.331   2.856  19.261  0.00  0.00    +0.000 N 
ATOM      6  C   UNL     1       1.889   4.138  19.433  0.00  0.00    +0.000 C 
ATOM      7  O   UNL     1       0.941   4.305  20.197  0.00  0.00    +0.000 OA
ATOM      8  N   UNL     1       2.531   5.132  18.724  0.00  0.00    +0.000 N 
ATOM      9  C   UNL     1       3.525   4.879  17.776  0.00  0.00    +0.000 C 
ATOM     10  O   UNL     1       4.005   5.750  17.049  0.00  0.00    +0.000 OA
ATOM     11  H   UNL     1       1.854   2.151  19.805  0.00  0.00    +0.000 HD
ENDROOT
BRANCH   1  12
ATOM     12  N   UNL     1       5.920   3.904  16.170  0.00  0.00    +0.000 N 
ATOM     13  H   UNL     1       6.907   3.835  16.478  0.00  0.00    +0.000 HD
BRANCH  12  16
ATOM     14  C   UNL     1       6.813   4.398  14.007  0.00  0.00    +0.000 C 
ATOM     15  O   UNL     1       7.559   5.253  14.475  0.00  0.00    +0.000 OA
ATOM     16  N   UNL     1       5.884   3.692  14.764  0.00  0.00    +0.000 N 
ATOM     17  H   UNL     1       5.627   2.755  14.465  0.00  0.00    +0.000 HD
BRANCH  14  18
ATOM     18  C   UNL     1       6.767   4.042  12.531  0.00  0.00    +0.000 C 
BRANCH  18  19
ATOM     19  C   UNL     1       5.496   3.296  12.127  0.00  0.00    +0.000 C 
BRANCH  19  21
ATOM     20  C   UNL     1       7.258   1.856  11.041  0.00  0.00    +0.000 C 
ATOM     21  C   UNL     1       5.800   1.952  11.462  0.00  0.00    +0.000 C 
ENDBRANCH  19  21
ENDBRANCH  18  19
ENDBRANCH  14  18
ENDBRANCH  12  16
ENDBRANCH   1  12
BRANCH   8  22
ATOM     22  C   UNL     1       2.025   6.514  18.757  0.00  0.00    +0.000 C 
BRANCH  22  23
ATOM     23  C   UNL     1       2.282   7.350  20.020  0.00  0.00    +0.000 C 
BRANCH  23  24
ATOM     24  C   UNL     1       1.386   8.565  20.044  0.00  0.00    +0.000 A 
ATOM     25  C   UNL     1       0.602   8.840  21.175  0.00  0.00    +0.000 A 
ATOM     26  C   UNL     1      -0.289   9.912  21.174  0.00  0.00    +0.000 A 
ATOM     27  C   UNL     1      -0.403  10.722  20.045  0.00  0.00    +0.000 A 
ATOM     28  C   UNL     1       0.388  10.470  18.925  0.00  0.00    +0.000 A 
ATOM     29  C   UNL     1       1.279   9.396  18.922  0.00  0.00    +0.000 A 
ENDBRANCH  23  24
ENDBRANCH  22  23
ENDBRANCH   8  22
TORSDOF 8
ENDMDL
MODEL 9
REMARK VINA RESULT:      -7.5      3.493      7.675
REMARK  Name = 
REMARK  9 active torsions:
REMARK  status: ('A' for Active; 'I' for Inactive)
REMARK    1  A    between atoms: C_1  and  C_2
REMARK    2  A    between atoms: C_2  and  C_3
REMARK    3  A    between atoms: C_3  and  C_4
REMARK    4  A    between atoms: C_4  and  C_5
REMARK    5  A    between atoms: N_7  and  N_8
REMARK    6  A    between atoms: N_8  and  C_9
REMARK    7  A    between atoms: N_16  and  C_17
REMARK    8  A    between atoms: C_17  and  C_18
REMARK    9  A    between atoms: C_18  and  C_19
REMARK                            x       y       z     vdW  Elec       q    Type
REMARK                         _______ _______ _______ _____ _____    ______ ____
ROOT
ATOM      1  C   UNL     1       5.287   3.465  19.392  0.00  0.00    +0.000 C 
ATOM      2  C   UNL     1       5.814   4.358  18.536  0.00  0.00    +0.000 C 
ATOM      3  C   UNL     1       6.788   5.324  19.067  0.00  0.00    +0.000 C 
ATOM      4  O   UNL     1       7.070   5.424  20.262  0.00  0.00    +0.000 OA
ATOM      5  N   UNL     1       7.386   6.102  18.135  0.00  0.00    +0.000 N 
ATOM      6  C   UNL     1       7.180   6.095  16.784  0.00  0.00    +0.000 C 
ATOM      7  O   UNL     1       7.800   6.922  16.119  0.00  0.00    +0.000 OA
ATOM      8  N   UNL     1       6.284   5.173  16.282  0.00  0.00    +0.000 N 
ATOM      9  C   UNL     1       5.513   4.334  17.089  0.00  0.00    +0.000 C 
ATOM     10  O   UNL     1       4.620   3.607  16.652  0.00  0.00    +0.000 OA
ATOM     11  H   UNL     1       8.058   6.776  18.472  0.00  0.00    +0.000 HD
ENDROOT
BRANCH   1  12
ATOM     12  N   UNL     1       4.405   2.421  19.181  0.00  0.00    +0.000 N 
ATOM     13  H   UNL     1       4.599   1.606  19.791  0.00  0.00    +0.000 HD
BRANCH  12  16
ATOM     14  C   UNL     1       2.483   2.772  20.561  0.00  0.00    +0.000 C 
ATOM     15  O   UNL     1       3.112   2.469  21.569  0.00  0.00    +0.000 OA
ATOM     16  N   UNL     1       3.017   2.719  19.277  0.00  0.00    +0.000 N 
ATOM     17  H   UNL     1       2.651   3.355  18.573  0.00  0.00    +0.000 HD
BRANCH  14  18
ATOM     18  C   UNL     1       1.021   3.186  20.577  0.00  0.00    +0.000 C 
BRANCH  18  19
ATOM     19  C   UNL     1       0.814   4.683  20.352  0.00  0.00    +0.000 C 
BRANCH  19  21
ATOM     20  C   UNL     1       2.272   6.628  19.683  0.00  0.00    +0.000 C 
ATOM     21  C   UNL     1       2.068   5.497  20.679  0.00  0.00    +0.000 C 
ENDBRANCH  19  21
ENDBRANCH  18  19
ENDBRANCH  14  18
ENDBRANCH  12  16
ENDBRANCH   1  12
BRANCH   8  22
ATOM     22  C   UNL     1       5.914   5.196  14.857  0.00  0.00    +0.000 C 
BRANCH  22  23
ATOM     23  C   UNL     1       6.889   4.575  13.845  0.00  0.00    +0.000 C 
BRANCH  23  24
ATOM     24  C   UNL     1       6.146   3.709  12.855  0.00  0.00    +0.000 A 
ATOM     25  C   UNL     1       6.812   2.666  12.195  0.00  0.00    +0.000 A 
ATOM     26  C   UNL     1       6.156   1.914  11.219  0.00  0.00    +0.000 A 
ATOM     27  C   UNL     1       4.830   2.196  10.899  0.00  0.00    +0.000 A 
ATOM     28  C   UNL     1       4.153   3.217  11.566  0.00  0.00    +0.000 A 
ATOM     29  C   UNL     1       4.808   3.971  12.541  0.00  0.00    +0.000 A 
ENDBRANCH  23  24
ENDBRANCH  22  23
ENDBRANCH   8  22
TORSDOF 8
ENDMDL
