MODEL 1
REMARK VINA RESULT:      -7.7      0.000      0.000
REMARK  Name = 
REMARK  3 active torsions:
REMARK  status: ('A' for Active; 'I' for Inactive)
REMARK    1  A    between atoms: C_1  and  C_2
REMARK    2  A    between atoms: C_5  and  S_6
REMARK    3  A    between atoms: S_6  and  C_7
REMARK                            x       y       z     vdW  Elec       q    Type
REMARK                         _______ _______ _______ _____ _____    ______ ____
ROOT
ATOM      1  C   UNL     1       4.725   5.016  18.171  0.00  0.00    +0.000 C 
ATOM      2  C   UNL     1       5.439   5.147  19.300  0.00  0.00    +0.000 C 
ATOM      3  C   UNL     1       6.910   5.167  19.254  0.00  0.00    +0.000 C 
ATOM      4  O   UNL     1       7.577   5.620  20.169  0.00  0.00    +0.000 OA
ATOM      5  C   UNL     1       7.547   4.590  17.999  0.00  0.00    +0.000 C 
ATOM      6  O   UNL     1       8.658   4.088  18.030  0.00  0.00    +0.000 OA
ATOM      7  C   UNL     1       6.761   4.699  16.761  0.00  0.00    +0.000 A 
ATOM      8  C   UNL     1       7.414   4.554  15.529  0.00  0.00    +0.000 A 
ATOM      9  C   UNL     1       6.718   4.805  14.351  0.00  0.00    +0.000 A 
ATOM     10  C   UNL     1       5.394   5.232  14.412  0.00  0.00    +0.000 A 
ATOM     11  C   UNL     1       4.742   5.341  15.647  0.00  0.00    +0.000 A 
ATOM     12  C   UNL     1       5.394   5.019  16.847  0.00  0.00    +0.000 A 
ENDROOT
BRANCH   1  13
ATOM     13  S   UNL     1       2.993   4.968  18.284  0.00  0.00    +0.000 S 
BRANCH  13  18
ATOM     14  C   UNL     1       0.615  10.331  19.908  0.00  0.00    +0.000 C 
ATOM     15  C   UNL     1       1.388   9.095  19.539  0.00  0.00    +0.000 A 
ATOM     16  C   UNL     1       1.864   8.900  18.236  0.00  0.00    +0.000 A 
ATOM     17  C   UNL     1       2.454   7.678  17.866  0.00  0.00    +0.000 A 
ATOM     18  C   UNL     1       2.567   6.634  18.791  0.00  0.00    +0.000 A 
ATOM     19  C   UNL     1       2.124   6.851  20.101  0.00  0.00    +0.000 A 
ATOM     20  C   UNL     1       1.542   8.064  20.473  0.00  0.00    +0.000 A 
ENDBRANCH  13  18
ENDBRANCH   1  13
TORSDOF 2
ENDMDL
MODEL 2
REMARK VINA RESULT:      -7.5      2.802      5.551
REMARK  Name = 
REMARK  3 active torsions:
REMARK  status: ('A' for Active; 'I' for Inactive)
REMARK    1  A    between atoms: C_1  and  C_2
REMARK    2  A    between atoms: C_5  and  S_6
REMARK    3  A    between atoms: S_6  and  C_7
REMARK                            x       y       z     vdW  Elec       q    Type
REMARK                         _______ _______ _______ _____ _____    ______ ____
ROOT
ATOM      1  C   UNL     1       3.768   3.962  17.899  0.00  0.00    +0.000 C 
ATOM      2  C   UNL     1       3.373   2.804  18.453  0.00  0.00    +0.000 C 
ATOM      3  C   UNL     1       2.452   2.801  19.601  0.00  0.00    +0.000 C 
ATOM      4  O   UNL     1       1.808   1.811  19.908  0.00  0.00    +0.000 OA
ATOM      5  C   UNL     1       2.353   4.103  20.380  0.00  0.00    +0.000 C 
ATOM      6  O   UNL     1       2.070   4.108  21.566  0.00  0.00    +0.000 OA
ATOM      7  C   UNL     1       2.589   5.339  19.617  0.00  0.00    +0.000 A 
ATOM      8  C   UNL     1       2.145   6.557  20.148  0.00  0.00    +0.000 A 
ATOM      9  C   UNL     1       2.224   7.711  19.373  0.00  0.00    +0.000 A 
ATOM     10  C   UNL     1       2.707   7.632  18.070  0.00  0.00    +0.000 A 
ATOM     11  C   UNL     1       3.179   6.415  17.562  0.00  0.00    +0.000 A 
ATOM     12  C   UNL     1       3.186   5.251  18.347  0.00  0.00    +0.000 A 
ENDROOT
BRANCH   1  13
ATOM     13  S   UNL     1       4.878   3.910  16.566  0.00  0.00    +0.000 S 
BRANCH  13  18
ATOM     14  C   UNL     1       8.542   8.245  18.767  0.00  0.00    +0.000 C 
ATOM     15  C   UNL     1       7.805   7.104  18.122  0.00  0.00    +0.000 A 
ATOM     16  C   UNL     1       7.258   7.227  16.838  0.00  0.00    +0.000 A 
ATOM     17  C   UNL     1       6.445   6.210  16.306  0.00  0.00    +0.000 A 
ATOM     18  C   UNL     1       6.163   5.061  17.055  0.00  0.00    +0.000 A 
ATOM     19  C   UNL     1       6.745   4.928  18.321  0.00  0.00    +0.000 A 
ATOM     20  C   UNL     1       7.556   5.935  18.850  0.00  0.00    +0.000 A 
ENDBRANCH  13  18
ENDBRANCH   1  13
TORSDOF 2
ENDMDL
MODEL 3
REMARK VINA RESULT:      -7.4      2.422      6.154
REMARK  Name = 
REMARK  3 active torsions:
REMARK  status: ('A' for Active; 'I' for Inactive)
REMARK    1  A    between atoms: C_1  and  C_2
REMARK    2  A    between atoms: C_5  and  S_6
REMARK    3  A    between atoms: S_6  and  C_7
REMARK                            x       y       z     vdW  Elec       q    Type
REMARK                         _______ _______ _______ _____ _____    ______ ____
ROOT
ATOM      1  C   UNL     1       5.181   4.858  18.672  0.00  0.00    +0.000 C 
ATOM      2  C   UNL     1       4.893   3.674  19.236  0.00  0.00    +0.000 C 
ATOM      3  C   UNL     1       3.588   3.451  19.879  0.00  0.00    +0.000 C 
ATOM      4  O   UNL     1       3.156   2.330  20.087  0.00  0.00    +0.000 OA
ATOM      5  C   UNL     1       2.813   4.701  20.267  0.00  0.00    +0.000 C 
ATOM      6  O   UNL     1       2.033   4.693  21.204  0.00  0.00    +0.000 OA
ATOM      7  C   UNL     1       3.041   5.893  19.436  0.00  0.00    +0.000 A 
ATOM      8  C   UNL     1       2.106   6.937  19.478  0.00  0.00    +0.000 A 
ATOM      9  C   UNL     1       2.226   8.000  18.588  0.00  0.00    +0.000 A 
ATOM     10  C   UNL     1       3.250   7.995  17.645  0.00  0.00    +0.000 A 
ATOM     11  C   UNL     1       4.197   6.964  17.634  0.00  0.00    +0.000 A 
ATOM     12  C   UNL     1       4.149   5.919  18.570  0.00  0.00    +0.000 A 
ENDROOT
BRANCH   1  13
ATOM     13  S   UNL     1       6.747   5.079  17.954  0.00  0.00    +0.000 S 
BRANCH  13  18
ATOM     14  C   UNL     1       6.130   3.321  12.159  0.00  0.00    +0.000 C 
ATOM     15  C   UNL     1       6.185   3.930  13.532  0.00  0.00    +0.000 A 
ATOM     16  C   UNL     1       7.224   4.795  13.901  0.00  0.00    +0.000 A 
ATOM     17  C   UNL     1       7.348   5.239  15.229  0.00  0.00    +0.000 A 
ATOM     18  C   UNL     1       6.439   4.818  16.207  0.00  0.00    +0.000 A 
ATOM     19  C   UNL     1       5.382   3.986  15.823  0.00  0.00    +0.000 A 
ATOM     20  C   UNL     1       5.254   3.546  14.504  0.00  0.00    +0.000 A 
ENDBRANCH  13  18
ENDBRANCH   1  13
TORSDOF 2
ENDMDL
MODEL 4
REMARK VINA RESULT:      -7.3      0.890      1.493
REMARK  Name = 
REMARK  3 active torsions:
REMARK  status: ('A' for Active; 'I' for Inactive)
REMARK    1  A    between atoms: C_1  and  C_2
REMARK    2  A    between atoms: C_5  and  S_6
REMARK    3  A    between atoms: S_6  and  C_7
REMARK                            x       y       z     vdW  Elec       q    Type
REMARK                         _______ _______ _______ _____ _____    ______ ____
ROOT
ATOM      1  C   UNL     1       4.608   4.362  17.952  0.00  0.00    +0.000 C 
ATOM      2  C   UNL     1       5.255   4.631  19.097  0.00  0.00    +0.000 C 
ATOM      3  C   UNL     1       6.696   4.934  19.087  0.00  0.00    +0.000 C 
ATOM      4  O   UNL     1       7.240   5.508  20.015  0.00  0.00    +0.000 OA
ATOM      5  C   UNL     1       7.463   4.489  17.851  0.00  0.00    +0.000 C 
ATOM      6  O   UNL     1       8.648   4.211  17.911  0.00  0.00    +0.000 OA
ATOM      7  C   UNL     1       6.700   4.444  16.593  0.00  0.00    +0.000 A 
ATOM      8  C   UNL     1       7.400   4.426  15.379  0.00  0.00    +0.000 A 
ATOM      9  C   UNL     1       6.697   4.536  14.182  0.00  0.00    +0.000 A 
ATOM     10  C   UNL     1       5.315   4.700  14.209  0.00  0.00    +0.000 A 
ATOM     11  C   UNL     1       4.624   4.683  15.427  0.00  0.00    +0.000 A 
ATOM     12  C   UNL     1       5.296   4.494  16.645  0.00  0.00    +0.000 A 
ENDROOT
BRANCH   1  13
ATOM     13  S   UNL     1       2.915   3.981  18.024  0.00  0.00    +0.000 S 
BRANCH  13  18
ATOM     14  C   UNL     1       1.459   8.863  21.356  0.00  0.00    +0.000 C 
ATOM     15  C   UNL     1       1.617   7.651  20.481  0.00  0.00    +0.000 A 
ATOM     16  C   UNL     1       1.382   6.362  20.977  0.00  0.00    +0.000 A 
ATOM     17  C   UNL     1       1.677   5.230  20.196  0.00  0.00    +0.000 A 
ATOM     18  C   UNL     1       2.216   5.373  18.913  0.00  0.00    +0.000 A 
ATOM     19  C   UNL     1       2.411   6.664  18.409  0.00  0.00    +0.000 A 
ATOM     20  C   UNL     1       2.116   7.790  19.181  0.00  0.00    +0.000 A 
ENDBRANCH  13  18
ENDBRANCH   1  13
TORSDOF 2
ENDMDL
MODEL 5
REMARK VINA RESULT:      -7.3      2.284      3.528
REMARK  Name = 
REMARK  3 active torsions:
REMARK  status: ('A' for Active; 'I' for Inactive)
REMARK    1  A    between atoms: C_1  and  C_2
REMARK    2  A    between atoms: C_5  and  S_6
REMARK    3  A    between atoms: S_6  and  C_7
REMARK                            x       y       z     vdW  Elec       q    Type
REMARK                         _______ _______ _______ _____ _____    ______ ____
ROOT
ATOM      1  C   UNL     1       3.658   5.872  17.992  0.00  0.00    +0.000 C 
ATOM      2  C   UNL     1       4.993   5.806  18.119  0.00  0.00    +0.000 C 
ATOM      3  C   UNL     1       5.637   4.571  18.594  0.00  0.00    +0.000 C 
ATOM      4  O   UNL     1       6.820   4.345  18.401  0.00  0.00    +0.000 OA
ATOM      5  C   UNL     1       4.740   3.594  19.340  0.00  0.00    +0.000 C 
ATOM      6  O   UNL     1       5.194   2.843  20.187  0.00  0.00    +0.000 OA
ATOM      7  C   UNL     1       3.319   3.596  18.961  0.00  0.00    +0.000 A 
ATOM      8  C   UNL     1       2.525   2.493  19.306  0.00  0.00    +0.000 A 
ATOM      9  C   UNL     1       1.222   2.410  18.824  0.00  0.00    +0.000 A 
ATOM     10  C   UNL     1       0.738   3.403  17.978  0.00  0.00    +0.000 A 
ATOM     11  C   UNL     1       1.528   4.517  17.667  0.00  0.00    +0.000 A 
ATOM     12  C   UNL     1       2.817   4.668  18.202  0.00  0.00    +0.000 A 
ENDROOT
BRANCH   1  13
ATOM     13  S   UNL     1       2.947   7.362  17.456  0.00  0.00    +0.000 S 
BRANCH  13  18
ATOM     14  C   UNL     1      -0.386   9.024  22.272  0.00  0.00    +0.000 C 
ATOM     15  C   UNL     1       0.584   8.739  21.159  0.00  0.00    +0.000 A 
ATOM     16  C   UNL     1       0.664   9.571  20.035  0.00  0.00    +0.000 A 
ATOM     17  C   UNL     1       1.466   9.214  18.936  0.00  0.00    +0.000 A 
ATOM     18  C   UNL     1       2.191   8.017  18.945  0.00  0.00    +0.000 A 
ATOM     19  C   UNL     1       2.137   7.211  20.087  0.00  0.00    +0.000 A 
ATOM     20  C   UNL     1       1.345   7.564  21.182  0.00  0.00    +0.000 A 
ENDBRANCH  13  18
ENDBRANCH   1  13
TORSDOF 2
ENDMDL
MODEL 6
REMARK VINA RESULT:      -7.3      1.864      2.821
REMARK  Name = 
REMARK  3 active torsions:
REMARK  status: ('A' for Active; 'I' for Inactive)
REMARK    1  A    between atoms: C_1  and  C_2
REMARK    2  A    between atoms: C_5  and  S_6
REMARK    3  A    between atoms: S_6  and  C_7
REMARK                            x       y       z     vdW  Elec       q    Type
REMARK                         _______ _______ _______ _____ _____    ______ ____
ROOT
ATOM      1  C   UNL     1       5.138   6.284  17.519  0.00  0.00    +0.000 C 
ATOM      2  C   UNL     1       6.016   6.543  18.501  0.00  0.00    +0.000 C 
ATOM      3  C   UNL     1       7.373   5.972  18.460  0.00  0.00    +0.000 C 
ATOM      4  O   UNL     1       8.288   6.440  19.116  0.00  0.00    +0.000 OA
ATOM      5  C   UNL     1       7.562   4.767  17.552  0.00  0.00    +0.000 C 
ATOM      6  O   UNL     1       8.412   3.926  17.790  0.00  0.00    +0.000 OA
ATOM      7  C   UNL     1       6.687   4.697  16.371  0.00  0.00    +0.000 A 
ATOM      8  C   UNL     1       7.050   3.858  15.309  0.00  0.00    +0.000 A 
ATOM      9  C   UNL     1       6.317   3.895  14.126  0.00  0.00    +0.000 A 
ATOM     10  C   UNL     1       5.259   4.791  14.000  0.00  0.00    +0.000 A 
ATOM     11  C   UNL     1       4.885   5.601  15.080  0.00  0.00    +0.000 A 
ATOM     12  C   UNL     1       5.555   5.529  16.312  0.00  0.00    +0.000 A 
ENDROOT
BRANCH   1  13
ATOM     13  S   UNL     1       3.542   6.958  17.631  0.00  0.00    +0.000 S 
BRANCH  13  18
ATOM     14  C   UNL     1       1.392   2.704  21.418  0.00  0.00    +0.000 C 
ATOM     15  C   UNL     1       1.728   3.769  20.411  0.00  0.00    +0.000 A 
ATOM     16  C   UNL     1       2.041   3.441  19.086  0.00  0.00    +0.000 A 
ATOM     17  C   UNL     1       2.498   4.427  18.193  0.00  0.00    +0.000 A 
ATOM     18  C   UNL     1       2.654   5.751  18.618  0.00  0.00    +0.000 A 
ATOM     19  C   UNL     1       2.302   6.079  19.932  0.00  0.00    +0.000 A 
ATOM     20  C   UNL     1       1.845   5.103  20.819  0.00  0.00    +0.000 A 
ENDBRANCH  13  18
ENDBRANCH   1  13
TORSDOF 2
ENDMDL
MODEL 7
REMARK VINA RESULT:      -7.2      2.570      6.301
REMARK  Name = 
REMARK  3 active torsions:
REMARK  status: ('A' for Active; 'I' for Inactive)
REMARK    1  A    between atoms: C_1  and  C_2
REMARK    2  A    between atoms: C_5  and  S_6
REMARK    3  A    between atoms: S_6  and  C_7
REMARK                            x       y       z     vdW  Elec       q    Type
REMARK                         _______ _______ _______ _____ _____    ______ ____
ROOT
ATOM      1  C   UNL     1       4.838   4.614  18.947  0.00  0.00    +0.000 C 
ATOM      2  C   UNL     1       4.880   3.276  18.845  0.00  0.00    +0.000 C 
ATOM      3  C   UNL     1       3.770   2.453  19.352  0.00  0.00    +0.000 C 
ATOM      4  O   UNL     1       3.599   1.304  18.983  0.00  0.00    +0.000 OA
ATOM      5  C   UNL     1       2.851   3.122  20.363  0.00  0.00    +0.000 C 
ATOM      6  O   UNL     1       2.258   2.469  21.205  0.00  0.00    +0.000 OA
ATOM      7  C   UNL     1       2.704   4.582  20.243  0.00  0.00    +0.000 A 
ATOM      8  C   UNL     1       1.610   5.204  20.860  0.00  0.00    +0.000 A 
ATOM      9  C   UNL     1       1.373   6.556  20.630  0.00  0.00    +0.000 A 
ATOM     10  C   UNL     1       2.201   7.262  19.762  0.00  0.00    +0.000 A 
ATOM     11  C   UNL     1       3.310   6.637  19.178  0.00  0.00    +0.000 A 
ATOM     12  C   UNL     1       3.621   5.296  19.453  0.00  0.00    +0.000 A 
ENDROOT
BRANCH   1  13
ATOM     13  S   UNL     1       6.187   5.536  18.360  0.00  0.00    +0.000 S 
BRANCH  13  18
ATOM     14  C   UNL     1       6.139   3.544  12.608  0.00  0.00    +0.000 C 
ATOM     15  C   UNL     1       6.137   4.227  13.947  0.00  0.00    +0.000 A 
ATOM     16  C   UNL     1       7.321   4.712  14.516  0.00  0.00    +0.000 A 
ATOM     17  C   UNL     1       7.331   5.214  15.830  0.00  0.00    +0.000 A 
ATOM     18  C   UNL     1       6.158   5.229  16.593  0.00  0.00    +0.000 A 
ATOM     19  C   UNL     1       4.971   4.779  16.004  0.00  0.00    +0.000 A 
ATOM     20  C   UNL     1       4.957   4.284  14.698  0.00  0.00    +0.000 A 
ENDBRANCH  13  18
ENDBRANCH   1  13
TORSDOF 2
ENDMDL
MODEL 8
REMARK VINA RESULT:      -7.2      2.195      3.535
REMARK  Name = 
REMARK  3 active torsions:
REMARK  status: ('A' for Active; 'I' for Inactive)
REMARK    1  A    between atoms: C_1  and  C_2
REMARK    2  A    between atoms: C_5  and  S_6
REMARK    3  A    between atoms: S_6  and  C_7
REMARK                            x       y       z     vdW  Elec       q    Type
REMARK                         _______ _______ _______ _____ _____    ______ ____
ROOT
ATOM      1  C   UNL     1       3.867   5.999  18.021  0.00  0.00    +0.000 C 
ATOM      2  C   UNL     1       5.194   5.871  18.184  0.00  0.00    +0.000 C 
ATOM      3  C   UNL     1       5.772   4.593  18.628  0.00  0.00    +0.000 C 
ATOM      4  O   UNL     1       6.950   4.326  18.460  0.00  0.00    +0.000 OA
ATOM      5  C   UNL     1       4.814   3.627  19.308  0.00  0.00    +0.000 C 
ATOM      6  O   UNL     1       5.209   2.825  20.137  0.00  0.00    +0.000 OA
ATOM      7  C   UNL     1       3.405   3.704  18.888  0.00  0.00    +0.000 A 
ATOM      8  C   UNL     1       2.557   2.623  19.166  0.00  0.00    +0.000 A 
ATOM      9  C   UNL     1       1.267   2.614  18.644  0.00  0.00    +0.000 A 
ATOM     10  C   UNL     1       0.850   3.658  17.824  0.00  0.00    +0.000 A 
ATOM     11  C   UNL     1       1.695   4.748  17.581  0.00  0.00    +0.000 A 
ATOM     12  C   UNL     1       2.972   4.824  18.158  0.00  0.00    +0.000 A 
ENDROOT
BRANCH   1  13
ATOM     13  S   UNL     1       3.234   7.538  17.525  0.00  0.00    +0.000 S 
BRANCH  13  18
ATOM     14  C   UNL     1       0.165   9.669  22.330  0.00  0.00    +0.000 C 
ATOM     15  C   UNL     1       0.758   9.020  21.111  0.00  0.00    +0.000 A 
ATOM     16  C   UNL     1       1.456   7.809  21.199  0.00  0.00    +0.000 A 
ATOM     17  C   UNL     1       2.133   7.289  20.081  0.00  0.00    +0.000 A 
ATOM     18  C   UNL     1       2.124   7.978  18.863  0.00  0.00    +0.000 A 
ATOM     19  C   UNL     1       1.392   9.167  18.771  0.00  0.00    +0.000 A 
ATOM     20  C   UNL     1       0.716   9.684  19.879  0.00  0.00    +0.000 A 
ENDBRANCH  13  18
ENDBRANCH   1  13
TORSDOF 2
ENDMDL
MODEL 9
REMARK VINA RESULT:      -7.2      2.120      3.371
REMARK  Name = 
REMARK  3 active torsions:
REMARK  status: ('A' for Active; 'I' for Inactive)
REMARK    1  A    between atoms: C_1  and  C_2
REMARK    2  A    between atoms: C_5  and  S_6
REMARK    3  A    between atoms: S_6  and  C_7
REMARK                            x       y       z     vdW  Elec       q    Type
REMARK                         _______ _______ _______ _____ _____    ______ ____
ROOT
ATOM      1  C   UNL     1       3.389   6.737  17.787  0.00  0.00    +0.000 C 
ATOM      2  C   UNL     1       4.677   7.079  17.620  0.00  0.00    +0.000 C 
ATOM      3  C   UNL     1       5.748   6.102  17.879  0.00  0.00    +0.000 C 
ATOM      4  O   UNL     1       6.870   6.241  17.423  0.00  0.00    +0.000 OA
ATOM      5  C   UNL     1       5.370   4.912  18.746  0.00  0.00    +0.000 C 
ATOM      6  O   UNL     1       6.202   4.344  19.434  0.00  0.00    +0.000 OA
ATOM      7  C   UNL     1       3.965   4.479  18.683  0.00  0.00    +0.000 A 
ATOM      8  C   UNL     1       3.632   3.193  19.131  0.00  0.00    +0.000 A 
ATOM      9  C   UNL     1       2.340   2.715  18.937  0.00  0.00    +0.000 A 
ATOM     10  C   UNL     1       1.407   3.503  18.269  0.00  0.00    +0.000 A 
ATOM     11  C   UNL     1       1.742   4.799  17.856  0.00  0.00    +0.000 A 
ATOM     12  C   UNL     1       3.013   5.339  18.108  0.00  0.00    +0.000 A 
ENDROOT
BRANCH   1  13
ATOM     13  S   UNL     1       2.167   7.936  17.497  0.00  0.00    +0.000 S 
BRANCH  13  18
ATOM     14  C   UNL     1      -0.017   9.464  22.970  0.00  0.00    +0.000 C 
ATOM     15  C   UNL     1       0.692   9.195  21.672  0.00  0.00    +0.000 A 
ATOM     16  C   UNL     1       0.626  10.102  20.607  0.00  0.00    +0.000 A 
ATOM     17  C   UNL     1       1.166   9.773  19.351  0.00  0.00    +0.000 A 
ATOM     18  C   UNL     1       1.773   8.529  19.143  0.00  0.00    +0.000 A 
ATOM     19  C   UNL     1       1.871   7.643  20.223  0.00  0.00    +0.000 A 
ATOM     20  C   UNL     1       1.338   7.969  21.472  0.00  0.00    +0.000 A 
ENDBRANCH  13  18
ENDBRANCH   1  13
TORSDOF 2
ENDMDL
