MODEL 1
REMARK VINA RESULT:      -7.5      0.000      0.000
REMARK  Name = 
REMARK  8 active torsions:
REMARK  status: ('A' for Active; 'I' for Inactive)
REMARK    1  A    between atoms: C_1  and  C_2
REMARK    2  A    between atoms: C_2  and  O_3
REMARK    3  A    between atoms: O_3  and  C_4
REMARK    4  A    between atoms: C_4  and  C_6
REMARK    5  A    between atoms: C_6  and  N_7
REMARK    6  A    between atoms: C_6  and  C_19
REMARK    7  A    between atoms: N_10  and  C_11
REMARK    8  A    between atoms: C_11  and  C_12
REMARK                            x       y       z     vdW  Elec       q    Type
REMARK                         _______ _______ _______ _____ _____    ______ ____
ROOT
ATOM      1  N   UNL     1       6.109   3.473  14.096  0.00  0.00    +0.000 N 
ATOM      2  C   UNL     1       5.678   4.195  15.166  0.00  0.00    +0.000 C 
ATOM      3  O   UNL     1       5.104   5.272  15.040  0.00  0.00    +0.000 OA
ATOM      4  N   UNL     1       5.868   3.566  16.361  0.00  0.00    +0.000 N 
ATOM      5  H   UNL     1       6.811   2.760  14.236  0.00  0.00    +0.000 HD
ATOM      6  H   UNL     1       6.455   2.748  16.409  0.00  0.00    +0.000 HD
ENDROOT
BRANCH   1   7
ATOM      7  C   UNL     1       5.971   4.030  12.727  0.00  0.00    +0.000 C 
BRANCH   7   8
ATOM      8  C   UNL     1       7.286   4.262  11.984  0.00  0.00    +0.000 C 
ATOM      9  F   UNL     1       8.182   4.984  12.700  0.00  0.00    +0.000 F 
ATOM     10  F   UNL     1       7.893   3.093  11.673  0.00  0.00    +0.000 F 
ATOM     11  F   UNL     1       7.097   4.938  10.824  0.00  0.00    +0.000 F 
ENDBRANCH   7   8
BRANCH   7  12
ATOM     12  C   UNL     1       5.157   3.077  11.886  0.00  0.00    +0.000 C 
ATOM     13  O   UNL     1       5.550   1.969  11.535  0.00  0.00    +0.000 OA
BRANCH  12  14
ATOM     14  O   UNL     1       3.949   3.622  11.561  0.00  0.00    +0.000 OA
BRANCH  14  16
ATOM     15  C   UNL     1       2.864   4.252   9.487  0.00  0.00    +0.000 C 
ATOM     16  C   UNL     1       3.330   3.107  10.369  0.00  0.00    +0.000 C 
ENDBRANCH  14  16
ENDBRANCH  12  14
ENDBRANCH   7  12
ENDBRANCH   1   7
BRANCH   4  17
ATOM     17  C   UNL     1       5.374   4.133  17.600  0.00  0.00    +0.000 C 
BRANCH  17  18
ATOM     18  C   UNL     1       3.976   3.666  17.925  0.00  0.00    +0.000 A 
ATOM     19  C   UNL     1       3.768   2.380  18.454  0.00  0.00    +0.000 A 
ATOM     20  C   UNL     1       2.476   1.925  18.727  0.00  0.00    +0.000 A 
ATOM     21  C   UNL     1       1.392   2.755  18.472  0.00  0.00    +0.000 A 
ATOM     22  F   UNL     1       0.151   2.314  18.720  0.00  0.00    +0.000 F 
ATOM     23  C   UNL     1       1.575   4.035  17.962  0.00  0.00    +0.000 A 
ATOM     24  C   UNL     1       2.867   4.492  17.687  0.00  0.00    +0.000 A 
ENDBRANCH  17  18
ENDBRANCH   4  17
TORSDOF 7
ENDMDL
MODEL 2
REMARK VINA RESULT:      -7.5      0.095      1.304
REMARK  Name = 
REMARK  8 active torsions:
REMARK  status: ('A' for Active; 'I' for Inactive)
REMARK    1  A    between atoms: C_1  and  C_2
REMARK    2  A    between atoms: C_2  and  O_3
REMARK    3  A    between atoms: O_3  and  C_4
REMARK    4  A    between atoms: C_4  and  C_6
REMARK    5  A    between atoms: C_6  and  N_7
REMARK    6  A    between atoms: C_6  and  C_19
REMARK    7  A    between atoms: N_10  and  C_11
REMARK    8  A    between atoms: C_11  and  C_12
REMARK                            x       y       z     vdW  Elec       q    Type
REMARK                         _______ _______ _______ _____ _____    ______ ____
ROOT
ATOM      1  N   UNL     1       6.090   3.448  14.082  0.00  0.00    +0.000 N 
ATOM      2  C   UNL     1       5.682   4.156  15.170  0.00  0.00    +0.000 C 
ATOM      3  O   UNL     1       5.130   5.248  15.070  0.00  0.00    +0.000 OA
ATOM      4  N   UNL     1       5.866   3.499  16.350  0.00  0.00    +0.000 N 
ATOM      5  H   UNL     1       6.778   2.717  14.202  0.00  0.00    +0.000 HD
ATOM      6  H   UNL     1       6.437   2.668  16.377  0.00  0.00    +0.000 HD
ENDROOT
BRANCH   1   7
ATOM      7  C   UNL     1       5.954   4.035  12.725  0.00  0.00    +0.000 C 
BRANCH   7   8
ATOM      8  C   UNL     1       7.271   4.287  11.991  0.00  0.00    +0.000 C 
ATOM      9  F   UNL     1       7.117   5.009  10.855  0.00  0.00    +0.000 F 
ATOM     10  F   UNL     1       8.147   4.969  12.766  0.00  0.00    +0.000 F 
ATOM     11  F   UNL     1       7.873   3.129  11.626  0.00  0.00    +0.000 F 
ENDBRANCH   7   8
BRANCH   7  12
ATOM     12  C   UNL     1       5.145   3.101  11.861  0.00  0.00    +0.000 C 
ATOM     13  O   UNL     1       5.522   1.984  11.522  0.00  0.00    +0.000 OA
BRANCH  12  14
ATOM     14  O   UNL     1       3.959   3.673  11.500  0.00  0.00    +0.000 OA
BRANCH  14  16
ATOM     15  C   UNL     1       2.817   4.321   9.463  0.00  0.00    +0.000 C 
ATOM     16  C   UNL     1       3.366   3.172  10.289  0.00  0.00    +0.000 C 
ENDBRANCH  14  16
ENDBRANCH  12  14
ENDBRANCH   7  12
ENDBRANCH   1   7
BRANCH   4  17
ATOM     17  C   UNL     1       5.393   4.051  17.604  0.00  0.00    +0.000 C 
BRANCH  17  18
ATOM     18  C   UNL     1       3.996   3.589  17.940  0.00  0.00    +0.000 A 
ATOM     19  C   UNL     1       2.894   4.416  17.666  0.00  0.00    +0.000 A 
ATOM     20  C   UNL     1       1.600   4.013  18.003  0.00  0.00    +0.000 A 
ATOM     21  C   UNL     1       1.408   2.781  18.615  0.00  0.00    +0.000 A 
ATOM     22  F   UNL     1       0.169   2.398  18.953  0.00  0.00    +0.000 F 
ATOM     23  C   UNL     1       2.482   1.940  18.884  0.00  0.00    +0.000 A 
ATOM     24  C   UNL     1       3.777   2.343  18.548  0.00  0.00    +0.000 A 
ENDBRANCH  17  18
ENDBRANCH   4  17
TORSDOF 7
ENDMDL
MODEL 3
REMARK VINA RESULT:      -7.4      6.584      8.608
REMARK  Name = 
REMARK  8 active torsions:
REMARK  status: ('A' for Active; 'I' for Inactive)
REMARK    1  A    between atoms: C_1  and  C_2
REMARK    2  A    between atoms: C_2  and  O_3
REMARK    3  A    between atoms: O_3  and  C_4
REMARK    4  A    between atoms: C_4  and  C_6
REMARK    5  A    between atoms: C_6  and  N_7
REMARK    6  A    between atoms: C_6  and  C_19
REMARK    7  A    between atoms: N_10  and  C_11
REMARK    8  A    between atoms: C_11  and  C_12
REMARK                            x       y       z     vdW  Elec       q    Type
REMARK                         _______ _______ _______ _____ _____    ______ ____
ROOT
ATOM      1  N   UNL     1       6.879   7.563  17.047  0.00  0.00    +0.000 N 
ATOM      2  C   UNL     1       7.786   7.943  17.988  0.00  0.00    +0.000 C 
ATOM      3  O   UNL     1       8.238   7.157  18.815  0.00  0.00    +0.000 OA
ATOM      4  N   UNL     1       8.196   9.237  17.860  0.00  0.00    +0.000 N 
ATOM      5  H   UNL     1       6.325   8.272  16.585  0.00  0.00    +0.000 HD
ATOM      6  H   UNL     1       7.697   9.863  17.247  0.00  0.00    +0.000 HD
ENDROOT
BRANCH   1   7
ATOM      7  C   UNL     1       6.337   6.181  17.059  0.00  0.00    +0.000 C 
BRANCH   7   8
ATOM      8  C   UNL     1       4.872   6.053  16.643  0.00  0.00    +0.000 C 
ATOM      9  F   UNL     1       4.549   6.836  15.585  0.00  0.00    +0.000 F 
ATOM     10  F   UNL     1       4.567   4.782  16.292  0.00  0.00    +0.000 F 
ATOM     11  F   UNL     1       4.031   6.407  17.646  0.00  0.00    +0.000 F 
ENDBRANCH   7   8
BRANCH   7  12
ATOM     12  C   UNL     1       7.138   5.329  16.106  0.00  0.00    +0.000 C 
ATOM     13  O   UNL     1       7.881   4.420  16.461  0.00  0.00    +0.000 OA
BRANCH  12  14
ATOM     14  O   UNL     1       6.936   5.720  14.814  0.00  0.00    +0.000 OA
BRANCH  14  16
ATOM     15  C   UNL     1       6.013   3.886  13.525  0.00  0.00    +0.000 C 
ATOM     16  C   UNL     1       7.238   4.738  13.808  0.00  0.00    +0.000 C 
ENDBRANCH  14  16
ENDBRANCH  12  14
ENDBRANCH   7  12
ENDBRANCH   1   7
BRANCH   4  17
ATOM     17  C   UNL     1       9.238   9.785  18.705  0.00  0.00    +0.000 C 
BRANCH  17  18
ATOM     18  C   UNL     1       9.715  11.133  18.221  0.00  0.00    +0.000 A 
ATOM     19  C   UNL     1      11.084  11.361  18.002  0.00  0.00    +0.000 A 
ATOM     20  C   UNL     1      11.540  12.613  17.587  0.00  0.00    +0.000 A 
ATOM     21  C   UNL     1      10.625  13.640  17.389  0.00  0.00    +0.000 A 
ATOM     22  F   UNL     1      11.062  14.847  17.005  0.00  0.00    +0.000 F 
ATOM     23  C   UNL     1       9.265  13.435  17.586  0.00  0.00    +0.000 A 
ATOM     24  C   UNL     1       8.808  12.182  18.004  0.00  0.00    +0.000 A 
ENDBRANCH  17  18
ENDBRANCH   4  17
TORSDOF 7
ENDMDL
MODEL 4
REMARK VINA RESULT:      -7.4      3.442      4.934
REMARK  Name = 
REMARK  8 active torsions:
REMARK  status: ('A' for Active; 'I' for Inactive)
REMARK    1  A    between atoms: C_1  and  C_2
REMARK    2  A    between atoms: C_2  and  O_3
REMARK    3  A    between atoms: O_3  and  C_4
REMARK    4  A    between atoms: C_4  and  C_6
REMARK    5  A    between atoms: C_6  and  N_7
REMARK    6  A    between atoms: C_6  and  C_19
REMARK    7  A    between atoms: N_10  and  C_11
REMARK    8  A    between atoms: C_11  and  C_12
REMARK                            x       y       z     vdW  Elec       q    Type
REMARK                         _______ _______ _______ _____ _____    ______ ____
ROOT
ATOM      1  N   UNL     1       5.166   5.304  17.026  0.00  0.00    +0.000 N 
ATOM      2  C   UNL     1       3.922   4.777  17.186  0.00  0.00    +0.000 C 
ATOM      3  O   UNL     1       3.683   3.591  16.982  0.00  0.00    +0.000 OA
ATOM      4  N   UNL     1       3.011   5.667  17.672  0.00  0.00    +0.000 N 
ATOM      5  H   UNL     1       5.266   6.305  16.921  0.00  0.00    +0.000 HD
ATOM      6  H   UNL     1       3.234   6.650  17.697  0.00  0.00    +0.000 HD
ENDROOT
BRANCH   1   7
ATOM      7  C   UNL     1       6.265   4.455  16.502  0.00  0.00    +0.000 C 
BRANCH   7   8
ATOM      8  C   UNL     1       6.463   4.509  14.987  0.00  0.00    +0.000 C 
ATOM      9  F   UNL     1       5.779   5.519  14.396  0.00  0.00    +0.000 F 
ATOM     10  F   UNL     1       7.766   4.684  14.664  0.00  0.00    +0.000 F 
ATOM     11  F   UNL     1       6.048   3.368  14.384  0.00  0.00    +0.000 F 
ENDBRANCH   7   8
BRANCH   7  12
ATOM     12  C   UNL     1       7.567   4.890  17.128  0.00  0.00    +0.000 C 
ATOM     13  O   UNL     1       8.334   4.130  17.710  0.00  0.00    +0.000 OA
BRANCH  12  14
ATOM     14  O   UNL     1       7.758   6.233  16.974  0.00  0.00    +0.000 OA
BRANCH  14  16
ATOM     15  C   UNL     1       8.004   8.470  17.874  0.00  0.00    +0.000 C 
ATOM     16  C   UNL     1       7.899   6.989  18.190  0.00  0.00    +0.000 C 
ENDBRANCH  14  16
ENDBRANCH  12  14
ENDBRANCH   7  12
ENDBRANCH   1   7
BRANCH   4  17
ATOM     17  C   UNL     1       1.662   5.259  18.009  0.00  0.00    +0.000 C 
BRANCH  17  18
ATOM     18  C   UNL     1       1.625   4.343  19.208  0.00  0.00    +0.000 A 
ATOM     19  C   UNL     1       1.040   3.070  19.106  0.00  0.00    +0.000 A 
ATOM     20  C   UNL     1       0.971   2.228  20.218  0.00  0.00    +0.000 A 
ATOM     21  C   UNL     1       1.487   2.659  21.433  0.00  0.00    +0.000 A 
ATOM     22  F   UNL     1       1.408   1.858  22.505  0.00  0.00    +0.000 F 
ATOM     23  C   UNL     1       2.082   3.909  21.554  0.00  0.00    +0.000 A 
ATOM     24  C   UNL     1       2.151   4.754  20.443  0.00  0.00    +0.000 A 
ENDBRANCH  17  18
ENDBRANCH   4  17
TORSDOF 7
ENDMDL
MODEL 5
REMARK VINA RESULT:      -7.2      6.560      8.564
REMARK  Name = 
REMARK  8 active torsions:
REMARK  status: ('A' for Active; 'I' for Inactive)
REMARK    1  A    between atoms: C_1  and  C_2
REMARK    2  A    between atoms: C_2  and  O_3
REMARK    3  A    between atoms: O_3  and  C_4
REMARK    4  A    between atoms: C_4  and  C_6
REMARK    5  A    between atoms: C_6  and  N_7
REMARK    6  A    between atoms: C_6  and  C_19
REMARK    7  A    between atoms: N_10  and  C_11
REMARK    8  A    between atoms: C_11  and  C_12
REMARK                            x       y       z     vdW  Elec       q    Type
REMARK                         _______ _______ _______ _____ _____    ______ ____
ROOT
ATOM      1  N   UNL     1       6.906   7.534  17.049  0.00  0.00    +0.000 N 
ATOM      2  C   UNL     1       7.785   7.841  18.042  0.00  0.00    +0.000 C 
ATOM      3  O   UNL     1       8.164   7.007  18.859  0.00  0.00    +0.000 OA
ATOM      4  N   UNL     1       8.256   9.118  17.979  0.00  0.00    +0.000 N 
ATOM      5  H   UNL     1       6.405   8.283  16.589  0.00  0.00    +0.000 HD
ATOM      6  H   UNL     1       7.813   9.787  17.367  0.00  0.00    +0.000 HD
ENDROOT
BRANCH   1   7
ATOM      7  C   UNL     1       6.305   6.179  16.988  0.00  0.00    +0.000 C 
BRANCH   7   8
ATOM      8  C   UNL     1       4.866   6.128  16.475  0.00  0.00    +0.000 C 
ATOM      9  F   UNL     1       4.457   4.874  16.160  0.00  0.00    +0.000 F 
ATOM     10  F   UNL     1       3.994   6.598  17.397  0.00  0.00    +0.000 F 
ATOM     11  F   UNL     1       4.705   6.871  15.352  0.00  0.00    +0.000 F 
ENDBRANCH   7   8
BRANCH   7  12
ATOM     12  C   UNL     1       7.128   5.315  16.066  0.00  0.00    +0.000 C 
ATOM     13  O   UNL     1       7.849   4.399  16.449  0.00  0.00    +0.000 OA
BRANCH  12  14
ATOM     14  O   UNL     1       6.975   5.703  14.766  0.00  0.00    +0.000 OA
BRANCH  14  16
ATOM     15  C   UNL     1       6.067   3.862  13.477  0.00  0.00    +0.000 C 
ATOM     16  C   UNL     1       7.291   4.710  13.775  0.00  0.00    +0.000 C 
ENDBRANCH  14  16
ENDBRANCH  12  14
ENDBRANCH   7  12
ENDBRANCH   1   7
BRANCH   4  17
ATOM     17  C   UNL     1       9.283   9.590  18.887  0.00  0.00    +0.000 C 
BRANCH  17  18
ATOM     18  C   UNL     1       9.693  11.013  18.595  0.00  0.00    +0.000 A 
ATOM     19  C   UNL     1       8.849  11.852  17.848  0.00  0.00    +0.000 A 
ATOM     20  C   UNL     1       9.234  13.159  17.544  0.00  0.00    +0.000 A 
ATOM     21  C   UNL     1      10.464  13.628  17.986  0.00  0.00    +0.000 A 
ATOM     22  F   UNL     1      10.842  14.878  17.682  0.00  0.00    +0.000 F 
ATOM     23  C   UNL     1      11.310  12.821  18.737  0.00  0.00    +0.000 A 
ATOM     24  C   UNL     1      10.927  11.512  19.042  0.00  0.00    +0.000 A 
ENDBRANCH  17  18
ENDBRANCH   4  17
TORSDOF 7
ENDMDL
MODEL 6
REMARK VINA RESULT:      -7.1      3.606      5.073
REMARK  Name = 
REMARK  8 active torsions:
REMARK  status: ('A' for Active; 'I' for Inactive)
REMARK    1  A    between atoms: C_1  and  C_2
REMARK    2  A    between atoms: C_2  and  O_3
REMARK    3  A    between atoms: O_3  and  C_4
REMARK    4  A    between atoms: C_4  and  C_6
REMARK    5  A    between atoms: C_6  and  N_7
REMARK    6  A    between atoms: C_6  and  C_19
REMARK    7  A    between atoms: N_10  and  C_11
REMARK    8  A    between atoms: C_11  and  C_12
REMARK                            x       y       z     vdW  Elec       q    Type
REMARK                         _______ _______ _______ _____ _____    ______ ____
ROOT
ATOM      1  N   UNL     1       5.078   5.378  17.137  0.00  0.00    +0.000 N 
ATOM      2  C   UNL     1       3.848   4.809  17.269  0.00  0.00    +0.000 C 
ATOM      3  O   UNL     1       3.661   3.610  17.090  0.00  0.00    +0.000 OA
ATOM      4  N   UNL     1       2.889   5.677  17.699  0.00  0.00    +0.000 N 
ATOM      5  H   UNL     1       5.144   6.379  17.008  0.00  0.00    +0.000 HD
ATOM      6  H   UNL     1       3.075   6.668  17.705  0.00  0.00    +0.000 HD
ENDROOT
BRANCH   1   7
ATOM      7  C   UNL     1       6.225   4.557  16.674  0.00  0.00    +0.000 C 
BRANCH   7   8
ATOM      8  C   UNL     1       6.732   4.882  15.270  0.00  0.00    +0.000 C 
ATOM      9  F   UNL     1       5.872   5.650  14.557  0.00  0.00    +0.000 F 
ATOM     10  F   UNL     1       7.907   5.553  15.310  0.00  0.00    +0.000 F 
ATOM     11  F   UNL     1       6.934   3.761  14.535  0.00  0.00    +0.000 F 
ENDBRANCH   7   8
BRANCH   7  12
ATOM     12  C   UNL     1       7.387   4.758  17.615  0.00  0.00    +0.000 C 
ATOM     13  O   UNL     1       8.408   4.078  17.595  0.00  0.00    +0.000 OA
BRANCH  12  14
ATOM     14  O   UNL     1       7.137   5.774  18.491  0.00  0.00    +0.000 OA
BRANCH  14  16
ATOM     15  C   UNL     1       7.686   7.948  17.569  0.00  0.00    +0.000 C 
ATOM     16  C   UNL     1       8.108   6.835  18.513  0.00  0.00    +0.000 C 
ENDBRANCH  14  16
ENDBRANCH  12  14
ENDBRANCH   7  12
ENDBRANCH   1   7
BRANCH   4  17
ATOM     17  C   UNL     1       1.545   5.227  18.002  0.00  0.00    +0.000 C 
BRANCH  17  18
ATOM     18  C   UNL     1       1.504   4.319  19.206  0.00  0.00    +0.000 A 
ATOM     19  C   UNL     1       2.031   4.751  20.435  0.00  0.00    +0.000 A 
ATOM     20  C   UNL     1       2.029   3.907  21.547  0.00  0.00    +0.000 A 
ATOM     21  C   UNL     1       1.500   2.628  21.431  0.00  0.00    +0.000 A 
ATOM     22  F   UNL     1       1.510   1.810  22.492  0.00  0.00    +0.000 F 
ATOM     23  C   UNL     1       0.961   2.183  20.229  0.00  0.00    +0.000 A 
ATOM     24  C   UNL     1       0.964   3.026  19.115  0.00  0.00    +0.000 A 
ENDBRANCH  17  18
ENDBRANCH   4  17
TORSDOF 7
ENDMDL
MODEL 7
REMARK VINA RESULT:      -7.1      6.612      8.694
REMARK  Name = 
REMARK  8 active torsions:
REMARK  status: ('A' for Active; 'I' for Inactive)
REMARK    1  A    between atoms: C_1  and  C_2
REMARK    2  A    between atoms: C_2  and  O_3
REMARK    3  A    between atoms: O_3  and  C_4
REMARK    4  A    between atoms: C_4  and  C_6
REMARK    5  A    between atoms: C_6  and  N_7
REMARK    6  A    between atoms: C_6  and  C_19
REMARK    7  A    between atoms: N_10  and  C_11
REMARK    8  A    between atoms: C_11  and  C_12
REMARK                            x       y       z     vdW  Elec       q    Type
REMARK                         _______ _______ _______ _____ _____    ______ ____
ROOT
ATOM      1  N   UNL     1       7.049   7.483  17.063  0.00  0.00    +0.000 N 
ATOM      2  C   UNL     1       7.895   7.906  18.041  0.00  0.00    +0.000 C 
ATOM      3  O   UNL     1       8.419   7.128  18.833  0.00  0.00    +0.000 OA
ATOM      4  N   UNL     1       8.163   9.242  17.992  0.00  0.00    +0.000 N 
ATOM      5  H   UNL     1       6.427   8.152  16.630  0.00  0.00    +0.000 HD
ATOM      6  H   UNL     1       7.606   9.843  17.404  0.00  0.00    +0.000 HD
ENDROOT
BRANCH   1   7
ATOM      7  C   UNL     1       6.662   6.051  16.990  0.00  0.00    +0.000 C 
BRANCH   7   8
ATOM      8  C   UNL     1       5.537   5.632  17.935  0.00  0.00    +0.000 C 
ATOM      9  F   UNL     1       4.570   6.573  18.062  0.00  0.00    +0.000 F 
ATOM     10  F   UNL     1       4.925   4.504  17.507  0.00  0.00    +0.000 F 
ATOM     11  F   UNL     1       5.996   5.391  19.188  0.00  0.00    +0.000 F 
ENDBRANCH   7   8
BRANCH   7  12
ATOM     12  C   UNL     1       6.196   5.737  15.590  0.00  0.00    +0.000 C 
ATOM     13  O   UNL     1       5.374   6.410  14.976  0.00  0.00    +0.000 OA
BRANCH  12  14
ATOM     14  O   UNL     1       6.794   4.605  15.118  0.00  0.00    +0.000 OA
BRANCH  14  16
ATOM     15  C   UNL     1       6.558   3.971  12.791  0.00  0.00    +0.000 C 
ATOM     16  C   UNL     1       6.013   3.820  14.200  0.00  0.00    +0.000 C 
ENDBRANCH  14  16
ENDBRANCH  12  14
ENDBRANCH   7  12
ENDBRANCH   1   7
BRANCH   4  17
ATOM     17  C   UNL     1       9.127   9.852  18.885  0.00  0.00    +0.000 C 
BRANCH  17  18
ATOM     18  C   UNL     1       9.696  11.132  18.323  0.00  0.00    +0.000 A 
ATOM     19  C   UNL     1      11.085  11.281  18.174  0.00  0.00    +0.000 A 
ATOM     20  C   UNL     1      11.625  12.473  17.686  0.00  0.00    +0.000 A 
ATOM     21  C   UNL     1      10.775  13.517  17.346  0.00  0.00    +0.000 A 
ATOM     22  F   UNL     1      11.291  14.667  16.891  0.00  0.00    +0.000 F 
ATOM     23  C   UNL     1       9.396  13.387  17.471  0.00  0.00    +0.000 A 
ATOM     24  C   UNL     1       8.855  12.196  17.961  0.00  0.00    +0.000 A 
ENDBRANCH  17  18
ENDBRANCH   4  17
TORSDOF 7
ENDMDL
MODEL 8
REMARK VINA RESULT:      -7.0      6.560      8.617
REMARK  Name = 
REMARK  8 active torsions:
REMARK  status: ('A' for Active; 'I' for Inactive)
REMARK    1  A    between atoms: C_1  and  C_2
REMARK    2  A    between atoms: C_2  and  O_3
REMARK    3  A    between atoms: O_3  and  C_4
REMARK    4  A    between atoms: C_4  and  C_6
REMARK    5  A    between atoms: C_6  and  N_7
REMARK    6  A    between atoms: C_6  and  C_19
REMARK    7  A    between atoms: N_10  and  C_11
REMARK    8  A    between atoms: C_11  and  C_12
REMARK                            x       y       z     vdW  Elec       q    Type
REMARK                         _______ _______ _______ _____ _____    ______ ____
ROOT
ATOM      1  N   UNL     1       6.912   7.564  16.936  0.00  0.00    +0.000 N 
ATOM      2  C   UNL     1       7.741   7.956  17.942  0.00  0.00    +0.000 C 
ATOM      3  O   UNL     1       8.109   7.185  18.823  0.00  0.00    +0.000 OA
ATOM      4  N   UNL     1       8.179   9.241  17.819  0.00  0.00    +0.000 N 
ATOM      5  H   UNL     1       6.410   8.268  16.412  0.00  0.00    +0.000 HD
ATOM      6  H   UNL     1       7.743   9.858  17.150  0.00  0.00    +0.000 HD
ENDROOT
BRANCH   1   7
ATOM      7  C   UNL     1       6.352   6.189  16.935  0.00  0.00    +0.000 C 
BRANCH   7   8
ATOM      8  C   UNL     1       4.893   6.082  16.491  0.00  0.00    +0.000 C 
ATOM      9  F   UNL     1       4.013   6.382  17.477  0.00  0.00    +0.000 F 
ATOM     10  F   UNL     1       4.624   6.922  15.465  0.00  0.00    +0.000 F 
ATOM     11  F   UNL     1       4.584   4.829  16.077  0.00  0.00    +0.000 F 
ENDBRANCH   7   8
BRANCH   7  12
ATOM     12  C   UNL     1       7.158   5.328  15.994  0.00  0.00    +0.000 C 
ATOM     13  O   UNL     1       7.909   4.431  16.363  0.00  0.00    +0.000 OA
BRANCH  12  14
ATOM     14  O   UNL     1       6.952   5.697  14.696  0.00  0.00    +0.000 OA
BRANCH  14  16
ATOM     15  C   UNL     1       7.871   5.177  12.514  0.00  0.00    +0.000 C 
ATOM     16  C   UNL     1       7.106   4.654  13.717  0.00  0.00    +0.000 C 
ENDBRANCH  14  16
ENDBRANCH  12  14
ENDBRANCH   7  12
ENDBRANCH   1   7
BRANCH   4  17
ATOM     17  C   UNL     1       9.153   9.798  18.736  0.00  0.00    +0.000 C 
BRANCH  17  18
ATOM     18  C   UNL     1       9.646  11.153  18.292  0.00  0.00    +0.000 A 
ATOM     19  C   UNL     1       8.796  12.270  18.363  0.00  0.00    +0.000 A 
ATOM     20  C   UNL     1       9.230  13.523  17.924  0.00  0.00    +0.000 A 
ATOM     21  C   UNL     1      10.515  13.660  17.414  0.00  0.00    +0.000 A 
ATOM     22  F   UNL     1      10.928  14.857  16.979  0.00  0.00    +0.000 F 
ATOM     23  C   UNL     1      11.377  12.571  17.347  0.00  0.00    +0.000 A 
ATOM     24  C   UNL     1      10.944  11.317  17.784  0.00  0.00    +0.000 A 
ENDBRANCH  17  18
ENDBRANCH   4  17
TORSDOF 7
ENDMDL
MODEL 9
REMARK VINA RESULT:      -7.0      3.934      5.043
REMARK  Name = 
REMARK  8 active torsions:
REMARK  status: ('A' for Active; 'I' for Inactive)
REMARK    1  A    between atoms: C_1  and  C_2
REMARK    2  A    between atoms: C_2  and  O_3
REMARK    3  A    between atoms: O_3  and  C_4
REMARK    4  A    between atoms: C_4  and  C_6
REMARK    5  A    between atoms: C_6  and  N_7
REMARK    6  A    between atoms: C_6  and  C_19
REMARK    7  A    between atoms: N_10  and  C_11
REMARK    8  A    between atoms: C_11  and  C_12
REMARK                            x       y       z     vdW  Elec       q    Type
REMARK                         _______ _______ _______ _____ _____    ______ ____
ROOT
ATOM      1  N   UNL     1       6.140   4.207  17.622  0.00  0.00    +0.000 N 
ATOM      2  C   UNL     1       4.801   4.026  17.785  0.00  0.00    +0.000 C 
ATOM      3  O   UNL     1       4.037   4.962  17.998  0.00  0.00    +0.000 OA
ATOM      4  N   UNL     1       4.398   2.737  17.600  0.00  0.00    +0.000 N 
ATOM      5  H   UNL     1       6.759   3.416  17.736  0.00  0.00    +0.000 HD
ATOM      6  H   UNL     1       5.083   1.999  17.554  0.00  0.00    +0.000 HD
ENDROOT
BRANCH   1   7
ATOM      7  C   UNL     1       6.728   5.559  17.794  0.00  0.00    +0.000 C 
BRANCH   7   8
ATOM      8  C   UNL     1       7.762   5.681  18.913  0.00  0.00    +0.000 C 
ATOM      9  F   UNL     1       8.735   4.740  18.844  0.00  0.00    +0.000 F 
ATOM     10  F   UNL     1       8.383   6.883  18.885  0.00  0.00    +0.000 F 
ATOM     11  F   UNL     1       7.195   5.549  20.138  0.00  0.00    +0.000 F 
ENDBRANCH   7   8
BRANCH   7  12
ATOM     12  C   UNL     1       7.420   5.962  16.515  0.00  0.00    +0.000 C 
ATOM     13  O   UNL     1       7.755   7.113  16.253  0.00  0.00    +0.000 OA
BRANCH  12  14
ATOM     14  O   UNL     1       7.601   4.885  15.696  0.00  0.00    +0.000 OA
BRANCH  14  16
ATOM     15  C   UNL     1       6.026   3.994  14.084  0.00  0.00    +0.000 C 
ATOM     16  C   UNL     1       7.104   5.028  14.354  0.00  0.00    +0.000 C 
ENDBRANCH  14  16
ENDBRANCH  12  14
ENDBRANCH   7  12
ENDBRANCH   1   7
BRANCH   4  17
ATOM     17  C   UNL     1       2.995   2.374  17.626  0.00  0.00    +0.000 C 
BRANCH  17  18
ATOM     18  C   UNL     1       2.397   2.500  19.005  0.00  0.00    +0.000 A 
ATOM     19  C   UNL     1       3.193   2.278  20.142  0.00  0.00    +0.000 A 
ATOM     20  C   UNL     1       2.642   2.359  21.423  0.00  0.00    +0.000 A 
ATOM     21  C   UNL     1       1.294   2.662  21.568  0.00  0.00    +0.000 A 
ATOM     22  F   UNL     1       0.761   2.726  22.795  0.00  0.00    +0.000 F 
ATOM     23  C   UNL     1       0.491   2.899  20.459  0.00  0.00    +0.000 A 
ATOM     24  C   UNL     1       1.040   2.816  19.176  0.00  0.00    +0.000 A 
ENDBRANCH  17  18
ENDBRANCH   4  17
TORSDOF 7
ENDMDL
