MODEL 1
REMARK VINA RESULT:      -7.1      0.000      0.000
REMARK  Name = 
REMARK  9 active torsions:
REMARK  status: ('A' for Active; 'I' for Inactive)
REMARK    1  A    between atoms: C_2  and  C_3
REMARK    2  A    between atoms: C_3  and  N_4
REMARK    3  A    between atoms: N_7  and  C_8
REMARK    4  A    between atoms: C_8  and  C_9
REMARK    5  A    between atoms: C_9  and  N_10
REMARK    6  A    between atoms: N_10  and  C_11
REMARK    7  A    between atoms: C_11  and  C_12
REMARK    8  A    between atoms: C_12  and  O_13
REMARK    9  A    between atoms: C_12  and  C_14
REMARK                            x       y       z     vdW  Elec       q    Type
REMARK                         _______ _______ _______ _____ _____    ______ ____
ROOT
ATOM      1  N   UNL     1       4.958   6.093  17.328  0.00  0.00    +0.000 NA
ATOM      2  H   UNL     1       4.696   5.386  16.635  0.00  0.00    +0.000 HD
ENDROOT
BRANCH   1   3
ATOM      3  C   UNL     1       6.339   6.538  17.098  0.00  0.00    +0.000 C 
BRANCH   3   4
ATOM      4  C   UNL     1       7.274   5.353  16.825  0.00  0.00    +0.000 C 
BRANCH   4   8
ATOM      5  N   UNL     1       6.278   3.603  13.790  0.00  0.00    +0.000 N 
ATOM      6  C   UNL     1       6.881   4.578  14.532  0.00  0.00    +0.000 C 
ATOM      7  O   UNL     1       7.523   5.508  14.051  0.00  0.00    +0.000 OA
ATOM      8  N   UNL     1       6.706   4.408  15.878  0.00  0.00    +0.000 N 
ATOM      9  H   UNL     1       5.798   2.847  14.248  0.00  0.00    +0.000 HD
ATOM     10  H   UNL     1       6.170   3.630  16.222  0.00  0.00    +0.000 HD
BRANCH   5  11
ATOM     11  C   UNL     1       6.469   3.530  12.363  0.00  0.00    +0.000 C 
BRANCH  11  13
ATOM     12  C   UNL     1       4.208   3.267  11.309  0.00  0.00    +0.000 C 
ATOM     13  C   UNL     1       5.346   2.737  11.778  0.00  0.00    +0.000 C 
ENDBRANCH  11  13
ENDBRANCH   5  11
ENDBRANCH   4   8
ENDBRANCH   3   4
ENDBRANCH   1   3
BRANCH   1  14
ATOM     14  C   UNL     1       4.831   5.489  18.666  0.00  0.00    +0.000 C 
BRANCH  14  15
ATOM     15  C   UNL     1       4.520   3.967  18.622  0.00  0.00    +0.000 C 
BRANCH  15  16
ATOM     16  C   UNL     1       3.116   3.614  19.104  0.00  0.00    +0.000 A 
ATOM     17  C   UNL     1       2.657   3.967  20.385  0.00  0.00    +0.000 A 
ATOM     18  C   UNL     1       1.383   3.603  20.825  0.00  0.00    +0.000 A 
ATOM     19  C   UNL     1       0.527   2.902  19.980  0.00  0.00    +0.000 A 
ATOM     20  C   UNL     1       0.938   2.590  18.688  0.00  0.00    +0.000 A 
ATOM     21  C   UNL     1       2.214   2.954  18.249  0.00  0.00    +0.000 A 
ENDBRANCH  15  16
BRANCH  15  22
ATOM     22  O   UNL     1       5.498   3.305  19.445  0.00  0.00    +0.000 OA
ATOM     23  H   UNL     1       5.630   2.420  19.062  0.00  0.00    +0.000 HD
ENDBRANCH  15  22
ENDBRANCH  14  15
ENDBRANCH   1  14
TORSDOF 9
ENDMDL
MODEL 2
REMARK VINA RESULT:      -7.0      1.131      1.400
REMARK  Name = 
REMARK  9 active torsions:
REMARK  status: ('A' for Active; 'I' for Inactive)
REMARK    1  A    between atoms: C_2  and  C_3
REMARK    2  A    between atoms: C_3  and  N_4
REMARK    3  A    between atoms: N_7  and  C_8
REMARK    4  A    between atoms: C_8  and  C_9
REMARK    5  A    between atoms: C_9  and  N_10
REMARK    6  A    between atoms: N_10  and  C_11
REMARK    7  A    between atoms: C_11  and  C_12
REMARK    8  A    between atoms: C_12  and  O_13
REMARK    9  A    between atoms: C_12  and  C_14
REMARK                            x       y       z     vdW  Elec       q    Type
REMARK                         _______ _______ _______ _____ _____    ______ ____
ROOT
ATOM      1  N   UNL     1       5.152   5.449  18.382  0.00  0.00    +0.000 NA
ATOM      2  H   UNL     1       4.830   6.148  19.057  0.00  0.00    +0.000 HD
ENDROOT
BRANCH   1   3
ATOM      3  C   UNL     1       6.311   5.960  17.639  0.00  0.00    +0.000 C 
BRANCH   3   4
ATOM      4  C   UNL     1       7.278   4.831  17.257  0.00  0.00    +0.000 C 
BRANCH   4   8
ATOM      5  N   UNL     1       6.343   3.516  13.992  0.00  0.00    +0.000 N 
ATOM      6  C   UNL     1       6.882   4.408  14.875  0.00  0.00    +0.000 C 
ATOM      7  O   UNL     1       7.426   5.457  14.543  0.00  0.00    +0.000 OA
ATOM      8  N   UNL     1       6.764   4.006  16.177  0.00  0.00    +0.000 N 
ATOM      9  H   UNL     1       5.944   2.656  14.327  0.00  0.00    +0.000 HD
ATOM     10  H   UNL     1       6.308   3.137  16.397  0.00  0.00    +0.000 HD
BRANCH   5  11
ATOM     11  C   UNL     1       6.494   3.695  12.569  0.00  0.00    +0.000 C 
BRANCH  11  13
ATOM     12  C   UNL     1       5.980   1.576  11.329  0.00  0.00    +0.000 C 
ATOM     13  C   UNL     1       5.585   2.734  11.875  0.00  0.00    +0.000 C 
ENDBRANCH  11  13
ENDBRANCH   5  11
ENDBRANCH   4   8
ENDBRANCH   3   4
ENDBRANCH   1   3
BRANCH   1  14
ATOM     14  C   UNL     1       4.040   5.160  17.460  0.00  0.00    +0.000 C 
BRANCH  14  15
ATOM     15  C   UNL     1       3.446   3.736  17.646  0.00  0.00    +0.000 C 
BRANCH  15  16
ATOM     16  C   UNL     1       2.824   3.504  19.020  0.00  0.00    +0.000 A 
ATOM     17  C   UNL     1       3.447   2.707  19.996  0.00  0.00    +0.000 A 
ATOM     18  C   UNL     1       2.846   2.474  21.235  0.00  0.00    +0.000 A 
ATOM     19  C   UNL     1       1.621   3.060  21.536  0.00  0.00    +0.000 A 
ATOM     20  C   UNL     1       1.011   3.899  20.608  0.00  0.00    +0.000 A 
ATOM     21  C   UNL     1       1.613   4.130  19.368  0.00  0.00    +0.000 A 
ENDBRANCH  15  16
BRANCH  15  22
ATOM     22  O   UNL     1       4.513   2.794  17.430  0.00  0.00    +0.000 OA
ATOM     23  H   UNL     1       4.467   2.533  16.494  0.00  0.00    +0.000 HD
ENDBRANCH  15  22
ENDBRANCH  14  15
ENDBRANCH   1  14
TORSDOF 9
ENDMDL
MODEL 3
REMARK VINA RESULT:      -7.0      1.291      1.720
REMARK  Name = 
REMARK  9 active torsions:
REMARK  status: ('A' for Active; 'I' for Inactive)
REMARK    1  A    between atoms: C_2  and  C_3
REMARK    2  A    between atoms: C_3  and  N_4
REMARK    3  A    between atoms: N_7  and  C_8
REMARK    4  A    between atoms: C_8  and  C_9
REMARK    5  A    between atoms: C_9  and  N_10
REMARK    6  A    between atoms: N_10  and  C_11
REMARK    7  A    between atoms: C_11  and  C_12
REMARK    8  A    between atoms: C_12  and  O_13
REMARK    9  A    between atoms: C_12  and  C_14
REMARK                            x       y       z     vdW  Elec       q    Type
REMARK                         _______ _______ _______ _____ _____    ______ ____
ROOT
ATOM      1  N   UNL     1       5.346   6.176  17.635  0.00  0.00    +0.000 NA
ATOM      2  H   UNL     1       4.947   5.578  16.905  0.00  0.00    +0.000 HD
ENDROOT
BRANCH   1   3
ATOM      3  C   UNL     1       6.812   6.160  17.555  0.00  0.00    +0.000 C 
BRANCH   3   4
ATOM      4  C   UNL     1       7.350   4.737  17.356  0.00  0.00    +0.000 C 
BRANCH   4   8
ATOM      5  N   UNL     1       6.227   3.648  14.067  0.00  0.00    +0.000 N 
ATOM      6  C   UNL     1       6.934   4.397  14.964  0.00  0.00    +0.000 C 
ATOM      7  O   UNL     1       7.717   5.288  14.647  0.00  0.00    +0.000 OA
ATOM      8  N   UNL     1       6.689   4.045  16.262  0.00  0.00    +0.000 N 
ATOM      9  H   UNL     1       5.629   2.907  14.392  0.00  0.00    +0.000 HD
ATOM     10  H   UNL     1       6.037   3.308  16.471  0.00  0.00    +0.000 HD
BRANCH   5  11
ATOM     11  C   UNL     1       6.456   3.774  12.649  0.00  0.00    +0.000 C 
BRANCH  11  13
ATOM     12  C   UNL     1       4.314   3.256  11.452  0.00  0.00    +0.000 C 
ATOM     13  C   UNL     1       5.503   2.871  11.936  0.00  0.00    +0.000 C 
ENDBRANCH  11  13
ENDBRANCH   5  11
ENDBRANCH   4   8
ENDBRANCH   3   4
ENDBRANCH   1   3
BRANCH   1  14
ATOM     14  C   UNL     1       4.898   5.661  18.940  0.00  0.00    +0.000 C 
BRANCH  14  15
ATOM     15  C   UNL     1       3.433   6.050  19.282  0.00  0.00    +0.000 C 
BRANCH  15  16
ATOM     16  C   UNL     1       2.485   4.857  19.367  0.00  0.00    +0.000 A 
ATOM     17  C   UNL     1       2.109   4.121  18.230  0.00  0.00    +0.000 A 
ATOM     18  C   UNL     1       1.210   3.056  18.320  0.00  0.00    +0.000 A 
ATOM     19  C   UNL     1       0.691   2.684  19.557  0.00  0.00    +0.000 A 
ATOM     20  C   UNL     1       1.093   3.362  20.704  0.00  0.00    +0.000 A 
ATOM     21  C   UNL     1       1.991   4.429  20.613  0.00  0.00    +0.000 A 
ENDBRANCH  15  16
BRANCH  15  22
ATOM     22  O   UNL     1       2.981   6.958  18.260  0.00  0.00    +0.000 OA
ATOM     23  H   UNL     1       2.437   7.630  18.707  0.00  0.00    +0.000 HD
ENDBRANCH  15  22
ENDBRANCH  14  15
ENDBRANCH   1  14
TORSDOF 9
ENDMDL
MODEL 4
REMARK VINA RESULT:      -7.0      1.654      1.722
REMARK  Name = 
REMARK  9 active torsions:
REMARK  status: ('A' for Active; 'I' for Inactive)
REMARK    1  A    between atoms: C_2  and  C_3
REMARK    2  A    between atoms: C_3  and  N_4
REMARK    3  A    between atoms: N_7  and  C_8
REMARK    4  A    between atoms: C_8  and  C_9
REMARK    5  A    between atoms: C_9  and  N_10
REMARK    6  A    between atoms: N_10  and  C_11
REMARK    7  A    between atoms: C_11  and  C_12
REMARK    8  A    between atoms: C_12  and  O_13
REMARK    9  A    between atoms: C_12  and  C_14
REMARK                            x       y       z     vdW  Elec       q    Type
REMARK                         _______ _______ _______ _____ _____    ______ ____
ROOT
ATOM      1  N   UNL     1       5.521   6.421  17.398  0.00  0.00    +0.000 NA
ATOM      2  H   UNL     1       5.980   6.352  16.484  0.00  0.00    +0.000 HD
ENDROOT
BRANCH   1   3
ATOM      3  C   UNL     1       6.215   5.575  18.377  0.00  0.00    +0.000 C 
BRANCH   3   4
ATOM      4  C   UNL     1       7.245   4.660  17.701  0.00  0.00    +0.000 C 
BRANCH   4   8
ATOM      5  N   UNL     1       6.321   3.641  14.329  0.00  0.00    +0.000 N 
ATOM      6  C   UNL     1       6.916   4.416  15.284  0.00  0.00    +0.000 C 
ATOM      7  O   UNL     1       7.590   5.412  15.037  0.00  0.00    +0.000 OA
ATOM      8  N   UNL     1       6.693   3.960  16.554  0.00  0.00    +0.000 N 
ATOM      9  H   UNL     1       5.813   2.816  14.596  0.00  0.00    +0.000 HD
ATOM     10  H   UNL     1       6.131   3.139  16.704  0.00  0.00    +0.000 HD
BRANCH   5  11
ATOM     11  C   UNL     1       6.559   3.878  12.927  0.00  0.00    +0.000 C 
BRANCH  11  13
ATOM     12  C   UNL     1       5.547   2.107  11.467  0.00  0.00    +0.000 C 
ATOM     13  C   UNL     1       5.445   3.256  12.149  0.00  0.00    +0.000 C 
ENDBRANCH  11  13
ENDBRANCH   5  11
ENDBRANCH   4   8
ENDBRANCH   3   4
ENDBRANCH   1   3
BRANCH   1  14
ATOM     14  C   UNL     1       4.124   5.983  17.240  0.00  0.00    +0.000 C 
BRANCH  14  15
ATOM     15  C   UNL     1       3.230   6.339  18.460  0.00  0.00    +0.000 C 
BRANCH  15  16
ATOM     16  C   UNL     1       2.391   5.170  18.968  0.00  0.00    +0.000 A 
ATOM     17  C   UNL     1       2.148   4.967  20.337  0.00  0.00    +0.000 A 
ATOM     18  C   UNL     1       1.411   3.870  20.789  0.00  0.00    +0.000 A 
ATOM     19  C   UNL     1       0.874   2.968  19.875  0.00  0.00    +0.000 A 
ATOM     20  C   UNL     1       1.053   3.179  18.512  0.00  0.00    +0.000 A 
ATOM     21  C   UNL     1       1.792   4.276  18.061  0.00  0.00    +0.000 A 
ENDBRANCH  15  16
BRANCH  15  22
ATOM     22  O   UNL     1       2.367   7.419  18.058  0.00  0.00    +0.000 OA
ATOM     23  H   UNL     1       2.885   7.979  17.455  0.00  0.00    +0.000 HD
ENDBRANCH  15  22
ENDBRANCH  14  15
ENDBRANCH   1  14
TORSDOF 9
ENDMDL
MODEL 5
REMARK VINA RESULT:      -6.8      1.644      1.709
REMARK  Name = 
REMARK  9 active torsions:
REMARK  status: ('A' for Active; 'I' for Inactive)
REMARK    1  A    between atoms: C_2  and  C_3
REMARK    2  A    between atoms: C_3  and  N_4
REMARK    3  A    between atoms: N_7  and  C_8
REMARK    4  A    between atoms: C_8  and  C_9
REMARK    5  A    between atoms: C_9  and  N_10
REMARK    6  A    between atoms: N_10  and  C_11
REMARK    7  A    between atoms: C_11  and  C_12
REMARK    8  A    between atoms: C_12  and  O_13
REMARK    9  A    between atoms: C_12  and  C_14
REMARK                            x       y       z     vdW  Elec       q    Type
REMARK                         _______ _______ _______ _____ _____    ______ ____
ROOT
ATOM      1  N   UNL     1       6.755   5.541  19.669  0.00  0.00    +0.000 NA
ATOM      2  H   UNL     1       6.372   6.447  19.958  0.00  0.00    +0.000 HD
ENDROOT
BRANCH   1   3
ATOM      3  C   UNL     1       7.585   5.702  18.469  0.00  0.00    +0.000 C 
BRANCH   3   4
ATOM      4  C   UNL     1       7.770   4.370  17.730  0.00  0.00    +0.000 C 
BRANCH   4   8
ATOM      5  N   UNL     1       6.661   4.294  14.262  0.00  0.00    +0.000 N 
ATOM      6  C   UNL     1       6.579   4.074  15.608  0.00  0.00    +0.000 C 
ATOM      7  O   UNL     1       5.621   3.540  16.159  0.00  0.00    +0.000 OA
ATOM      8  N   UNL     1       7.678   4.522  16.288  0.00  0.00    +0.000 N 
ATOM      9  H   UNL     1       7.459   4.771  13.878  0.00  0.00    +0.000 HD
ATOM     10  H   UNL     1       8.439   4.952  15.789  0.00  0.00    +0.000 HD
BRANCH   5  11
ATOM     11  C   UNL     1       5.542   4.020  13.395  0.00  0.00    +0.000 C 
BRANCH  11  13
ATOM     12  C   UNL     1       5.700   2.215  11.660  0.00  0.00    +0.000 C 
ATOM     13  C   UNL     1       6.062   3.417  12.131  0.00  0.00    +0.000 C 
ENDBRANCH  11  13
ENDBRANCH   5  11
ENDBRANCH   4   8
ENDBRANCH   3   4
ENDBRANCH   1   3
BRANCH   1  14
ATOM     14  C   UNL     1       5.625   4.637  19.393  0.00  0.00    +0.000 C 
BRANCH  14  15
ATOM     15  C   UNL     1       4.310   5.389  19.045  0.00  0.00    +0.000 C 
BRANCH  15  16
ATOM     16  C   UNL     1       3.051   4.554  19.258  0.00  0.00    +0.000 A 
ATOM     17  C   UNL     1       2.619   4.170  20.540  0.00  0.00    +0.000 A 
ATOM     18  C   UNL     1       1.485   3.374  20.715  0.00  0.00    +0.000 A 
ATOM     19  C   UNL     1       0.741   2.968  19.611  0.00  0.00    +0.000 A 
ATOM     20  C   UNL     1       1.117   3.382  18.337  0.00  0.00    +0.000 A 
ATOM     21  C   UNL     1       2.253   4.178  18.163  0.00  0.00    +0.000 A 
ENDBRANCH  15  16
BRANCH  15  22
ATOM     22  O   UNL     1       4.399   5.793  17.667  0.00  0.00    +0.000 OA
ATOM     23  H   UNL     1       4.766   5.036  17.179  0.00  0.00    +0.000 HD
ENDBRANCH  15  22
ENDBRANCH  14  15
ENDBRANCH   1  14
TORSDOF 9
ENDMDL
MODEL 6
REMARK VINA RESULT:      -6.8      1.422      1.554
REMARK  Name = 
REMARK  9 active torsions:
REMARK  status: ('A' for Active; 'I' for Inactive)
REMARK    1  A    between atoms: C_2  and  C_3
REMARK    2  A    between atoms: C_3  and  N_4
REMARK    3  A    between atoms: N_7  and  C_8
REMARK    4  A    between atoms: C_8  and  C_9
REMARK    5  A    between atoms: C_9  and  N_10
REMARK    6  A    between atoms: N_10  and  C_11
REMARK    7  A    between atoms: C_11  and  C_12
REMARK    8  A    between atoms: C_12  and  O_13
REMARK    9  A    between atoms: C_12  and  C_14
REMARK                            x       y       z     vdW  Elec       q    Type
REMARK                         _______ _______ _______ _____ _____    ______ ____
ROOT
ATOM      1  N   UNL     1       5.942   5.675  18.861  0.00  0.00    +0.000 NA
ATOM      2  H   UNL     1       6.445   6.562  18.960  0.00  0.00    +0.000 HD
ENDROOT
BRANCH   1   3
ATOM      3  C   UNL     1       6.734   4.731  18.064  0.00  0.00    +0.000 C 
BRANCH   3   4
ATOM      4  C   UNL     1       6.911   5.223  16.620  0.00  0.00    +0.000 C 
BRANCH   4   8
ATOM      5  N   UNL     1       6.182   3.418  13.542  0.00  0.00    +0.000 N 
ATOM      6  C   UNL     1       6.706   4.415  14.315  0.00  0.00    +0.000 C 
ATOM      7  O   UNL     1       7.362   5.353  13.871  0.00  0.00    +0.000 OA
ATOM      8  N   UNL     1       6.435   4.256  15.646  0.00  0.00    +0.000 N 
ATOM      9  H   UNL     1       5.685   2.656  13.973  0.00  0.00    +0.000 HD
ATOM     10  H   UNL     1       5.892   3.469  15.959  0.00  0.00    +0.000 HD
BRANCH   5  11
ATOM     11  C   UNL     1       6.479   3.334  12.134  0.00  0.00    +0.000 C 
BRANCH  11  13
ATOM     12  C   UNL     1       4.097   3.252  11.353  0.00  0.00    +0.000 C 
ATOM     13  C   UNL     1       5.315   2.701  11.444  0.00  0.00    +0.000 C 
ENDBRANCH  11  13
ENDBRANCH   5  11
ENDBRANCH   4   8
ENDBRANCH   3   4
ENDBRANCH   1   3
BRANCH   1  14
ATOM     14  C   UNL     1       4.656   5.953  18.199  0.00  0.00    +0.000 C 
BRANCH  14  15
ATOM     15  C   UNL     1       3.458   6.004  19.187  0.00  0.00    +0.000 C 
BRANCH  15  16
ATOM     16  C   UNL     1       2.568   4.764  19.137  0.00  0.00    +0.000 A 
ATOM     17  C   UNL     1       1.570   4.525  20.097  0.00  0.00    +0.000 A 
ATOM     18  C   UNL     1       0.790   3.367  20.060  0.00  0.00    +0.000 A 
ATOM     19  C   UNL     1       0.973   2.436  19.041  0.00  0.00    +0.000 A 
ATOM     20  C   UNL     1       1.917   2.678  18.048  0.00  0.00    +0.000 A 
ATOM     21  C   UNL     1       2.698   3.837  18.088  0.00  0.00    +0.000 A 
ENDBRANCH  15  16
BRANCH  15  22
ATOM     22  O   UNL     1       2.682   7.172  18.861  0.00  0.00    +0.000 OA
ATOM     23  H   UNL     1       2.745   7.287  17.897  0.00  0.00    +0.000 HD
ENDBRANCH  15  22
ENDBRANCH  14  15
ENDBRANCH   1  14
TORSDOF 9
ENDMDL
MODEL 7
REMARK VINA RESULT:      -6.7      2.615      3.187
REMARK  Name = 
REMARK  9 active torsions:
REMARK  status: ('A' for Active; 'I' for Inactive)
REMARK    1  A    between atoms: C_2  and  C_3
REMARK    2  A    between atoms: C_3  and  N_4
REMARK    3  A    between atoms: N_7  and  C_8
REMARK    4  A    between atoms: C_8  and  C_9
REMARK    5  A    between atoms: C_9  and  N_10
REMARK    6  A    between atoms: N_10  and  C_11
REMARK    7  A    between atoms: C_11  and  C_12
REMARK    8  A    between atoms: C_12  and  O_13
REMARK    9  A    between atoms: C_12  and  C_14
REMARK                            x       y       z     vdW  Elec       q    Type
REMARK                         _______ _______ _______ _____ _____    ______ ____
ROOT
ATOM      1  N   UNL     1       5.450   4.503  19.429  0.00  0.00    +0.000 NA
ATOM      2  H   UNL     1       5.851   4.541  20.371  0.00  0.00    +0.000 HD
ENDROOT
BRANCH   1   3
ATOM      3  C   UNL     1       6.154   5.438  18.542  0.00  0.00    +0.000 C 
BRANCH   3   4
ATOM      4  C   UNL     1       7.228   4.724  17.710  0.00  0.00    +0.000 C 
BRANCH   4   8
ATOM      5  N   UNL     1       6.294   3.656  14.356  0.00  0.00    +0.000 N 
ATOM      6  C   UNL     1       6.903   4.436  15.297  0.00  0.00    +0.000 C 
ATOM      7  O   UNL     1       7.600   5.412  15.032  0.00  0.00    +0.000 OA
ATOM      8  N   UNL     1       6.664   4.013  16.575  0.00  0.00    +0.000 N 
ATOM      9  H   UNL     1       5.766   2.848  14.638  0.00  0.00    +0.000 HD
ATOM     10  H   UNL     1       6.083   3.207  16.740  0.00  0.00    +0.000 HD
BRANCH   5  11
ATOM     11  C   UNL     1       6.542   3.857  12.950  0.00  0.00    +0.000 C 
BRANCH  11  13
ATOM     12  C   UNL     1       5.478   2.160  11.440  0.00  0.00    +0.000 C 
ATOM     13  C   UNL     1       5.401   3.273  12.182  0.00  0.00    +0.000 C 
ENDBRANCH  11  13
ENDBRANCH   5  11
ENDBRANCH   4   8
ENDBRANCH   3   4
ENDBRANCH   1   3
BRANCH   1  14
ATOM     14  C   UNL     1       4.025   4.863  19.526  0.00  0.00    +0.000 C 
BRANCH  14  15
ATOM     15  C   UNL     1       3.517   5.682  18.307  0.00  0.00    +0.000 C 
BRANCH  15  16
ATOM     16  C   UNL     1       2.747   6.942  18.693  0.00  0.00    +0.000 A 
ATOM     17  C   UNL     1       2.185   7.110  19.971  0.00  0.00    +0.000 A 
ATOM     18  C   UNL     1       1.451   8.253  20.295  0.00  0.00    +0.000 A 
ATOM     19  C   UNL     1       1.288   9.268  19.356  0.00  0.00    +0.000 A 
ATOM     20  C   UNL     1       1.883   9.149  18.104  0.00  0.00    +0.000 A 
ATOM     21  C   UNL     1       2.617   8.004  17.780  0.00  0.00    +0.000 A 
ENDBRANCH  15  16
BRANCH  15  22
ATOM     22  O   UNL     1       2.671   4.814  17.530  0.00  0.00    +0.000 OA
ATOM     23  H   UNL     1       3.142   4.644  16.695  0.00  0.00    +0.000 HD
ENDBRANCH  15  22
ENDBRANCH  14  15
ENDBRANCH   1  14
TORSDOF 9
ENDMDL
MODEL 8
REMARK VINA RESULT:      -6.7      1.180      1.295
REMARK  Name = 
REMARK  9 active torsions:
REMARK  status: ('A' for Active; 'I' for Inactive)
REMARK    1  A    between atoms: C_2  and  C_3
REMARK    2  A    between atoms: C_3  and  N_4
REMARK    3  A    between atoms: N_7  and  C_8
REMARK    4  A    between atoms: C_8  and  C_9
REMARK    5  A    between atoms: C_9  and  N_10
REMARK    6  A    between atoms: N_10  and  C_11
REMARK    7  A    between atoms: C_11  and  C_12
REMARK    8  A    between atoms: C_12  and  O_13
REMARK    9  A    between atoms: C_12  and  C_14
REMARK                            x       y       z     vdW  Elec       q    Type
REMARK                         _______ _______ _______ _____ _____    ______ ____
ROOT
ATOM      1  N   UNL     1       5.298   6.460  16.988  0.00  0.00    +0.000 NA
ATOM      2  H   UNL     1       5.063   6.020  16.093  0.00  0.00    +0.000 HD
ENDROOT
BRANCH   1   3
ATOM      3  C   UNL     1       6.751   6.426  17.201  0.00  0.00    +0.000 C 
BRANCH   3   4
ATOM      4  C   UNL     1       7.308   5.003  17.054  0.00  0.00    +0.000 C 
BRANCH   4   8
ATOM      5  N   UNL     1       6.246   3.716  13.817  0.00  0.00    +0.000 N 
ATOM      6  C   UNL     1       6.958   4.499  14.681  0.00  0.00    +0.000 C 
ATOM      7  O   UNL     1       7.794   5.326  14.327  0.00  0.00    +0.000 OA
ATOM      8  N   UNL     1       6.652   4.260  15.992  0.00  0.00    +0.000 N 
ATOM      9  H   UNL     1       5.602   3.031  14.174  0.00  0.00    +0.000 HD
ATOM     10  H   UNL     1       5.957   3.573  16.231  0.00  0.00    +0.000 HD
BRANCH   5  11
ATOM     11  C   UNL     1       6.529   3.721  12.403  0.00  0.00    +0.000 C 
BRANCH  11  13
ATOM     12  C   UNL     1       6.721   1.584  11.104  0.00  0.00    +0.000 C 
ATOM     13  C   UNL     1       5.992   2.458  11.811  0.00  0.00    +0.000 C 
ENDBRANCH  11  13
ENDBRANCH   5  11
ENDBRANCH   4   8
ENDBRANCH   3   4
ENDBRANCH   1   3
BRANCH   1  14
ATOM     14  C   UNL     1       4.606   5.719  18.056  0.00  0.00    +0.000 C 
BRANCH  14  15
ATOM     15  C   UNL     1       3.405   4.880  17.538  0.00  0.00    +0.000 C 
BRANCH  15  16
ATOM     16  C   UNL     1       2.581   4.237  18.651  0.00  0.00    +0.000 A 
ATOM     17  C   UNL     1       1.891   5.004  19.605  0.00  0.00    +0.000 A 
ATOM     18  C   UNL     1       1.173   4.401  20.640  0.00  0.00    +0.000 A 
ATOM     19  C   UNL     1       1.105   3.013  20.724  0.00  0.00    +0.000 A 
ATOM     20  C   UNL     1       1.733   2.233  19.758  0.00  0.00    +0.000 A 
ATOM     21  C   UNL     1       2.452   2.838  18.724  0.00  0.00    +0.000 A 
ENDBRANCH  15  16
BRANCH  15  22
ATOM     22  O   UNL     1       3.935   3.859  16.673  0.00  0.00    +0.000 OA
ATOM     23  H   UNL     1       4.824   4.154  16.408  0.00  0.00    +0.000 HD
ENDBRANCH  15  22
ENDBRANCH  14  15
ENDBRANCH   1  14
TORSDOF 9
ENDMDL
MODEL 9
REMARK VINA RESULT:      -6.6      1.237      1.625
REMARK  Name = 
REMARK  9 active torsions:
REMARK  status: ('A' for Active; 'I' for Inactive)
REMARK    1  A    between atoms: C_2  and  C_3
REMARK    2  A    between atoms: C_3  and  N_4
REMARK    3  A    between atoms: N_7  and  C_8
REMARK    4  A    between atoms: C_8  and  C_9
REMARK    5  A    between atoms: C_9  and  N_10
REMARK    6  A    between atoms: N_10  and  C_11
REMARK    7  A    between atoms: C_11  and  C_12
REMARK    8  A    between atoms: C_12  and  O_13
REMARK    9  A    between atoms: C_12  and  C_14
REMARK                            x       y       z     vdW  Elec       q    Type
REMARK                         _______ _______ _______ _____ _____    ______ ____
ROOT
ATOM      1  N   UNL     1       5.471   6.107  17.952  0.00  0.00    +0.000 NA
ATOM      2  H   UNL     1       5.709   6.704  18.749  0.00  0.00    +0.000 HD
ENDROOT
BRANCH   1   3
ATOM      3  C   UNL     1       6.139   6.593  16.738  0.00  0.00    +0.000 C 
BRANCH   3   4
ATOM      4  C   UNL     1       7.274   5.654  16.305  0.00  0.00    +0.000 C 
BRANCH   4   8
ATOM      5  N   UNL     1       6.798   4.242  12.982  0.00  0.00    +0.000 N 
ATOM      6  C   UNL     1       6.696   4.303  14.343  0.00  0.00    +0.000 C 
ATOM      7  O   UNL     1       6.134   3.453  15.027  0.00  0.00    +0.000 OA
ATOM      8  N   UNL     1       7.280   5.421  14.871  0.00  0.00    +0.000 N 
ATOM      9  H   UNL     1       7.240   4.991  12.477  0.00  0.00    +0.000 HD
ATOM     10  H   UNL     1       7.730   6.088  14.267  0.00  0.00    +0.000 HD
BRANCH   5  11
ATOM     11  C   UNL     1       6.123   3.212  12.231  0.00  0.00    +0.000 C 
BRANCH  11  13
ATOM     12  C   UNL     1       3.917   3.113  11.041  0.00  0.00    +0.000 C 
ATOM     13  C   UNL     1       4.731   3.674  11.946  0.00  0.00    +0.000 C 
ENDBRANCH  11  13
ENDBRANCH   5  11
ENDBRANCH   4   8
ENDBRANCH   3   4
ENDBRANCH   1   3
BRANCH   1  14
ATOM     14  C   UNL     1       4.008   6.139  17.779  0.00  0.00    +0.000 C 
BRANCH  14  15
ATOM     15  C   UNL     1       3.404   4.754  17.417  0.00  0.00    +0.000 C 
BRANCH  15  16
ATOM     16  C   UNL     1       2.441   4.211  18.468  0.00  0.00    +0.000 A 
ATOM     17  C   UNL     1       1.701   3.033  18.264  0.00  0.00    +0.000 A 
ATOM     18  C   UNL     1       0.795   2.570  19.220  0.00  0.00    +0.000 A 
ATOM     19  C   UNL     1       0.631   3.261  20.417  0.00  0.00    +0.000 A 
ATOM     20  C   UNL     1       1.393   4.398  20.666  0.00  0.00    +0.000 A 
ATOM     21  C   UNL     1       2.299   4.861  19.707  0.00  0.00    +0.000 A 
ENDBRANCH  15  16
BRANCH  15  22
ATOM     22  O   UNL     1       4.502   3.839  17.244  0.00  0.00    +0.000 OA
ATOM     23  H   UNL     1       4.800   3.935  16.322  0.00  0.00    +0.000 HD
ENDBRANCH  15  22
ENDBRANCH  14  15
ENDBRANCH   1  14
TORSDOF 9
ENDMDL
