MODEL 1
REMARK VINA RESULT:      -8.5      0.000      0.000
REMARK  Name = 
REMARK  7 active torsions:
REMARK  status: ('A' for Active; 'I' for Inactive)
REMARK    1  A    between atoms: C_2  and  C_13
REMARK    2  A    between atoms: N_3  and  C_4
REMARK    3  A    between atoms: C_8  and  C_9
REMARK    4  A    between atoms: C_9  and  O_11
REMARK    5  A    between atoms: C_13  and  N_24
REMARK    6  A    between atoms: C_14  and  C_15
REMARK    7  A    between atoms: C_25  and  C_27
REMARK                            x       y       z     vdW  Elec       q    Type
REMARK                         _______ _______ _______ _____ _____    ______ ____
ROOT
ATOM      1  C   UNL     1       4.988   3.996  16.979  0.00  0.00    +0.000 C 
ATOM      2  C   UNL     1       4.919   2.750  17.513  0.00  0.00    +0.000 C 
ENDROOT
BRANCH   2   3
ATOM      3  C   UNL     1       3.996   2.365  18.585  0.00  0.00    +0.000 A 
ATOM      4  C   UNL     1       4.314   2.447  19.956  0.00  0.00    +0.000 A 
ATOM      5  C   UNL     1       3.289   2.506  20.907  0.00  0.00    +0.000 A 
ATOM      6  C   UNL     1       1.995   2.496  20.433  0.00  0.00    +0.000 A 
ATOM      7  C   UNL     1       1.703   2.268  19.105  0.00  0.00    +0.000 A 
ATOM      8  C   UNL     1       2.683   2.137  18.160  0.00  0.00    +0.000 A 
ATOM      9  O   UNL     1       0.378   2.421  18.830  0.00  0.00    +0.000 OA
ATOM     10  C   UNL     1       0.017   3.173  20.003  0.00  0.00    +0.000 C 
ATOM     11  O   UNL     1       0.877   2.865  21.124  0.00  0.00    +0.000 OA
ENDBRANCH   2   3
BRANCH   1  13
ATOM     12  O   UNL     1       5.385   5.958  18.270  0.00  0.00    +0.000 OA
ATOM     13  C   UNL     1       4.533   5.204  17.806  0.00  0.00    +0.000 C 
ATOM     14  N   UNL     1       3.162   5.404  17.962  0.00  0.00    +0.000 N 
ATOM     15  H   UNL     1       2.533   4.677  17.644  0.00  0.00    +0.000 HD
BRANCH  14  16
ATOM     16  C   UNL     1       2.580   6.505  18.680  0.00  0.00    +0.000 A 
ATOM     17  C   UNL     1       2.216   6.427  20.035  0.00  0.00    +0.000 A 
ATOM     18  C   UNL     1       1.638   7.500  20.715  0.00  0.00    +0.000 A 
ATOM     19  C   UNL     1       1.408   8.699  20.058  0.00  0.00    +0.000 A 
ATOM     20  C   UNL     1       1.748   8.811  18.706  0.00  0.00    +0.000 A 
ATOM     21  C   UNL     1       2.347   7.724  18.024  0.00  0.00    +0.000 A 
BRANCH  20  22
ATOM     22  C   UNL     1       1.517  10.089  17.983  0.00  0.00    +0.000 C 
ATOM     23  O   UNL     1       2.434  10.820  17.650  0.00  0.00    +0.000 OA
BRANCH  22  24
ATOM     24  O   UNL     1       0.223  10.353  17.697  0.00  0.00    +0.000 OA
ATOM     25  H   UNL     1      -0.223  10.971  18.303  0.00  0.00    +0.000 HD
ENDBRANCH  22  24
ENDBRANCH  20  22
ENDBRANCH  14  16
ENDBRANCH   1  13
BRANCH   1  26
ATOM     26  N   UNL     1       5.533   4.215  15.721  0.00  0.00    +0.000 N 
ATOM     27  C   UNL     1       6.875   4.472  15.459  0.00  0.00    +0.000 C 
ATOM     28  O   UNL     1       7.767   4.453  16.310  0.00  0.00    +0.000 OA
ATOM     29  H   UNL     1       4.932   4.117  14.911  0.00  0.00    +0.000 HD
BRANCH  27  30
ATOM     30  C   UNL     1       7.188   4.729  14.074  0.00  0.00    +0.000 A 
ATOM     31  C   UNL     1       6.683   4.147  12.924  0.00  0.00    +0.000 A 
ATOM     32  C   UNL     1       7.321   4.783  11.836  0.00  0.00    +0.000 A 
ATOM     33  C   UNL     1       8.178   5.708  12.385  0.00  0.00    +0.000 A 
ATOM     34  O   UNL     1       8.104   5.689  13.742  0.00  0.00    +0.000 OA
ENDBRANCH  27  30
ENDBRANCH   1  26
TORSDOF 7
ENDMDL
MODEL 2
REMARK VINA RESULT:      -8.2      3.430      6.519
REMARK  Name = 
REMARK  7 active torsions:
REMARK  status: ('A' for Active; 'I' for Inactive)
REMARK    1  A    between atoms: C_2  and  C_13
REMARK    2  A    between atoms: N_3  and  C_4
REMARK    3  A    between atoms: C_8  and  C_9
REMARK    4  A    between atoms: C_9  and  O_11
REMARK    5  A    between atoms: C_13  and  N_24
REMARK    6  A    between atoms: C_14  and  C_15
REMARK    7  A    between atoms: C_25  and  C_27
REMARK                            x       y       z     vdW  Elec       q    Type
REMARK                         _______ _______ _______ _____ _____    ______ ____
ROOT
ATOM      1  C   UNL     1       5.529   6.875  17.381  0.00  0.00    +0.000 C 
ATOM      2  C   UNL     1       4.657   6.256  18.217  0.00  0.00    +0.000 C 
ENDROOT
BRANCH   2   3
ATOM      3  C   UNL     1       4.143   4.899  18.012  0.00  0.00    +0.000 A 
ATOM      4  C   UNL     1       4.823   3.735  18.425  0.00  0.00    +0.000 A 
ATOM      5  C   UNL     1       4.115   2.543  18.616  0.00  0.00    +0.000 A 
ATOM      6  C   UNL     1       2.755   2.584  18.398  0.00  0.00    +0.000 A 
ATOM      7  C   UNL     1       2.132   3.687  17.856  0.00  0.00    +0.000 A 
ATOM      8  C   UNL     1       2.809   4.845  17.593  0.00  0.00    +0.000 A 
ATOM      9  O   UNL     1       0.775   3.563  17.840  0.00  0.00    +0.000 OA
ATOM     10  C   UNL     1       0.661   2.502  18.805  0.00  0.00    +0.000 C 
ATOM     11  O   UNL     1       1.839   1.665  18.825  0.00  0.00    +0.000 OA
ENDBRANCH   2   3
BRANCH   1  13
ATOM     12  O   UNL     1       4.834   6.969  15.105  0.00  0.00    +0.000 OA
ATOM     13  C   UNL     1       5.603   6.450  15.909  0.00  0.00    +0.000 C 
ATOM     14  N   UNL     1       6.571   5.512  15.554  0.00  0.00    +0.000 N 
ATOM     15  H   UNL     1       7.088   5.054  16.293  0.00  0.00    +0.000 HD
BRANCH  14  16
ATOM     16  C   UNL     1       6.786   5.039  14.213  0.00  0.00    +0.000 A 
ATOM     17  C   UNL     1       7.830   5.505  13.397  0.00  0.00    +0.000 A 
ATOM     18  C   UNL     1       8.019   5.048  12.091  0.00  0.00    +0.000 A 
ATOM     19  C   UNL     1       7.165   4.094  11.558  0.00  0.00    +0.000 A 
ATOM     20  C   UNL     1       6.108   3.614  12.337  0.00  0.00    +0.000 A 
ATOM     21  C   UNL     1       5.929   4.072  13.666  0.00  0.00    +0.000 A 
BRANCH  20  22
ATOM     22  C   UNL     1       5.184   2.587  11.788  0.00  0.00    +0.000 C 
ATOM     23  O   UNL     1       4.044   2.856  11.451  0.00  0.00    +0.000 OA
BRANCH  22  24
ATOM     24  O   UNL     1       5.719   1.352  11.660  0.00  0.00    +0.000 OA
ATOM     25  H   UNL     1       5.280   0.770  11.015  0.00  0.00    +0.000 HD
ENDBRANCH  22  24
ENDBRANCH  20  22
ENDBRANCH  14  16
ENDBRANCH   1  13
BRANCH   1  26
ATOM     26  N   UNL     1       6.309   7.941  17.808  0.00  0.00    +0.000 N 
ATOM     27  C   UNL     1       7.648   8.139  17.481  0.00  0.00    +0.000 C 
ATOM     28  O   UNL     1       8.286   7.431  16.700  0.00  0.00    +0.000 OA
ATOM     29  H   UNL     1       5.868   8.679  18.344  0.00  0.00    +0.000 HD
BRANCH  27  30
ATOM     30  C   UNL     1       8.262   9.290  18.098  0.00  0.00    +0.000 A 
ATOM     31  C   UNL     1       8.958   9.398  19.289  0.00  0.00    +0.000 A 
ATOM     32  C   UNL     1       9.356  10.748  19.403  0.00  0.00    +0.000 A 
ATOM     33  C   UNL     1       8.877  11.383  18.281  0.00  0.00    +0.000 A 
ATOM     34  O   UNL     1       8.214  10.509  17.478  0.00  0.00    +0.000 OA
ENDBRANCH  27  30
ENDBRANCH   1  26
TORSDOF 7
ENDMDL
MODEL 3
REMARK VINA RESULT:      -7.9      3.509      6.690
REMARK  Name = 
REMARK  7 active torsions:
REMARK  status: ('A' for Active; 'I' for Inactive)
REMARK    1  A    between atoms: C_2  and  C_13
REMARK    2  A    between atoms: N_3  and  C_4
REMARK    3  A    between atoms: C_8  and  C_9
REMARK    4  A    between atoms: C_9  and  O_11
REMARK    5  A    between atoms: C_13  and  N_24
REMARK    6  A    between atoms: C_14  and  C_15
REMARK    7  A    between atoms: C_25  and  C_27
REMARK                            x       y       z     vdW  Elec       q    Type
REMARK                         _______ _______ _______ _____ _____    ______ ____
ROOT
ATOM      1  C   UNL     1       6.300   6.523  17.227  0.00  0.00    +0.000 C 
ATOM      2  C   UNL     1       5.191   6.185  17.932  0.00  0.00    +0.000 C 
ENDROOT
BRANCH   2   3
ATOM      3  C   UNL     1       4.698   4.812  18.082  0.00  0.00    +0.000 A 
ATOM      4  C   UNL     1       5.181   3.910  19.051  0.00  0.00    +0.000 A 
ATOM      5  C   UNL     1       4.397   2.819  19.441  0.00  0.00    +0.000 A 
ATOM      6  C   UNL     1       3.157   2.698  18.851  0.00  0.00    +0.000 A 
ATOM      7  C   UNL     1       2.762   3.503  17.804  0.00  0.00    +0.000 A 
ATOM      8  C   UNL     1       3.536   4.535  17.352  0.00  0.00    +0.000 A 
ATOM      9  O   UNL     1       1.462   3.298  17.453  0.00  0.00    +0.000 OA
ATOM     10  C   UNL     1       1.032   2.636  18.656  0.00  0.00    +0.000 C 
ATOM     11  O   UNL     1       2.119   1.932  19.299  0.00  0.00    +0.000 OA
ENDBRANCH   2   3
BRANCH   1  13
ATOM     12  O   UNL     1       7.579   4.709  16.362  0.00  0.00    +0.000 OA
ATOM     13  C   UNL     1       6.789   5.611  16.095  0.00  0.00    +0.000 C 
ATOM     14  N   UNL     1       6.281   5.836  14.817  0.00  0.00    +0.000 N 
ATOM     15  H   UNL     1       5.723   6.666  14.662  0.00  0.00    +0.000 HD
BRANCH  14  16
ATOM     16  C   UNL     1       6.616   5.048  13.661  0.00  0.00    +0.000 A 
ATOM     17  C   UNL     1       7.815   5.211  12.947  0.00  0.00    +0.000 A 
ATOM     18  C   UNL     1       8.120   4.450  11.817  0.00  0.00    +0.000 A 
ATOM     19  C   UNL     1       7.231   3.485  11.366  0.00  0.00    +0.000 A 
ATOM     20  C   UNL     1       6.024   3.301  12.047  0.00  0.00    +0.000 A 
ATOM     21  C   UNL     1       5.724   4.067  13.200  0.00  0.00    +0.000 A 
BRANCH  20  22
ATOM     22  C   UNL     1       5.059   2.269  11.585  0.00  0.00    +0.000 C 
ATOM     23  O   UNL     1       3.915   2.546  11.270  0.00  0.00    +0.000 OA
BRANCH  22  24
ATOM     24  O   UNL     1       5.561   1.016  11.509  0.00  0.00    +0.000 OA
ATOM     25  H   UNL     1       5.559   0.513  12.342  0.00  0.00    +0.000 HD
ENDBRANCH  22  24
ENDBRANCH  20  22
ENDBRANCH  14  16
ENDBRANCH   1  13
BRANCH   1  26
ATOM     26  N   UNL     1       6.967   7.718  17.457  0.00  0.00    +0.000 N 
ATOM     27  C   UNL     1       8.025   7.891  18.345  0.00  0.00    +0.000 C 
ATOM     28  O   UNL     1       8.557   6.979  18.981  0.00  0.00    +0.000 OA
ATOM     29  H   UNL     1       6.725   8.523  16.891  0.00  0.00    +0.000 HD
BRANCH  27  30
ATOM     30  C   UNL     1       8.515   9.244  18.453  0.00  0.00    +0.000 A 
ATOM     31  C   UNL     1       8.309  10.336  17.627  0.00  0.00    +0.000 A 
ATOM     32  C   UNL     1       9.004  11.419  18.208  0.00  0.00    +0.000 A 
ATOM     33  C   UNL     1       9.594  10.926  19.348  0.00  0.00    +0.000 A 
ATOM     34  O   UNL     1       9.302   9.608  19.511  0.00  0.00    +0.000 OA
ENDBRANCH  27  30
ENDBRANCH   1  26
TORSDOF 7
ENDMDL
MODEL 4
REMARK VINA RESULT:      -7.8      1.711      2.474
REMARK  Name = 
REMARK  7 active torsions:
REMARK  status: ('A' for Active; 'I' for Inactive)
REMARK    1  A    between atoms: C_2  and  C_13
REMARK    2  A    between atoms: N_3  and  C_4
REMARK    3  A    between atoms: C_8  and  C_9
REMARK    4  A    between atoms: C_9  and  O_11
REMARK    5  A    between atoms: C_13  and  N_24
REMARK    6  A    between atoms: C_14  and  C_15
REMARK    7  A    between atoms: C_25  and  C_27
REMARK                            x       y       z     vdW  Elec       q    Type
REMARK                         _______ _______ _______ _____ _____    ______ ____
ROOT
ATOM      1  C   UNL     1       4.264   4.987  16.882  0.00  0.00    +0.000 C 
ATOM      2  C   UNL     1       3.910   3.856  17.543  0.00  0.00    +0.000 C 
ENDROOT
BRANCH   2   3
ATOM      3  C   UNL     1       2.804   3.776  18.502  0.00  0.00    +0.000 A 
ATOM      4  C   UNL     1       1.540   3.233  18.194  0.00  0.00    +0.000 A 
ATOM      5  C   UNL     1       0.707   2.775  19.220  0.00  0.00    +0.000 A 
ATOM      6  C   UNL     1       1.192   2.869  20.507  0.00  0.00    +0.000 A 
ATOM      7  C   UNL     1       2.364   3.534  20.801  0.00  0.00    +0.000 A 
ATOM      8  C   UNL     1       3.166   4.054  19.825  0.00  0.00    +0.000 A 
ATOM      9  O   UNL     1       2.721   3.403  22.109  0.00  0.00    +0.000 OA
ATOM     10  C   UNL     1       1.902   2.263  22.427  0.00  0.00    +0.000 C 
ATOM     11  O   UNL     1       0.716   2.207  21.602  0.00  0.00    +0.000 OA
ENDBRANCH   2   3
BRANCH   1  13
ATOM     12  O   UNL     1       4.799   7.218  17.523  0.00  0.00    +0.000 OA
ATOM     13  C   UNL     1       3.924   6.357  17.482  0.00  0.00    +0.000 C 
ATOM     14  N   UNL     1       2.619   6.565  17.924  0.00  0.00    +0.000 N 
ATOM     15  H   UNL     1       1.992   5.771  17.958  0.00  0.00    +0.000 HD
BRANCH  14  16
ATOM     16  C   UNL     1       2.138   7.802  18.479  0.00  0.00    +0.000 A 
ATOM     17  C   UNL     1       2.015   8.981  17.725  0.00  0.00    +0.000 A 
ATOM     18  C   UNL     1       1.562  10.179  18.280  0.00  0.00    +0.000 A 
ATOM     19  C   UNL     1       1.207  10.235  19.619  0.00  0.00    +0.000 A 
ATOM     20  C   UNL     1       1.325   9.083  20.404  0.00  0.00    +0.000 A 
ATOM     21  C   UNL     1       1.774   7.867  19.833  0.00  0.00    +0.000 A 
BRANCH  20  22
ATOM     22  C   UNL     1       0.944   9.119  21.840  0.00  0.00    +0.000 C 
ATOM     23  O   UNL     1      -0.192   8.884  22.215  0.00  0.00    +0.000 OA
BRANCH  22  24
ATOM     24  O   UNL     1       1.959   9.394  22.690  0.00  0.00    +0.000 OA
ATOM     25  H   UNL     1       2.625  10.021  22.358  0.00  0.00    +0.000 HD
ENDBRANCH  22  24
ENDBRANCH  20  22
ENDBRANCH  14  16
ENDBRANCH   1  13
BRANCH   1  26
ATOM     26  N   UNL     1       4.995   4.938  15.703  0.00  0.00    +0.000 N 
ATOM     27  C   UNL     1       6.363   4.696  15.615  0.00  0.00    +0.000 C 
ATOM     28  O   UNL     1       7.084   4.411  16.574  0.00  0.00    +0.000 OA
ATOM     29  H   UNL     1       4.499   5.013  14.823  0.00  0.00    +0.000 HD
BRANCH  27  30
ATOM     30  C   UNL     1       6.908   4.755  14.280  0.00  0.00    +0.000 A 
ATOM     31  C   UNL     1       6.537   4.071  13.135  0.00  0.00    +0.000 A 
ATOM     32  C   UNL     1       7.390   4.521  12.103  0.00  0.00    +0.000 A 
ATOM     33  C   UNL     1       8.229   5.446  12.677  0.00  0.00    +0.000 A 
ATOM     34  O   UNL     1       7.945   5.602  13.997  0.00  0.00    +0.000 OA
ENDBRANCH  27  30
ENDBRANCH   1  26
TORSDOF 7
ENDMDL
MODEL 5
REMARK VINA RESULT:      -7.8      2.518      7.498
REMARK  Name = 
REMARK  7 active torsions:
REMARK  status: ('A' for Active; 'I' for Inactive)
REMARK    1  A    between atoms: C_2  and  C_13
REMARK    2  A    between atoms: N_3  and  C_4
REMARK    3  A    between atoms: C_8  and  C_9
REMARK    4  A    between atoms: C_9  and  O_11
REMARK    5  A    between atoms: C_13  and  N_24
REMARK    6  A    between atoms: C_14  and  C_15
REMARK    7  A    between atoms: C_25  and  C_27
REMARK                            x       y       z     vdW  Elec       q    Type
REMARK                         _______ _______ _______ _____ _____    ______ ____
ROOT
ATOM      1  C   UNL     1       2.893   7.834  17.798  0.00  0.00    +0.000 C 
ATOM      2  C   UNL     1       4.158   8.200  17.470  0.00  0.00    +0.000 C 
ENDROOT
BRANCH   2   3
ATOM      3  C   UNL     1       5.205   7.260  17.058  0.00  0.00    +0.000 A 
ATOM      4  C   UNL     1       6.144   6.698  17.948  0.00  0.00    +0.000 A 
ATOM      5  C   UNL     1       6.799   5.508  17.612  0.00  0.00    +0.000 A 
ATOM      6  C   UNL     1       6.466   4.931  16.406  0.00  0.00    +0.000 A 
ATOM      7  C   UNL     1       5.658   5.567  15.487  0.00  0.00    +0.000 A 
ATOM      8  C   UNL     1       5.058   6.765  15.758  0.00  0.00    +0.000 A 
ATOM      9  O   UNL     1       5.358   4.774  14.421  0.00  0.00    +0.000 OA
ATOM     10  C   UNL     1       5.696   3.507  15.014  0.00  0.00    +0.000 C 
ATOM     11  O   UNL     1       6.719   3.644  16.027  0.00  0.00    +0.000 OA
ENDBRANCH   2   3
BRANCH   1  13
ATOM     12  O   UNL     1       2.127   5.594  17.534  0.00  0.00    +0.000 OA
ATOM     13  C   UNL     1       2.620   6.412  18.305  0.00  0.00    +0.000 C 
ATOM     14  N   UNL     1       2.980   6.112  19.618  0.00  0.00    +0.000 N 
ATOM     15  H   UNL     1       3.276   6.871  20.219  0.00  0.00    +0.000 HD
BRANCH  14  16
ATOM     16  C   UNL     1       2.818   4.819  20.228  0.00  0.00    +0.000 A 
ATOM     17  C   UNL     1       1.685   4.465  20.978  0.00  0.00    +0.000 A 
ATOM     18  C   UNL     1       1.548   3.211  21.577  0.00  0.00    +0.000 A 
ATOM     19  C   UNL     1       2.548   2.260  21.437  0.00  0.00    +0.000 A 
ATOM     20  C   UNL     1       3.695   2.581  20.704  0.00  0.00    +0.000 A 
ATOM     21  C   UNL     1       3.823   3.850  20.087  0.00  0.00    +0.000 A 
BRANCH  20  22
ATOM     22  C   UNL     1       4.776   1.574  20.536  0.00  0.00    +0.000 C 
ATOM     23  O   UNL     1       5.595   1.350  21.410  0.00  0.00    +0.000 OA
BRANCH  22  24
ATOM     24  O   UNL     1       4.753   0.909  19.359  0.00  0.00    +0.000 OA
ATOM     25  H   UNL     1       4.081   1.208  18.722  0.00  0.00    +0.000 HD
ENDBRANCH  22  24
ENDBRANCH  20  22
ENDBRANCH  14  16
ENDBRANCH   1  13
BRANCH   1  26
ATOM     26  N   UNL     1       1.843   8.741  17.758  0.00  0.00    +0.000 N 
ATOM     27  C   UNL     1       1.162   9.234  18.867  0.00  0.00    +0.000 C 
ATOM     28  O   UNL     1       1.465   8.987  20.037  0.00  0.00    +0.000 OA
ATOM     29  H   UNL     1       1.583   9.139  16.863  0.00  0.00    +0.000 HD
BRANCH  27  30
ATOM     30  C   UNL     1       0.065  10.121  18.564  0.00  0.00    +0.000 A 
ATOM     31  C   UNL     1      -1.015   9.945  17.718  0.00  0.00    +0.000 A 
ATOM     32  C   UNL     1      -1.796  11.118  17.810  0.00  0.00    +0.000 A 
ATOM     33  C   UNL     1      -1.146  11.940  18.701  0.00  0.00    +0.000 A 
ATOM     34  O   UNL     1      -0.017  11.345  19.170  0.00  0.00    +0.000 OA
ENDBRANCH  27  30
ENDBRANCH   1  26
TORSDOF 7
ENDMDL
MODEL 6
REMARK VINA RESULT:      -7.7      3.470      6.546
REMARK  Name = 
REMARK  7 active torsions:
REMARK  status: ('A' for Active; 'I' for Inactive)
REMARK    1  A    between atoms: C_2  and  C_13
REMARK    2  A    between atoms: N_3  and  C_4
REMARK    3  A    between atoms: C_8  and  C_9
REMARK    4  A    between atoms: C_9  and  O_11
REMARK    5  A    between atoms: C_13  and  N_24
REMARK    6  A    between atoms: C_14  and  C_15
REMARK    7  A    between atoms: C_25  and  C_27
REMARK                            x       y       z     vdW  Elec       q    Type
REMARK                         _______ _______ _______ _____ _____    ______ ____
ROOT
ATOM      1  C   UNL     1       6.600   6.142  17.910  0.00  0.00    +0.000 C 
ATOM      2  C   UNL     1       5.458   5.790  18.553  0.00  0.00    +0.000 C 
ENDROOT
BRANCH   2   3
ATOM      3  C   UNL     1       4.849   4.459  18.480  0.00  0.00    +0.000 A 
ATOM      4  C   UNL     1       5.190   3.396  19.341  0.00  0.00    +0.000 A 
ATOM      5  C   UNL     1       4.296   2.335  19.528  0.00  0.00    +0.000 A 
ATOM      6  C   UNL     1       3.096   2.404  18.854  0.00  0.00    +0.000 A 
ATOM      7  C   UNL     1       2.842   3.373  17.907  0.00  0.00    +0.000 A 
ATOM      8  C   UNL     1       3.725   4.384  17.651  0.00  0.00    +0.000 A 
ATOM      9  O   UNL     1       1.558   3.332  17.453  0.00  0.00    +0.000 OA
ATOM     10  C   UNL     1       0.992   2.555  18.525  0.00  0.00    +0.000 C 
ATOM     11  O   UNL     1       1.972   1.678  19.127  0.00  0.00    +0.000 OA
ENDBRANCH   2   3
BRANCH   1  13
ATOM     12  O   UNL     1       7.789   4.431  16.755  0.00  0.00    +0.000 OA
ATOM     13  C   UNL     1       7.024   5.385  16.645  0.00  0.00    +0.000 C 
ATOM     14  N   UNL     1       6.488   5.805  15.428  0.00  0.00    +0.000 N 
ATOM     15  H   UNL     1       5.955   6.665  15.411  0.00  0.00    +0.000 HD
BRANCH  14  16
ATOM     16  C   UNL     1       6.761   5.179  14.163  0.00  0.00    +0.000 A 
ATOM     17  C   UNL     1       7.891   5.487  13.387  0.00  0.00    +0.000 A 
ATOM     18  C   UNL     1       8.137   4.883  12.153  0.00  0.00    +0.000 A 
ATOM     19  C   UNL     1       7.255   3.937  11.653  0.00  0.00    +0.000 A 
ATOM     20  C   UNL     1       6.114   3.612  12.393  0.00  0.00    +0.000 A 
ATOM     21  C   UNL     1       5.876   4.218  13.651  0.00  0.00    +0.000 A 
BRANCH  20  22
ATOM     22  C   UNL     1       5.158   2.596  11.879  0.00  0.00    +0.000 C 
ATOM     23  O   UNL     1       4.002   2.872  11.609  0.00  0.00    +0.000 OA
BRANCH  22  24
ATOM     24  O   UNL     1       5.681   1.362  11.704  0.00  0.00    +0.000 OA
ATOM     25  H   UNL     1       6.290   1.063  12.402  0.00  0.00    +0.000 HD
ENDBRANCH  22  24
ENDBRANCH  20  22
ENDBRANCH  14  16
ENDBRANCH   1  13
BRANCH   1  26
ATOM     26  N   UNL     1       7.364   7.223  18.328  0.00  0.00    +0.000 N 
ATOM     27  C   UNL     1       7.432   8.456  17.686  0.00  0.00    +0.000 C 
ATOM     28  O   UNL     1       6.753   8.769  16.705  0.00  0.00    +0.000 OA
ATOM     29  H   UNL     1       7.864   7.151  19.206  0.00  0.00    +0.000 HD
BRANCH  27  30
ATOM     30  C   UNL     1       8.345   9.403  18.279  0.00  0.00    +0.000 A 
ATOM     31  C   UNL     1       9.119   9.299  19.421  0.00  0.00    +0.000 A 
ATOM     32  C   UNL     1       9.840  10.508  19.532  0.00  0.00    +0.000 A 
ATOM     33  C   UNL     1       9.461  11.277  18.457  0.00  0.00    +0.000 A 
ATOM     34  O   UNL     1       8.558  10.617  17.686  0.00  0.00    +0.000 OA
ENDBRANCH  27  30
ENDBRANCH   1  26
TORSDOF 7
ENDMDL
MODEL 7
REMARK VINA RESULT:      -7.5      2.442      7.584
REMARK  Name = 
REMARK  7 active torsions:
REMARK  status: ('A' for Active; 'I' for Inactive)
REMARK    1  A    between atoms: C_2  and  C_13
REMARK    2  A    between atoms: N_3  and  C_4
REMARK    3  A    between atoms: C_8  and  C_9
REMARK    4  A    between atoms: C_9  and  O_11
REMARK    5  A    between atoms: C_13  and  N_24
REMARK    6  A    between atoms: C_14  and  C_15
REMARK    7  A    between atoms: C_25  and  C_27
REMARK                            x       y       z     vdW  Elec       q    Type
REMARK                         _______ _______ _______ _____ _____    ______ ____
ROOT
ATOM      1  C   UNL     1       2.369   8.000  17.939  0.00  0.00    +0.000 C 
ATOM      2  C   UNL     1       3.508   8.338  17.282  0.00  0.00    +0.000 C 
ENDROOT
BRANCH   2   3
ATOM      3  C   UNL     1       4.656   7.442  17.112  0.00  0.00    +0.000 A 
ATOM      4  C   UNL     1       5.424   6.944  18.184  0.00  0.00    +0.000 A 
ATOM      5  C   UNL     1       6.183   5.781  18.018  0.00  0.00    +0.000 A 
ATOM      6  C   UNL     1       6.121   5.165  16.787  0.00  0.00    +0.000 A 
ATOM      7  C   UNL     1       5.483   5.743  15.710  0.00  0.00    +0.000 A 
ATOM      8  C   UNL     1       4.790   6.915  15.823  0.00  0.00    +0.000 A 
ATOM      9  O   UNL     1       5.435   4.915  14.629  0.00  0.00    +0.000 OA
ATOM     10  C   UNL     1       5.704   3.678  15.313  0.00  0.00    +0.000 C 
ATOM     11  O   UNL     1       6.500   3.884  16.502  0.00  0.00    +0.000 OA
ENDBRANCH   2   3
BRANCH   1  13
ATOM     12  O   UNL     1       2.478   7.236  20.192  0.00  0.00    +0.000 OA
ATOM     13  C   UNL     1       2.407   6.905  19.012  0.00  0.00    +0.000 C 
ATOM     14  N   UNL     1       2.323   5.579  18.589  0.00  0.00    +0.000 N 
ATOM     15  H   UNL     1       2.379   5.389  17.596  0.00  0.00    +0.000 HD
BRANCH  14  16
ATOM     16  C   UNL     1       2.313   4.445  19.473  0.00  0.00    +0.000 A 
ATOM     17  C   UNL     1       1.233   4.149  20.322  0.00  0.00    +0.000 A 
ATOM     18  C   UNL     1       1.243   3.053  21.187  0.00  0.00    +0.000 A 
ATOM     19  C   UNL     1       2.340   2.206  21.225  0.00  0.00    +0.000 A 
ATOM     20  C   UNL     1       3.436   2.474  20.400  0.00  0.00    +0.000 A 
ATOM     21  C   UNL     1       3.417   3.580  19.515  0.00  0.00    +0.000 A 
BRANCH  20  22
ATOM     22  C   UNL     1       4.620   1.575  20.419  0.00  0.00    +0.000 C 
ATOM     23  O   UNL     1       5.387   1.534  21.366  0.00  0.00    +0.000 OA
BRANCH  22  24
ATOM     24  O   UNL     1       4.755   0.790  19.327  0.00  0.00    +0.000 OA
ATOM     25  H   UNL     1       5.381   0.051  19.418  0.00  0.00    +0.000 HD
ENDBRANCH  22  24
ENDBRANCH  20  22
ENDBRANCH  14  16
ENDBRANCH   1  13
BRANCH   1  26
ATOM     26  N   UNL     1       1.177   8.675  17.716  0.00  0.00    +0.000 N 
ATOM     27  C   UNL     1       0.712   9.754  18.461  0.00  0.00    +0.000 C 
ATOM     28  O   UNL     1       1.346  10.300  19.367  0.00  0.00    +0.000 OA
ATOM     29  H   UNL     1       0.621   8.420  16.908  0.00  0.00    +0.000 HD
BRANCH  27  30
ATOM     30  C   UNL     1      -0.587  10.249  18.073  0.00  0.00    +0.000 A 
ATOM     31  C   UNL     1      -1.292  11.352  18.523  0.00  0.00    +0.000 A 
ATOM     32  C   UNL     1      -2.502  11.382  17.796  0.00  0.00    +0.000 A 
ATOM     33  C   UNL     1      -2.466  10.297  16.951  0.00  0.00    +0.000 A 
ATOM     34  O   UNL     1      -1.308   9.603  17.106  0.00  0.00    +0.000 OA
ENDBRANCH  27  30
ENDBRANCH   1  26
TORSDOF 7
ENDMDL
MODEL 8
REMARK VINA RESULT:      -7.4      4.829      8.902
REMARK  Name = 
REMARK  7 active torsions:
REMARK  status: ('A' for Active; 'I' for Inactive)
REMARK    1  A    between atoms: C_2  and  C_13
REMARK    2  A    between atoms: N_3  and  C_4
REMARK    3  A    between atoms: C_8  and  C_9
REMARK    4  A    between atoms: C_9  and  O_11
REMARK    5  A    between atoms: C_13  and  N_24
REMARK    6  A    between atoms: C_14  and  C_15
REMARK    7  A    between atoms: C_25  and  C_27
REMARK                            x       y       z     vdW  Elec       q    Type
REMARK                         _______ _______ _______ _____ _____    ______ ____
ROOT
ATOM      1  C   UNL     1       0.593  10.465  20.056  0.00  0.00    +0.000 C 
ATOM      2  C   UNL     1       0.896  11.183  21.166  0.00  0.00    +0.000 C 
ENDROOT
BRANCH   2   3
ATOM      3  C   UNL     1       0.001  12.171  21.777  0.00  0.00    +0.000 A 
ATOM      4  C   UNL     1      -0.018  13.535  21.418  0.00  0.00    +0.000 A 
ATOM      5  C   UNL     1      -1.152  14.310  21.682  0.00  0.00    +0.000 A 
ATOM      6  C   UNL     1      -2.219  13.673  22.279  0.00  0.00    +0.000 A 
ATOM      7  C   UNL     1      -2.129  12.383  22.754  0.00  0.00    +0.000 A 
ATOM      8  C   UNL     1      -1.009  11.620  22.573  0.00  0.00    +0.000 A 
ATOM      9  O   UNL     1      -3.327  11.906  23.195  0.00  0.00    +0.000 OA
ATOM     10  C   UNL     1      -4.176  12.861  22.534  0.00  0.00    +0.000 C 
ATOM     11  O   UNL     1      -3.506  14.126  22.331  0.00  0.00    +0.000 OA
ENDBRANCH   2   3
BRANCH   1  13
ATOM     12  O   UNL     1      -0.151  12.031  18.422  0.00  0.00    +0.000 OA
ATOM     13  C   UNL     1      -0.428  11.013  19.051  0.00  0.00    +0.000 C 
ATOM     14  N   UNL     1      -1.614  10.301  18.878  0.00  0.00    +0.000 N 
ATOM     15  H   UNL     1      -1.812   9.538  19.513  0.00  0.00    +0.000 HD
BRANCH  14  16
ATOM     16  C   UNL     1      -2.652  10.668  17.953  0.00  0.00    +0.000 A 
ATOM     17  C   UNL     1      -3.748  11.470  18.312  0.00  0.00    +0.000 A 
ATOM     18  C   UNL     1      -4.757  11.806  17.407  0.00  0.00    +0.000 A 
ATOM     19  C   UNL     1      -4.697  11.351  16.098  0.00  0.00    +0.000 A 
ATOM     20  C   UNL     1      -3.626  10.542  15.707  0.00  0.00    +0.000 A 
ATOM     21  C   UNL     1      -2.598  10.215  16.625  0.00  0.00    +0.000 A 
BRANCH  20  22
ATOM     22  C   UNL     1      -3.539  10.048  14.307  0.00  0.00    +0.000 C 
ATOM     23  O   UNL     1      -2.471   9.905  13.736  0.00  0.00    +0.000 OA
BRANCH  22  24
ATOM     24  O   UNL     1      -4.726   9.741  13.738  0.00  0.00    +0.000 OA
ATOM     25  H   UNL     1      -4.720   9.673  12.767  0.00  0.00    +0.000 HD
ENDBRANCH  22  24
ENDBRANCH  20  22
ENDBRANCH  14  16
ENDBRANCH   1  13
BRANCH   1  26
ATOM     26  N   UNL     1       1.240   9.272  19.766  0.00  0.00    +0.000 N 
ATOM     27  C   UNL     1       1.946   9.004  18.596  0.00  0.00    +0.000 C 
ATOM     28  O   UNL     1       2.154   9.828  17.704  0.00  0.00    +0.000 OA
ATOM     29  H   UNL     1       1.270   8.552  20.479  0.00  0.00    +0.000 HD
BRANCH  27  30
ATOM     30  C   UNL     1       2.481   7.667  18.500  0.00  0.00    +0.000 A 
ATOM     31  C   UNL     1       3.254   7.085  17.511  0.00  0.00    +0.000 A 
ATOM     32  C   UNL     1       3.513   5.761  17.927  0.00  0.00    +0.000 A 
ATOM     33  C   UNL     1       2.882   5.612  19.140  0.00  0.00    +0.000 A 
ATOM     34  O   UNL     1       2.255   6.762  19.502  0.00  0.00    +0.000 OA
ENDBRANCH  27  30
ENDBRANCH   1  26
TORSDOF 7
ENDMDL
MODEL 9
REMARK VINA RESULT:      -7.2      5.038      9.121
REMARK  Name = 
REMARK  7 active torsions:
REMARK  status: ('A' for Active; 'I' for Inactive)
REMARK    1  A    between atoms: C_2  and  C_13
REMARK    2  A    between atoms: N_3  and  C_4
REMARK    3  A    between atoms: C_8  and  C_9
REMARK    4  A    between atoms: C_9  and  O_11
REMARK    5  A    between atoms: C_13  and  N_24
REMARK    6  A    between atoms: C_14  and  C_15
REMARK    7  A    between atoms: C_25  and  C_27
REMARK                            x       y       z     vdW  Elec       q    Type
REMARK                         _______ _______ _______ _____ _____    ______ ____
ROOT
ATOM      1  C   UNL     1       0.536  10.255  20.038  0.00  0.00    +0.000 C 
ATOM      2  C   UNL     1       0.668  10.944  21.200  0.00  0.00    +0.000 C 
ENDROOT
BRANCH   2   3
ATOM      3  C   UNL     1      -0.355  11.843  21.744  0.00  0.00    +0.000 A 
ATOM      4  C   UNL     1      -1.467  11.401  22.489  0.00  0.00    +0.000 A 
ATOM      5  C   UNL     1      -2.133  12.287  23.342  0.00  0.00    +0.000 A 
ATOM      6  C   UNL     1      -1.638  13.571  23.418  0.00  0.00    +0.000 A 
ATOM      7  C   UNL     1      -0.644  14.024  22.577  0.00  0.00    +0.000 A 
ATOM      8  C   UNL     1      -0.020  13.200  21.683  0.00  0.00    +0.000 A 
ATOM      9  O   UNL     1      -0.220  15.278  22.901  0.00  0.00    +0.000 OA
ATOM     10  C   UNL     1      -0.738  15.323  24.243  0.00  0.00    +0.000 C 
ATOM     11  O   UNL     1      -1.908  14.486  24.395  0.00  0.00    +0.000 OA
ENDBRANCH   2   3
BRANCH   1  13
ATOM     12  O   UNL     1      -0.146  11.841  18.396  0.00  0.00    +0.000 OA
ATOM     13  C   UNL     1      -0.410  10.776  18.948  0.00  0.00    +0.000 C 
ATOM     14  N   UNL     1      -1.512   9.990  18.616  0.00  0.00    +0.000 N 
ATOM     15  H   UNL     1      -1.718   9.185  19.193  0.00  0.00    +0.000 HD
BRANCH  14  16
ATOM     16  C   UNL     1      -2.469  10.325  17.596  0.00  0.00    +0.000 A 
ATOM     17  C   UNL     1      -2.262  10.048  16.234  0.00  0.00    +0.000 A 
ATOM     18  C   UNL     1      -3.193  10.392  15.253  0.00  0.00    +0.000 A 
ATOM     19  C   UNL     1      -4.375  11.026  15.606  0.00  0.00    +0.000 A 
ATOM     20  C   UNL     1      -4.611  11.326  16.951  0.00  0.00    +0.000 A 
ATOM     21  C   UNL     1      -3.669  10.963  17.945  0.00  0.00    +0.000 A 
BRANCH  20  22
ATOM     22  C   UNL     1      -5.874  11.999  17.353  0.00  0.00    +0.000 C 
ATOM     23  O   UNL     1      -6.757  11.413  17.956  0.00  0.00    +0.000 OA
BRANCH  22  24
ATOM     24  O   UNL     1      -5.947  13.310  17.030  0.00  0.00    +0.000 OA
ATOM     25  H   UNL     1      -5.994  13.505  16.078  0.00  0.00    +0.000 HD
ENDBRANCH  22  24
ENDBRANCH  20  22
ENDBRANCH  14  16
ENDBRANCH   1  13
BRANCH   1  26
ATOM     26  N   UNL     1       1.293   9.122  19.777  0.00  0.00    +0.000 N 
ATOM     27  C   UNL     1       1.953   8.852  18.581  0.00  0.00    +0.000 C 
ATOM     28  O   UNL     1       2.013   9.632  17.628  0.00  0.00    +0.000 OA
ATOM     29  H   UNL     1       1.447   8.460  20.529  0.00  0.00    +0.000 HD
BRANCH  27  30
ATOM     30  C   UNL     1       2.626   7.577  18.531  0.00  0.00    +0.000 A 
ATOM     31  C   UNL     1       2.517   6.478  19.364  0.00  0.00    +0.000 A 
ATOM     32  C   UNL     1       3.388   5.493  18.848  0.00  0.00    +0.000 A 
ATOM     33  C   UNL     1       3.978   6.049  17.738  0.00  0.00    +0.000 A 
ATOM     34  O   UNL     1       3.522   7.312  17.530  0.00  0.00    +0.000 OA
ENDBRANCH  27  30
ENDBRANCH   1  26
TORSDOF 7
ENDMDL
