MODEL 1
REMARK VINA RESULT:      -6.2      0.000      0.000
REMARK  Name = 
REMARK  5 active torsions:
REMARK  status: ('A' for Active; 'I' for Inactive)
REMARK    1  A    between atoms: C_1  and  C_2
REMARK    2  A    between atoms: C_7  and  C_8
REMARK    3  A    between atoms: C_7  and  O_9
REMARK    4  A    between atoms: C_10  and  C_11
REMARK    5  A    between atoms: C_10  and  C_12
REMARK                            x       y       z     vdW  Elec       q    Type
REMARK                         _______ _______ _______ _____ _____    ______ ____
ROOT
ATOM      1  C   UNL     1       1.912   5.633  18.137  0.00  0.00    +0.000 C 
ATOM      2  C   UNL     1       2.193   4.145  17.999  0.00  0.00    +0.000 C 
ATOM      3  C   UNL     1       3.662   3.714  17.720  0.00  0.00    +0.000 C 
ATOM      4  C   UNL     1       3.504   2.186  17.861  0.00  0.00    +0.000 C 
ATOM      5  C   UNL     1       3.021   2.286  19.314  0.00  0.00    +0.000 C 
ATOM      6  C   UNL     1       4.223   3.021  19.962  0.00  0.00    +0.000 C 
ATOM      7  C   UNL     1       4.681   3.997  18.854  0.00  0.00    +0.000 C 
ATOM      8  C   UNL     1       4.837   5.434  19.322  0.00  0.00    +0.000 C 
ATOM      9  C   UNL     1       1.760   3.205  19.175  0.00  0.00    +0.000 C 
ATOM     10  C   UNL     1       1.364   3.908  20.481  0.00  0.00    +0.000 C 
ATOM     11  C   UNL     1       0.535   2.360  18.746  0.00  0.00    +0.000 C 
ENDROOT
BRANCH   7  12
ATOM     12  O   UNL     1       5.991   3.632  18.386  0.00  0.00    +0.000 OA
ATOM     13  H   UNL     1       6.664   4.007  18.974  0.00  0.00    +0.000 HD
ENDBRANCH   7  12
TORSDOF 1
ENDMDL
MODEL 2
REMARK VINA RESULT:      -6.2      2.024      3.716
REMARK  Name = 
REMARK  5 active torsions:
REMARK  status: ('A' for Active; 'I' for Inactive)
REMARK    1  A    between atoms: C_1  and  C_2
REMARK    2  A    between atoms: C_7  and  C_8
REMARK    3  A    between atoms: C_7  and  O_9
REMARK    4  A    between atoms: C_10  and  C_11
REMARK    5  A    between atoms: C_10  and  C_12
REMARK                            x       y       z     vdW  Elec       q    Type
REMARK                         _______ _______ _______ _____ _____    ______ ____
ROOT
ATOM      1  C   UNL     1       3.715   1.397  18.573  0.00  0.00    +0.000 C 
ATOM      2  C   UNL     1       3.083   2.625  17.935  0.00  0.00    +0.000 C 
ATOM      3  C   UNL     1       1.686   3.067  18.458  0.00  0.00    +0.000 C 
ATOM      4  C   UNL     1       1.550   4.405  17.703  0.00  0.00    +0.000 C 
ATOM      5  C   UNL     1       2.809   4.996  18.352  0.00  0.00    +0.000 C 
ATOM      6  C   UNL     1       2.430   4.891  19.853  0.00  0.00    +0.000 C 
ATOM      7  C   UNL     1       1.635   3.567  19.925  0.00  0.00    +0.000 C 
ATOM      8  C   UNL     1       2.114   2.618  21.011  0.00  0.00    +0.000 C 
ATOM      9  C   UNL     1       3.907   3.958  17.937  0.00  0.00    +0.000 C 
ATOM     10  C   UNL     1       5.146   3.977  18.843  0.00  0.00    +0.000 C 
ATOM     11  C   UNL     1       4.409   4.265  16.505  0.00  0.00    +0.000 C 
ENDROOT
BRANCH   7  12
ATOM     12  O   UNL     1       0.264   3.831  20.266  0.00  0.00    +0.000 OA
ATOM     13  H   UNL     1      -0.273   3.860  19.459  0.00  0.00    +0.000 HD
ENDBRANCH   7  12
TORSDOF 1
ENDMDL
MODEL 3
REMARK VINA RESULT:      -6.0      1.879      3.455
REMARK  Name = 
REMARK  5 active torsions:
REMARK  status: ('A' for Active; 'I' for Inactive)
REMARK    1  A    between atoms: C_1  and  C_2
REMARK    2  A    between atoms: C_7  and  C_8
REMARK    3  A    between atoms: C_7  and  O_9
REMARK    4  A    between atoms: C_10  and  C_11
REMARK    5  A    between atoms: C_10  and  C_12
REMARK                            x       y       z     vdW  Elec       q    Type
REMARK                         _______ _______ _______ _____ _____    ______ ____
ROOT
ATOM      1  C   UNL     1       5.039   3.713  16.707  0.00  0.00    +0.000 C 
ATOM      2  C   UNL     1       3.711   4.363  17.061  0.00  0.00    +0.000 C 
ATOM      3  C   UNL     1       2.485   3.427  17.264  0.00  0.00    +0.000 C 
ATOM      4  C   UNL     1       1.466   4.461  17.786  0.00  0.00    +0.000 C 
ATOM      5  C   UNL     1       2.333   4.828  18.999  0.00  0.00    +0.000 C 
ATOM      6  C   UNL     1       2.471   3.439  19.678  0.00  0.00    +0.000 C 
ATOM      7  C   UNL     1       2.556   2.466  18.479  0.00  0.00    +0.000 C 
ATOM      8  C   UNL     1       3.728   1.502  18.549  0.00  0.00    +0.000 C 
ATOM      9  C   UNL     1       3.663   5.297  18.318  0.00  0.00    +0.000 C 
ATOM     10  C   UNL     1       4.885   5.232  19.245  0.00  0.00    +0.000 C 
ATOM     11  C   UNL     1       3.534   6.773  17.870  0.00  0.00    +0.000 C 
ENDROOT
BRANCH   7  12
ATOM     12  O   UNL     1       1.398   1.615  18.450  0.00  0.00    +0.000 OA
ATOM     13  H   UNL     1       0.612   2.140  18.235  0.00  0.00    +0.000 HD
ENDBRANCH   7  12
TORSDOF 1
ENDMDL
MODEL 4
REMARK VINA RESULT:      -5.9      1.173      1.373
REMARK  Name = 
REMARK  5 active torsions:
REMARK  status: ('A' for Active; 'I' for Inactive)
REMARK    1  A    between atoms: C_1  and  C_2
REMARK    2  A    between atoms: C_7  and  C_8
REMARK    3  A    between atoms: C_7  and  O_9
REMARK    4  A    between atoms: C_10  and  C_11
REMARK    5  A    between atoms: C_10  and  C_12
REMARK                            x       y       z     vdW  Elec       q    Type
REMARK                         _______ _______ _______ _____ _____    ______ ____
ROOT
ATOM      1  C   UNL     1       1.379   4.970  17.761  0.00  0.00    +0.000 C 
ATOM      2  C   UNL     1       1.927   3.642  18.260  0.00  0.00    +0.000 C 
ATOM      3  C   UNL     1       3.129   3.025  17.489  0.00  0.00    +0.000 C 
ATOM      4  C   UNL     1       3.456   1.852  18.436  0.00  0.00    +0.000 C 
ATOM      5  C   UNL     1       3.732   2.779  19.627  0.00  0.00    +0.000 C 
ATOM      6  C   UNL     1       4.864   3.663  19.040  0.00  0.00    +0.000 C 
ATOM      7  C   UNL     1       4.459   3.818  17.556  0.00  0.00    +0.000 C 
ATOM      8  C   UNL     1       4.450   5.256  17.066  0.00  0.00    +0.000 C 
ATOM      9  C   UNL     1       2.376   3.552  19.759  0.00  0.00    +0.000 C 
ATOM     10  C   UNL     1       2.500   4.891  20.501  0.00  0.00    +0.000 C 
ATOM     11  C   UNL     1       1.360   2.702  20.560  0.00  0.00    +0.000 C 
ENDROOT
BRANCH   7  12
ATOM     12  O   UNL     1       5.420   3.162  16.711  0.00  0.00    +0.000 OA
ATOM     13  H   UNL     1       6.261   3.643  16.738  0.00  0.00    +0.000 HD
ENDBRANCH   7  12
TORSDOF 1
ENDMDL
MODEL 5
REMARK VINA RESULT:      -5.8      1.553      2.958
REMARK  Name = 
REMARK  5 active torsions:
REMARK  status: ('A' for Active; 'I' for Inactive)
REMARK    1  A    between atoms: C_1  and  C_2
REMARK    2  A    between atoms: C_7  and  C_8
REMARK    3  A    between atoms: C_7  and  O_9
REMARK    4  A    between atoms: C_10  and  C_11
REMARK    5  A    between atoms: C_10  and  C_12
REMARK                            x       y       z     vdW  Elec       q    Type
REMARK                         _______ _______ _______ _____ _____    ______ ____
ROOT
ATOM      1  C   UNL     1       4.458   2.269  19.650  0.00  0.00    +0.000 C 
ATOM      2  C   UNL     1       3.492   3.365  20.074  0.00  0.00    +0.000 C 
ATOM      3  C   UNL     1       3.667   4.768  19.424  0.00  0.00    +0.000 C 
ATOM      4  C   UNL     1       2.400   5.455  19.972  0.00  0.00    +0.000 C 
ATOM      5  C   UNL     1       1.459   4.440  19.309  0.00  0.00    +0.000 C 
ATOM      6  C   UNL     1       1.870   4.604  17.822  0.00  0.00    +0.000 C 
ATOM      7  C   UNL     1       3.394   4.851  17.900  0.00  0.00    +0.000 C 
ATOM      8  C   UNL     1       4.212   3.954  16.986  0.00  0.00    +0.000 C 
ATOM      9  C   UNL     1       1.957   3.087  19.922  0.00  0.00    +0.000 C 
ATOM     10  C   UNL     1       1.580   1.856  19.085  0.00  0.00    +0.000 C 
ATOM     11  C   UNL     1       1.322   2.875  21.318  0.00  0.00    +0.000 C 
ENDROOT
BRANCH   7  12
ATOM     12  O   UNL     1       3.702   6.183  17.458  0.00  0.00    +0.000 OA
ATOM     13  H   UNL     1       4.589   6.201  17.066  0.00  0.00    +0.000 HD
ENDBRANCH   7  12
TORSDOF 1
ENDMDL
MODEL 6
REMARK VINA RESULT:      -5.8      2.617      3.400
REMARK  Name = 
REMARK  5 active torsions:
REMARK  status: ('A' for Active; 'I' for Inactive)
REMARK    1  A    between atoms: C_1  and  C_2
REMARK    2  A    between atoms: C_7  and  C_8
REMARK    3  A    between atoms: C_7  and  O_9
REMARK    4  A    between atoms: C_10  and  C_11
REMARK    5  A    between atoms: C_10  and  C_12
REMARK                            x       y       z     vdW  Elec       q    Type
REMARK                         _______ _______ _______ _____ _____    ______ ____
ROOT
ATOM      1  C   UNL     1       3.946   7.379  17.673  0.00  0.00    +0.000 C 
ATOM      2  C   UNL     1       4.100   6.052  16.947  0.00  0.00    +0.000 C 
ATOM      3  C   UNL     1       5.300   5.903  15.967  0.00  0.00    +0.000 C 
ATOM      4  C   UNL     1       5.172   4.400  15.645  0.00  0.00    +0.000 C 
ATOM      5  C   UNL     1       5.352   3.983  17.111  0.00  0.00    +0.000 C 
ATOM      6  C   UNL     1       6.736   4.613  17.416  0.00  0.00    +0.000 C 
ATOM      7  C   UNL     1       6.710   5.932  16.611  0.00  0.00    +0.000 C 
ATOM      8  C   UNL     1       7.091   7.159  17.422  0.00  0.00    +0.000 C 
ATOM      9  C   UNL     1       4.177   4.747  17.812  0.00  0.00    +0.000 C 
ATOM     10  C   UNL     1       4.391   4.956  19.318  0.00  0.00    +0.000 C 
ATOM     11  C   UNL     1       2.863   3.943  17.666  0.00  0.00    +0.000 C 
ENDROOT
BRANCH   7  12
ATOM     12  O   UNL     1       7.688   5.887  15.558  0.00  0.00    +0.000 OA
ATOM     13  H   UNL     1       8.506   5.483  15.888  0.00  0.00    +0.000 HD
ENDBRANCH   7  12
TORSDOF 1
ENDMDL
MODEL 7
REMARK VINA RESULT:      -5.7      1.240      2.915
REMARK  Name = 
REMARK  5 active torsions:
REMARK  status: ('A' for Active; 'I' for Inactive)
REMARK    1  A    between atoms: C_1  and  C_2
REMARK    2  A    between atoms: C_7  and  C_8
REMARK    3  A    between atoms: C_7  and  O_9
REMARK    4  A    between atoms: C_10  and  C_11
REMARK    5  A    between atoms: C_10  and  C_12
REMARK                            x       y       z     vdW  Elec       q    Type
REMARK                         _______ _______ _______ _____ _____    ______ ____
ROOT
ATOM      1  C   UNL     1       3.084   2.570  21.172  0.00  0.00    +0.000 C 
ATOM      2  C   UNL     1       3.231   3.879  20.411  0.00  0.00    +0.000 C 
ATOM      3  C   UNL     1       4.199   3.896  19.193  0.00  0.00    +0.000 C 
ATOM      4  C   UNL     1       3.877   5.300  18.640  0.00  0.00    +0.000 C 
ATOM      5  C   UNL     1       2.397   4.962  18.410  0.00  0.00    +0.000 C 
ATOM      6  C   UNL     1       2.529   3.746  17.457  0.00  0.00    +0.000 C 
ATOM      7  C   UNL     1       3.787   3.017  17.984  0.00  0.00    +0.000 C 
ATOM      8  C   UNL     1       3.583   1.532  18.227  0.00  0.00    +0.000 C 
ATOM      9  C   UNL     1       1.932   4.549  19.848  0.00  0.00    +0.000 C 
ATOM     10  C   UNL     1       0.670   3.674  19.859  0.00  0.00    +0.000 C 
ATOM     11  C   UNL     1       1.593   5.812  20.677  0.00  0.00    +0.000 C 
ENDROOT
BRANCH   7  12
ATOM     12  O   UNL     1       4.837   3.075  17.004  0.00  0.00    +0.000 OA
ATOM     13  H   UNL     1       4.700   3.838  16.422  0.00  0.00    +0.000 HD
ENDBRANCH   7  12
TORSDOF 1
ENDMDL
MODEL 8
REMARK VINA RESULT:      -5.7      1.429      2.752
REMARK  Name = 
REMARK  5 active torsions:
REMARK  status: ('A' for Active; 'I' for Inactive)
REMARK    1  A    between atoms: C_1  and  C_2
REMARK    2  A    between atoms: C_7  and  C_8
REMARK    3  A    between atoms: C_7  and  O_9
REMARK    4  A    between atoms: C_10  and  C_11
REMARK    5  A    between atoms: C_10  and  C_12
REMARK                            x       y       z     vdW  Elec       q    Type
REMARK                         _______ _______ _______ _____ _____    ______ ____
ROOT
ATOM      1  C   UNL     1       5.240   5.109  19.326  0.00  0.00    +0.000 C 
ATOM      2  C   UNL     1       4.103   4.846  18.352  0.00  0.00    +0.000 C 
ATOM      3  C   UNL     1       3.897   3.382  17.866  0.00  0.00    +0.000 C 
ATOM      4  C   UNL     1       2.570   3.559  17.100  0.00  0.00    +0.000 C 
ATOM      5  C   UNL     1       1.816   4.043  18.346  0.00  0.00    +0.000 C 
ATOM      6  C   UNL     1       2.029   2.832  19.293  0.00  0.00    +0.000 C 
ATOM      7  C   UNL     1       3.461   2.361  18.949  0.00  0.00    +0.000 C 
ATOM      8  C   UNL     1       4.362   2.188  20.160  0.00  0.00    +0.000 C 
ATOM      9  C   UNL     1       2.660   5.292  18.772  0.00  0.00    +0.000 C 
ATOM     10  C   UNL     1       2.484   5.681  20.246  0.00  0.00    +0.000 C 
ATOM     11  C   UNL     1       2.231   6.527  17.941  0.00  0.00    +0.000 C 
ENDROOT
BRANCH   7  12
ATOM     12  O   UNL     1       3.420   1.056  18.348  0.00  0.00    +0.000 OA
ATOM     13  H   UNL     1       4.293   0.835  17.986  0.00  0.00    +0.000 HD
ENDBRANCH   7  12
TORSDOF 1
ENDMDL
MODEL 9
REMARK VINA RESULT:      -5.7      1.737      2.772
REMARK  Name = 
REMARK  5 active torsions:
REMARK  status: ('A' for Active; 'I' for Inactive)
REMARK    1  A    between atoms: C_1  and  C_2
REMARK    2  A    between atoms: C_7  and  C_8
REMARK    3  A    between atoms: C_7  and  O_9
REMARK    4  A    between atoms: C_10  and  C_11
REMARK    5  A    between atoms: C_10  and  C_12
REMARK                            x       y       z     vdW  Elec       q    Type
REMARK                         _______ _______ _______ _____ _____    ______ ____
ROOT
ATOM      1  C   UNL     1       0.741   3.239  19.785  0.00  0.00    +0.000 C 
ATOM      2  C   UNL     1       1.821   3.420  18.731  0.00  0.00    +0.000 C 
ATOM      3  C   UNL     1       2.083   4.862  18.210  0.00  0.00    +0.000 C 
ATOM      4  C   UNL     1       3.339   4.595  17.356  0.00  0.00    +0.000 C 
ATOM      5  C   UNL     1       4.147   4.078  18.555  0.00  0.00    +0.000 C 
ATOM      6  C   UNL     1       4.076   5.310  19.495  0.00  0.00    +0.000 C 
ATOM      7  C   UNL     1       2.655   5.866  19.244  0.00  0.00    +0.000 C 
ATOM      8  C   UNL     1       1.853   6.108  20.512  0.00  0.00    +0.000 C 
ATOM      9  C   UNL     1       3.259   2.889  19.057  0.00  0.00    +0.000 C 
ATOM     10  C   UNL     1       3.514   2.506  20.521  0.00  0.00    +0.000 C 
ATOM     11  C   UNL     1       3.552   1.621  18.217  0.00  0.00    +0.000 C 
ENDROOT
BRANCH   7  12
ATOM     12  O   UNL     1       2.734   7.160  18.622  0.00  0.00    +0.000 OA
ATOM     13  H   UNL     1       3.408   7.147  17.925  0.00  0.00    +0.000 HD
ENDBRANCH   7  12
TORSDOF 1
ENDMDL
