MODEL 1
REMARK VINA RESULT:      -6.9      0.000      0.000
REMARK  Name = 
REMARK  5 active torsions:
REMARK  status: ('A' for Active; 'I' for Inactive)
REMARK    1  A    between atoms: C_1  and  N_2
REMARK    2  A    between atoms: N_2  and  C_3
REMARK    3  A    between atoms: C_10  and  C_11
REMARK    4  A    between atoms: C_14  and  S_15
REMARK    5  A    between atoms: S_15  and  C_16
REMARK                            x       y       z     vdW  Elec       q    Type
REMARK                         _______ _______ _______ _____ _____    ______ ____
ROOT
ATOM      1  C   UNL     1       5.096   5.968  16.677  0.00  0.00    +0.000 A 
ATOM      2  C   UNL     1       5.047   4.612  16.270  0.00  0.00    +0.000 A 
ATOM      3 BR   UNL     1       6.396   3.869  15.153  0.00  0.00    +0.000 Br
ATOM      4  C   UNL     1       4.030   3.765  16.716  0.00  0.00    +0.000 A 
ATOM      5  N   UNL     1       3.002   4.120  17.524  0.00  0.00    +0.000 NA
ATOM      6  C   UNL     1       3.056   5.423  17.845  0.00  0.00    +0.000 A 
ATOM      7  N   UNL     1       2.158   6.087  18.621  0.00  0.00    +0.000 N 
ATOM      8  C   UNL     1       2.523   7.410  18.681  0.00  0.00    +0.000 A 
ATOM      9  N   UNL     1       3.661   7.595  18.036  0.00  0.00    +0.000 NA
ATOM     10  C   UNL     1       4.002   6.371  17.485  0.00  0.00    +0.000 A 
ATOM     11  H   UNL     1       1.358   5.659  19.065  0.00  0.00    +0.000 HD
ENDROOT
BRANCH   8  12
ATOM     12  C   UNL     1       1.742   8.432  19.383  0.00  0.00    +0.000 A 
ATOM     13  C   UNL     1       1.455   8.280  20.749  0.00  0.00    +0.000 A 
ATOM     14  C   UNL     1       0.709   9.242  21.435  0.00  0.00    +0.000 A 
ATOM     15  C   UNL     1       0.266  10.377  20.754  0.00  0.00    +0.000 A 
ATOM     16  C   UNL     1       0.535  10.545  19.395  0.00  0.00    +0.000 A 
ATOM     17  C   UNL     1       1.277   9.576  18.717  0.00  0.00    +0.000 A 
BRANCH  15  18
ATOM     18  S   UNL     1      -0.671  11.622  21.608  0.00  0.00    +0.000 S 
ATOM     19  C   UNL     1      -1.171  10.793  23.095  0.00  0.00    +0.000 C 
ATOM     20  O   UNL     1       0.246  12.689  21.966  0.00  0.00    +0.000 OA
ATOM     21  O   UNL     1      -1.858  11.894  20.818  0.00  0.00    +0.000 OA
ENDBRANCH  15  18
ENDBRANCH   8  12
BRANCH   1  23
ATOM     22  C   UNL     1       7.198   7.092  17.162  0.00  0.00    +0.000 C 
ATOM     23  N   UNL     1       6.135   6.815  16.205  0.00  0.00    +0.000 N 
ATOM     24  H   UNL     1       6.504   6.452  15.328  0.00  0.00    +0.000 HD
ENDBRANCH   1  23
TORSDOF 3
ENDMDL
MODEL 2
REMARK VINA RESULT:      -6.9      0.112      1.038
REMARK  Name = 
REMARK  5 active torsions:
REMARK  status: ('A' for Active; 'I' for Inactive)
REMARK    1  A    between atoms: C_1  and  N_2
REMARK    2  A    between atoms: N_2  and  C_3
REMARK    3  A    between atoms: C_10  and  C_11
REMARK    4  A    between atoms: C_14  and  S_15
REMARK    5  A    between atoms: S_15  and  C_16
REMARK                            x       y       z     vdW  Elec       q    Type
REMARK                         _______ _______ _______ _____ _____    ______ ____
ROOT
ATOM      1  C   UNL     1       5.038   5.848  16.711  0.00  0.00    +0.000 A 
ATOM      2  C   UNL     1       4.977   4.486  16.325  0.00  0.00    +0.000 A 
ATOM      3 BR   UNL     1       6.301   3.723  15.192  0.00  0.00    +0.000 Br
ATOM      4  C   UNL     1       3.968   3.649  16.806  0.00  0.00    +0.000 A 
ATOM      5  N   UNL     1       2.958   4.018  17.629  0.00  0.00    +0.000 NA
ATOM      6  C   UNL     1       3.022   5.326  17.930  0.00  0.00    +0.000 A 
ATOM      7  N   UNL     1       2.141   6.003  18.714  0.00  0.00    +0.000 N 
ATOM      8  C   UNL     1       2.510   7.326  18.747  0.00  0.00    +0.000 A 
ATOM      9  N   UNL     1       3.636   7.499  18.075  0.00  0.00    +0.000 NA
ATOM     10  C   UNL     1       3.962   6.266  17.536  0.00  0.00    +0.000 A 
ATOM     11  H   UNL     1       1.350   5.584  19.181  0.00  0.00    +0.000 HD
ENDROOT
BRANCH   8  12
ATOM     12  C   UNL     1       1.746   8.360  19.449  0.00  0.00    +0.000 A 
ATOM     13  C   UNL     1       1.295   9.493  18.753  0.00  0.00    +0.000 A 
ATOM     14  C   UNL     1       0.567  10.492  19.407  0.00  0.00    +0.000 A 
ATOM     15  C   UNL     1       0.271  10.345  20.762  0.00  0.00    +0.000 A 
ATOM     16  C   UNL     1       0.715   9.230  21.474  0.00  0.00    +0.000 A 
ATOM     17  C   UNL     1       1.445   8.240  20.814  0.00  0.00    +0.000 A 
BRANCH  15  18
ATOM     18  S   UNL     1      -0.666  11.593  21.613  0.00  0.00    +0.000 S 
ATOM     19  C   UNL     1      -1.148  10.775  23.112  0.00  0.00    +0.000 C 
ATOM     20  O   UNL     1       0.248  12.669  21.952  0.00  0.00    +0.000 OA
ATOM     21  O   UNL     1      -1.861  11.851  20.831  0.00  0.00    +0.000 OA
ENDBRANCH  15  18
ENDBRANCH   8  12
BRANCH   1  23
ATOM     22  C   UNL     1       7.171   6.942  17.122  0.00  0.00    +0.000 C 
ATOM     23  N   UNL     1       6.069   6.685  16.205  0.00  0.00    +0.000 N 
ATOM     24  H   UNL     1       6.399   6.323  15.312  0.00  0.00    +0.000 HD
ENDBRANCH   1  23
TORSDOF 3
ENDMDL
MODEL 3
REMARK VINA RESULT:      -6.9      2.279      3.681
REMARK  Name = 
REMARK  5 active torsions:
REMARK  status: ('A' for Active; 'I' for Inactive)
REMARK    1  A    between atoms: C_1  and  N_2
REMARK    2  A    between atoms: N_2  and  C_3
REMARK    3  A    between atoms: C_10  and  C_11
REMARK    4  A    between atoms: C_14  and  S_15
REMARK    5  A    between atoms: S_15  and  C_16
REMARK                            x       y       z     vdW  Elec       q    Type
REMARK                         _______ _______ _______ _____ _____    ______ ____
ROOT
ATOM      1  C   UNL     1       2.858   5.796  19.878  0.00  0.00    +0.000 A 
ATOM      2  C   UNL     1       3.705   5.648  18.753  0.00  0.00    +0.000 A 
ATOM      3 BR   UNL     1       4.760   4.082  18.514  0.00  0.00    +0.000 Br
ATOM      4  C   UNL     1       3.755   6.626  17.758  0.00  0.00    +0.000 A 
ATOM      5  N   UNL     1       3.064   7.791  17.758  0.00  0.00    +0.000 NA
ATOM      6  C   UNL     1       2.313   7.917  18.864  0.00  0.00    +0.000 A 
ATOM      7  N   UNL     1       1.523   8.982  19.170  0.00  0.00    +0.000 N 
ATOM      8  C   UNL     1       0.953   8.766  20.401  0.00  0.00    +0.000 A 
ATOM      9  N   UNL     1       1.292   7.571  20.854  0.00  0.00    +0.000 NA
ATOM     10  C   UNL     1       2.160   7.031  19.920  0.00  0.00    +0.000 A 
ATOM     11  H   UNL     1       1.396   9.789  18.577  0.00  0.00    +0.000 HD
ENDROOT
BRANCH   8  12
ATOM     12  C   UNL     1       0.089   9.740  21.073  0.00  0.00    +0.000 A 
ATOM     13  C   UNL     1      -0.163   9.622  22.449  0.00  0.00    +0.000 A 
ATOM     14  C   UNL     1      -0.987  10.540  23.107  0.00  0.00    +0.000 A 
ATOM     15  C   UNL     1      -1.544  11.597  22.386  0.00  0.00    +0.000 A 
ATOM     16  C   UNL     1      -1.311  11.729  21.017  0.00  0.00    +0.000 A 
ATOM     17  C   UNL     1      -0.491  10.805  20.368  0.00  0.00    +0.000 A 
BRANCH  15  18
ATOM     18  S   UNL     1      -2.583  12.786  23.202  0.00  0.00    +0.000 S 
ATOM     19  C   UNL     1      -3.382  13.610  21.848  0.00  0.00    +0.000 C 
ATOM     20  O   UNL     1      -3.588  12.049  23.946  0.00  0.00    +0.000 OA
ATOM     21  O   UNL     1      -1.715  13.740  23.867  0.00  0.00    +0.000 OA
ENDBRANCH  15  18
ENDBRANCH   8  12
BRANCH   1  23
ATOM     22  C   UNL     1       1.641   3.944  20.882  0.00  0.00    +0.000 C 
ATOM     23  N   UNL     1       2.826   4.792  20.883  0.00  0.00    +0.000 N 
ATOM     24  H   UNL     1       3.682   4.241  20.846  0.00  0.00    +0.000 HD
ENDBRANCH   1  23
TORSDOF 3
ENDMDL
MODEL 4
REMARK VINA RESULT:      -6.9      0.745      1.053
REMARK  Name = 
REMARK  5 active torsions:
REMARK  status: ('A' for Active; 'I' for Inactive)
REMARK    1  A    between atoms: C_1  and  N_2
REMARK    2  A    between atoms: N_2  and  C_3
REMARK    3  A    between atoms: C_10  and  C_11
REMARK    4  A    between atoms: C_14  and  S_15
REMARK    5  A    between atoms: S_15  and  C_16
REMARK                            x       y       z     vdW  Elec       q    Type
REMARK                         _______ _______ _______ _____ _____    ______ ____
ROOT
ATOM      1  C   UNL     1       5.005   5.944  16.724  0.00  0.00    +0.000 A 
ATOM      2  C   UNL     1       4.945   4.586  16.326  0.00  0.00    +0.000 A 
ATOM      3 BR   UNL     1       6.268   3.834  15.184  0.00  0.00    +0.000 Br
ATOM      4  C   UNL     1       3.937   3.744  16.801  0.00  0.00    +0.000 A 
ATOM      5  N   UNL     1       2.928   4.105  17.629  0.00  0.00    +0.000 NA
ATOM      6  C   UNL     1       2.991   5.410  17.941  0.00  0.00    +0.000 A 
ATOM      7  N   UNL     1       2.111   6.081  18.731  0.00  0.00    +0.000 N 
ATOM      8  C   UNL     1       2.479   7.404  18.775  0.00  0.00    +0.000 A 
ATOM      9  N   UNL     1       3.604   7.583  18.104  0.00  0.00    +0.000 NA
ATOM     10  C   UNL     1       3.930   6.354  17.553  0.00  0.00    +0.000 A 
ATOM     11  H   UNL     1       1.321   5.657  19.196  0.00  0.00    +0.000 HD
ENDROOT
BRANCH   8  12
ATOM     12  C   UNL     1       1.716   8.431  19.488  0.00  0.00    +0.000 A 
ATOM     13  C   UNL     1       1.389   8.250  20.841  0.00  0.00    +0.000 A 
ATOM     14  C   UNL     1       0.659   9.217  21.537  0.00  0.00    +0.000 A 
ATOM     15  C   UNL     1       0.272  10.386  20.879  0.00  0.00    +0.000 A 
ATOM     16  C   UNL     1       0.582  10.584  19.533  0.00  0.00    +0.000 A 
ATOM     17  C   UNL     1       1.307   9.609  18.845  0.00  0.00    +0.000 A 
BRANCH  15  18
ATOM     18  S   UNL     1      -0.644  11.638  21.746  0.00  0.00    +0.000 S 
ATOM     19  C   UNL     1       0.302  13.107  21.434  0.00  0.00    +0.000 C 
ATOM     20  O   UNL     1      -1.930  11.773  21.087  0.00  0.00    +0.000 OA
ATOM     21  O   UNL     1      -0.562  11.337  23.163  0.00  0.00    +0.000 OA
ENDBRANCH  15  18
ENDBRANCH   8  12
BRANCH   1  23
ATOM     22  C   UNL     1       7.098   7.103  17.169  0.00  0.00    +0.000 C 
ATOM     23  N   UNL     1       6.035   6.787  16.224  0.00  0.00    +0.000 N 
ATOM     24  H   UNL     1       6.406   6.400  15.357  0.00  0.00    +0.000 HD
ENDBRANCH   1  23
TORSDOF 3
ENDMDL
MODEL 5
REMARK VINA RESULT:      -6.9      5.585      8.234
REMARK  Name = 
REMARK  5 active torsions:
REMARK  status: ('A' for Active; 'I' for Inactive)
REMARK    1  A    between atoms: C_1  and  N_2
REMARK    2  A    between atoms: N_2  and  C_3
REMARK    3  A    between atoms: C_10  and  C_11
REMARK    4  A    between atoms: C_14  and  S_15
REMARK    5  A    between atoms: S_15  and  C_16
REMARK                            x       y       z     vdW  Elec       q    Type
REMARK                         _______ _______ _______ _____ _____    ______ ____
ROOT
ATOM      1  C   UNL     1      -0.469  11.021  20.803  0.00  0.00    +0.000 A 
ATOM      2  C   UNL     1      -0.884  11.233  22.140  0.00  0.00    +0.000 A 
ATOM      3 BR   UNL     1      -1.946  12.739  22.615  0.00  0.00    +0.000 Br
ATOM      4  C   UNL     1      -0.567  10.315  23.144  0.00  0.00    +0.000 A 
ATOM      5  N   UNL     1       0.164   9.186  22.982  0.00  0.00    +0.000 NA
ATOM      6  C   UNL     1       0.581   9.048  21.713  0.00  0.00    +0.000 A 
ATOM      7  N   UNL     1       1.352   8.034  21.237  0.00  0.00    +0.000 N 
ATOM      8  C   UNL     1       1.610   8.265  19.907  0.00  0.00    +0.000 A 
ATOM      9  N   UNL     1       0.969   9.349  19.503  0.00  0.00    +0.000 NA
ATOM     10  C   UNL     1       0.338   9.868  20.621  0.00  0.00    +0.000 A 
ATOM     11  H   UNL     1       1.674   7.252  21.788  0.00  0.00    +0.000 HD
ENDROOT
BRANCH   8  12
ATOM     12  C   UNL     1       2.466   7.402  19.089  0.00  0.00    +0.000 A 
ATOM     13  C   UNL     1       3.128   7.930  17.969  0.00  0.00    +0.000 A 
ATOM     14  C   UNL     1       3.946   7.122  17.174  0.00  0.00    +0.000 A 
ATOM     15  C   UNL     1       4.121   5.781  17.516  0.00  0.00    +0.000 A 
ATOM     16  C   UNL     1       3.468   5.235  18.622  0.00  0.00    +0.000 A 
ATOM     17  C   UNL     1       2.649   6.048  19.407  0.00  0.00    +0.000 A 
BRANCH  15  18
ATOM     18  S   UNL     1       5.168   4.736  16.531  0.00  0.00    +0.000 S 
ATOM     19  C   UNL     1       6.682   4.707  17.456  0.00  0.00    +0.000 C 
ATOM     20  O   UNL     1       4.595   3.402  16.549  0.00  0.00    +0.000 OA
ATOM     21  O   UNL     1       5.415   5.423  15.277  0.00  0.00    +0.000 OA
ENDBRANCH  15  18
ENDBRANCH   8  12
BRANCH   1  23
ATOM     22  C   UNL     1      -1.882  11.588  18.905  0.00  0.00    +0.000 C 
ATOM     23  N   UNL     1      -0.796  11.971  19.797  0.00  0.00    +0.000 N 
ATOM     24  H   UNL     1      -0.964  12.880  20.224  0.00  0.00    +0.000 HD
ENDBRANCH   1  23
TORSDOF 3
ENDMDL
MODEL 6
REMARK VINA RESULT:      -6.9      5.606      8.216
REMARK  Name = 
REMARK  5 active torsions:
REMARK  status: ('A' for Active; 'I' for Inactive)
REMARK    1  A    between atoms: C_1  and  N_2
REMARK    2  A    between atoms: N_2  and  C_3
REMARK    3  A    between atoms: C_10  and  C_11
REMARK    4  A    between atoms: C_14  and  S_15
REMARK    5  A    between atoms: S_15  and  C_16
REMARK                            x       y       z     vdW  Elec       q    Type
REMARK                         _______ _______ _______ _____ _____    ______ ____
ROOT
ATOM      1  C   UNL     1      -0.616  11.444  20.879  0.00  0.00    +0.000 A 
ATOM      2  C   UNL     1      -1.589  12.223  20.206  0.00  0.00    +0.000 A 
ATOM      3 BR   UNL     1      -2.637  13.509  21.137  0.00  0.00    +0.000 Br
ATOM      4  C   UNL     1      -1.775  12.104  18.827  0.00  0.00    +0.000 A 
ATOM      5  N   UNL     1      -1.109  11.254  18.009  0.00  0.00    +0.000 NA
ATOM      6  C   UNL     1      -0.233  10.498  18.692  0.00  0.00    +0.000 A 
ATOM      7  N   UNL     1       0.568   9.537  18.161  0.00  0.00    +0.000 N 
ATOM      8  C   UNL     1       1.284   8.952  19.177  0.00  0.00    +0.000 A 
ATOM      9  N   UNL     1       1.024   9.558  20.322  0.00  0.00    +0.000 NA
ATOM     10  C   UNL     1       0.059  10.514  20.047  0.00  0.00    +0.000 A 
ATOM     11  H   UNL     1       0.610   9.304  17.179  0.00  0.00    +0.000 HD
ENDROOT
BRANCH   8  12
ATOM     12  C   UNL     1       2.205   7.830  18.974  0.00  0.00    +0.000 A 
ATOM     13  C   UNL     1       3.023   7.792  17.833  0.00  0.00    +0.000 A 
ATOM     14  C   UNL     1       3.906   6.729  17.621  0.00  0.00    +0.000 A 
ATOM     15  C   UNL     1       3.986   5.708  18.568  0.00  0.00    +0.000 A 
ATOM     16  C   UNL     1       3.178   5.724  19.706  0.00  0.00    +0.000 A 
ATOM     17  C   UNL     1       2.296   6.787  19.907  0.00  0.00    +0.000 A 
BRANCH  15  18
ATOM     18  S   UNL     1       5.111   4.353  18.328  0.00  0.00    +0.000 S 
ATOM     19  C   UNL     1       4.265   2.995  19.096  0.00  0.00    +0.000 C 
ATOM     20  O   UNL     1       5.188   4.096  16.902  0.00  0.00    +0.000 OA
ATOM     21  O   UNL     1       6.307   4.637  19.099  0.00  0.00    +0.000 OA
ENDBRANCH  15  18
ENDBRANCH   8  12
BRANCH   1  23
ATOM     22  C   UNL     1      -0.983  10.480  23.082  0.00  0.00    +0.000 C 
ATOM     23  N   UNL     1      -0.447  11.574  22.284  0.00  0.00    +0.000 N 
ATOM     24  H   UNL     1       0.533  11.751  22.498  0.00  0.00    +0.000 HD
ENDBRANCH   1  23
TORSDOF 3
ENDMDL
MODEL 7
REMARK VINA RESULT:      -6.8      5.609      8.150
REMARK  Name = 
REMARK  5 active torsions:
REMARK  status: ('A' for Active; 'I' for Inactive)
REMARK    1  A    between atoms: C_1  and  N_2
REMARK    2  A    between atoms: N_2  and  C_3
REMARK    3  A    between atoms: C_10  and  C_11
REMARK    4  A    between atoms: C_14  and  S_15
REMARK    5  A    between atoms: S_15  and  C_16
REMARK                            x       y       z     vdW  Elec       q    Type
REMARK                         _______ _______ _______ _____ _____    ______ ____
ROOT
ATOM      1  C   UNL     1      -0.616  11.499  20.745  0.00  0.00    +0.000 A 
ATOM      2  C   UNL     1      -1.617  12.241  20.073  0.00  0.00    +0.000 A 
ATOM      3 BR   UNL     1      -2.667  13.536  20.991  0.00  0.00    +0.000 Br
ATOM      4  C   UNL     1      -1.833  12.079  18.702  0.00  0.00    +0.000 A 
ATOM      5  N   UNL     1      -1.171  11.217  17.893  0.00  0.00    +0.000 NA
ATOM      6  C   UNL     1      -0.266  10.497  18.577  0.00  0.00    +0.000 A 
ATOM      7  N   UNL     1       0.540   9.534  18.055  0.00  0.00    +0.000 N 
ATOM      8  C   UNL     1       1.289   8.991  19.071  0.00  0.00    +0.000 A 
ATOM      9  N   UNL     1       1.044   9.626  20.204  0.00  0.00    +0.000 NA
ATOM     10  C   UNL     1       0.057  10.557  19.924  0.00  0.00    +0.000 A 
ATOM     11  H   UNL     1       0.563   9.273  17.080  0.00  0.00    +0.000 HD
ENDROOT
BRANCH   8  12
ATOM     12  C   UNL     1       2.225   7.880  18.878  0.00  0.00    +0.000 A 
ATOM     13  C   UNL     1       2.269   6.831  19.811  0.00  0.00    +0.000 A 
ATOM     14  C   UNL     1       3.157   5.764  19.646  0.00  0.00    +0.000 A 
ATOM     15  C   UNL     1       3.991   5.736  18.528  0.00  0.00    +0.000 A 
ATOM     16  C   UNL     1       3.967   6.771  17.592  0.00  0.00    +0.000 A 
ATOM     17  C   UNL     1       3.081   7.834  17.768  0.00  0.00    +0.000 A 
BRANCH  15  18
ATOM     18  S   UNL     1       5.118   4.382  18.288  0.00  0.00    +0.000 S 
ATOM     19  C   UNL     1       4.373   3.075  19.229  0.00  0.00    +0.000 C 
ATOM     20  O   UNL     1       5.071   4.019  16.883  0.00  0.00    +0.000 OA
ATOM     21  O   UNL     1       6.373   4.741  18.922  0.00  0.00    +0.000 OA
ENDBRANCH  15  18
ENDBRANCH   8  12
BRANCH   1  23
ATOM     22  C   UNL     1      -1.056  10.678  22.992  0.00  0.00    +0.000 C 
ATOM     23  N   UNL     1      -0.417  11.673  22.141  0.00  0.00    +0.000 N 
ATOM     24  H   UNL     1       0.579  11.754  22.340  0.00  0.00    +0.000 HD
ENDBRANCH   1  23
TORSDOF 3
ENDMDL
MODEL 8
REMARK VINA RESULT:      -6.8      5.609      8.159
REMARK  Name = 
REMARK  5 active torsions:
REMARK  status: ('A' for Active; 'I' for Inactive)
REMARK    1  A    between atoms: C_1  and  N_2
REMARK    2  A    between atoms: N_2  and  C_3
REMARK    3  A    between atoms: C_10  and  C_11
REMARK    4  A    between atoms: C_14  and  S_15
REMARK    5  A    between atoms: S_15  and  C_16
REMARK                            x       y       z     vdW  Elec       q    Type
REMARK                         _______ _______ _______ _____ _____    ______ ____
ROOT
ATOM      1  C   UNL     1      -0.369  11.742  19.535  0.00  0.00    +0.000 A 
ATOM      2  C   UNL     1      -0.697  12.543  20.656  0.00  0.00    +0.000 A 
ATOM      3 BR   UNL     1      -1.572  14.220  20.446  0.00  0.00    +0.000 Br
ATOM      4  C   UNL     1      -0.432  12.103  21.955  0.00  0.00    +0.000 A 
ATOM      5  N   UNL     1       0.168  10.936  22.288  0.00  0.00    +0.000 NA
ATOM      6  C   UNL     1       0.510  10.229  21.198  0.00  0.00    +0.000 A 
ATOM      7  N   UNL     1       1.147   9.028  21.198  0.00  0.00    +0.000 N 
ATOM      8  C   UNL     1       1.366   8.646  19.896  0.00  0.00    +0.000 A 
ATOM      9  N   UNL     1       0.824   9.525  19.070  0.00  0.00    +0.000 NA
ATOM     10  C   UNL     1       0.303  10.535  19.861  0.00  0.00    +0.000 A 
ATOM     11  H   UNL     1       1.410   8.520  22.030  0.00  0.00    +0.000 HD
ENDROOT
BRANCH   8  12
ATOM     12  C   UNL     1       2.087   7.427  19.523  0.00  0.00    +0.000 A 
ATOM     13  C   UNL     1       2.820   7.385  18.326  0.00  0.00    +0.000 A 
ATOM     14  C   UNL     1       3.512   6.230  17.951  0.00  0.00    +0.000 A 
ATOM     15  C   UNL     1       3.488   5.116  18.791  0.00  0.00    +0.000 A 
ATOM     16  C   UNL     1       2.762   5.135  19.982  0.00  0.00    +0.000 A 
ATOM     17  C   UNL     1       2.070   6.291  20.346  0.00  0.00    +0.000 A 
BRANCH  15  18
ATOM     18  S   UNL     1       4.373   3.641  18.344  0.00  0.00    +0.000 S 
ATOM     19  C   UNL     1       3.082   2.430  18.211  0.00  0.00    +0.000 C 
ATOM     20  O   UNL     1       4.938   3.853  17.024  0.00  0.00    +0.000 OA
ATOM     21  O   UNL     1       5.219   3.281  19.467  0.00  0.00    +0.000 OA
ENDBRANCH  15  18
ENDBRANCH   8  12
BRANCH   1  23
ATOM     22  C   UNL     1      -1.865  11.700  17.617  0.00  0.00    +0.000 C 
ATOM     23  N   UNL     1      -0.641  12.210  18.221  0.00  0.00    +0.000 N 
ATOM     24  H   UNL     1      -0.610  13.228  18.205  0.00  0.00    +0.000 HD
ENDBRANCH   1  23
TORSDOF 3
ENDMDL
MODEL 9
REMARK VINA RESULT:      -6.8      5.591      8.178
REMARK  Name = 
REMARK  5 active torsions:
REMARK  status: ('A' for Active; 'I' for Inactive)
REMARK    1  A    between atoms: C_1  and  N_2
REMARK    2  A    between atoms: N_2  and  C_3
REMARK    3  A    between atoms: C_10  and  C_11
REMARK    4  A    between atoms: C_14  and  S_15
REMARK    5  A    between atoms: S_15  and  C_16
REMARK                            x       y       z     vdW  Elec       q    Type
REMARK                         _______ _______ _______ _____ _____    ______ ____
ROOT
ATOM      1  C   UNL     1      -0.408  11.328  20.851  0.00  0.00    +0.000 A 
ATOM      2  C   UNL     1      -0.960  11.507  22.143  0.00  0.00    +0.000 A 
ATOM      3 BR   UNL     1      -1.921  13.086  22.594  0.00  0.00    +0.000 Br
ATOM      4  C   UNL     1      -0.858  10.506  23.112  0.00  0.00    +0.000 A 
ATOM      5  N   UNL     1      -0.225   9.318  22.959  0.00  0.00    +0.000 NA
ATOM      6  C   UNL     1       0.329   9.209  21.740  0.00  0.00    +0.000 A 
ATOM      7  N   UNL     1       1.050   8.148  21.288  0.00  0.00    +0.000 N 
ATOM      8  C   UNL     1       1.490   8.426  20.016  0.00  0.00    +0.000 A 
ATOM      9  N   UNL     1       1.010   9.591  19.616  0.00  0.00    +0.000 NA
ATOM     10  C   UNL     1       0.300  10.110  20.686  0.00  0.00    +0.000 A 
ATOM     11  H   UNL     1       1.226   7.308  21.819  0.00  0.00    +0.000 HD
ENDROOT
BRANCH   8  12
ATOM     12  C   UNL     1       2.351   7.526  19.245  0.00  0.00    +0.000 A 
ATOM     13  C   UNL     1       2.583   6.218  19.699  0.00  0.00    +0.000 A 
ATOM     14  C   UNL     1       3.404   5.346  18.979  0.00  0.00    +0.000 A 
ATOM     15  C   UNL     1       3.979   5.779  17.784  0.00  0.00    +0.000 A 
ATOM     16  C   UNL     1       3.766   7.077  17.318  0.00  0.00    +0.000 A 
ATOM     17  C   UNL     1       2.949   7.942  18.046  0.00  0.00    +0.000 A 
BRANCH  15  18
ATOM     18  S   UNL     1       5.015   4.684  16.842  0.00  0.00    +0.000 S 
ATOM     19  C   UNL     1       6.554   4.736  17.725  0.00  0.00    +0.000 C 
ATOM     20  O   UNL     1       4.463   3.347  16.965  0.00  0.00    +0.000 OA
ATOM     21  O   UNL     1       5.218   5.288  15.538  0.00  0.00    +0.000 OA
ENDBRANCH  15  18
ENDBRANCH   8  12
BRANCH   1  23
ATOM     22  C   UNL     1      -1.508  12.138  18.838  0.00  0.00    +0.000 C 
ATOM     23  N   UNL     1      -0.517  12.362  19.881  0.00  0.00    +0.000 N 
ATOM     24  H   UNL     1      -0.657  13.257  20.347  0.00  0.00    +0.000 HD
ENDBRANCH   1  23
TORSDOF 3
ENDMDL
