MODEL 1
REMARK VINA RESULT:      -8.0      0.000      0.000
REMARK  Name = 
REMARK  7 active torsions:
REMARK  status: ('A' for Active; 'I' for Inactive)
REMARK    1  A    between atoms: C_1  and  C_2
REMARK    2  A    between atoms: C_2  and  C_3
REMARK    3  A    between atoms: C_3  and  N_4
REMARK    4  A    between atoms: C_7  and  C_9
REMARK    5  A    between atoms: C_9  and  C_10
REMARK    6  A    between atoms: C_10  and  C_11
REMARK    7  A    between atoms: C_11  and  C_12
REMARK                            x       y       z     vdW  Elec       q    Type
REMARK                         _______ _______ _______ _____ _____    ______ ____
ROOT
ATOM      1  N   UNL     1       5.663   5.401  17.031  0.00  0.00    +0.000 N 
ATOM      2  C   UNL     1       5.538   4.378  17.961  0.00  0.00    +0.000 A 
ATOM      3  N   UNL     1       4.693   3.293  17.840  0.00  0.00    +0.000 N 
ATOM      4  C   UNL     1       4.413   2.501  18.952  0.00  0.00    +0.000 C 
ATOM      5  O   UNL     1       4.867   2.635  20.083  0.00  0.00    +0.000 OA
ATOM      6  N   UNL     1       6.342   4.595  18.980  0.00  0.00    +0.000 NA
ATOM      7  C   UNL     1       7.021   5.742  18.714  0.00  0.00    +0.000 A 
ATOM      8  C   UNL     1       8.018   6.368  19.476  0.00  0.00    +0.000 A 
ATOM      9  C   UNL     1       8.578   7.557  19.006  0.00  0.00    +0.000 A 
ATOM     10  C   UNL     1       8.146   8.113  17.802  0.00  0.00    +0.000 A 
ATOM     11  C   UNL     1       7.153   7.496  17.025  0.00  0.00    +0.000 A 
ATOM     12  C   UNL     1       6.611   6.295  17.508  0.00  0.00    +0.000 A 
ATOM     13  H   UNL     1       4.236   3.112  16.961  0.00  0.00    +0.000 HD
ENDROOT
BRANCH   1  14
ATOM     14  C   UNL     1       4.994   5.523  15.749  0.00  0.00    +0.000 C 
BRANCH  14  16
ATOM     15  C   UNL     1       6.946   4.822  14.247  0.00  0.00    +0.000 C 
ATOM     16  C   UNL     1       5.488   4.609  14.624  0.00  0.00    +0.000 C 
ENDBRANCH  14  16
ENDBRANCH   1  14
BRANCH   4  17
ATOM     17  C   UNL     1       3.429   1.376  18.663  0.00  0.00    +0.000 C 
BRANCH  17  18
ATOM     18  C   UNL     1       2.241   1.854  17.809  0.00  0.00    +0.000 C 
BRANCH  18  19
ATOM     19  C   UNL     1       1.142   2.549  18.628  0.00  0.00    +0.000 C 
BRANCH  19  20
ATOM     20  C   UNL     1       1.506   3.975  18.980  0.00  0.00    +0.000 A 
ATOM     21  C   UNL     1       1.876   4.888  17.981  0.00  0.00    +0.000 A 
ATOM     22  C   UNL     1       2.234   6.198  18.313  0.00  0.00    +0.000 A 
ATOM     23  C   UNL     1       2.228   6.608  19.644  0.00  0.00    +0.000 A 
ATOM     24  C   UNL     1       1.859   5.711  20.645  0.00  0.00    +0.000 A 
ATOM     25  C   UNL     1       1.500   4.402  20.315  0.00  0.00    +0.000 A 
ENDBRANCH  19  20
ENDBRANCH  18  19
ENDBRANCH  17  18
ENDBRANCH   4  17
TORSDOF 6
ENDMDL
MODEL 2
REMARK VINA RESULT:      -7.8      0.327      1.040
REMARK  Name = 
REMARK  7 active torsions:
REMARK  status: ('A' for Active; 'I' for Inactive)
REMARK    1  A    between atoms: C_1  and  C_2
REMARK    2  A    between atoms: C_2  and  C_3
REMARK    3  A    between atoms: C_3  and  N_4
REMARK    4  A    between atoms: C_7  and  C_9
REMARK    5  A    between atoms: C_9  and  C_10
REMARK    6  A    between atoms: C_10  and  C_11
REMARK    7  A    between atoms: C_11  and  C_12
REMARK                            x       y       z     vdW  Elec       q    Type
REMARK                         _______ _______ _______ _____ _____    ______ ____
ROOT
ATOM      1  N   UNL     1       5.697   5.407  16.927  0.00  0.00    +0.000 N 
ATOM      2  C   UNL     1       5.530   4.405  17.872  0.00  0.00    +0.000 A 
ATOM      3  N   UNL     1       4.678   3.327  17.745  0.00  0.00    +0.000 N 
ATOM      4  C   UNL     1       4.353   2.561  18.863  0.00  0.00    +0.000 C 
ATOM      5  O   UNL     1       4.771   2.712  20.006  0.00  0.00    +0.000 OA
ATOM      6  N   UNL     1       6.303   4.635  18.912  0.00  0.00    +0.000 NA
ATOM      7  C   UNL     1       7.003   5.768  18.645  0.00  0.00    +0.000 A 
ATOM      8  C   UNL     1       7.982   6.399  19.427  0.00  0.00    +0.000 A 
ATOM      9  C   UNL     1       8.570   7.573  18.952  0.00  0.00    +0.000 A 
ATOM     10  C   UNL     1       8.183   8.108  17.723  0.00  0.00    +0.000 A 
ATOM     11  C   UNL     1       7.209   7.486  16.927  0.00  0.00    +0.000 A 
ATOM     12  C   UNL     1       6.638   6.301  17.416  0.00  0.00    +0.000 A 
ATOM     13  H   UNL     1       4.247   3.132  16.856  0.00  0.00    +0.000 HD
ENDROOT
BRANCH   1  14
ATOM     14  C   UNL     1       5.071   5.510  15.621  0.00  0.00    +0.000 C 
BRANCH  14  16
ATOM     15  C   UNL     1       6.822   4.743  13.917  0.00  0.00    +0.000 C 
ATOM     16  C   UNL     1       5.479   4.467  14.577  0.00  0.00    +0.000 C 
ENDBRANCH  14  16
ENDBRANCH   1  14
BRANCH   4  17
ATOM     17  C   UNL     1       3.366   1.440  18.565  0.00  0.00    +0.000 C 
BRANCH  17  18
ATOM     18  C   UNL     1       2.001   1.681  19.235  0.00  0.00    +0.000 C 
BRANCH  18  19
ATOM     19  C   UNL     1       1.155   2.750  18.526  0.00  0.00    +0.000 C 
BRANCH  19  20
ATOM     20  C   UNL     1       1.553   4.153  18.927  0.00  0.00    +0.000 A 
ATOM     21  C   UNL     1       1.499   4.558  20.269  0.00  0.00    +0.000 A 
ATOM     22  C   UNL     1       1.845   5.863  20.633  0.00  0.00    +0.000 A 
ATOM     23  C   UNL     1       2.247   6.776  19.661  0.00  0.00    +0.000 A 
ATOM     24  C   UNL     1       2.309   6.383  18.325  0.00  0.00    +0.000 A 
ATOM     25  C   UNL     1       1.964   5.080  17.960  0.00  0.00    +0.000 A 
ENDBRANCH  19  20
ENDBRANCH  18  19
ENDBRANCH  17  18
ENDBRANCH   4  17
TORSDOF 6
ENDMDL
MODEL 3
REMARK VINA RESULT:      -7.7      2.493      7.319
REMARK  Name = 
REMARK  7 active torsions:
REMARK  status: ('A' for Active; 'I' for Inactive)
REMARK    1  A    between atoms: C_1  and  C_2
REMARK    2  A    between atoms: C_2  and  C_3
REMARK    3  A    between atoms: C_3  and  N_4
REMARK    4  A    between atoms: C_7  and  C_9
REMARK    5  A    between atoms: C_9  and  C_10
REMARK    6  A    between atoms: C_10  and  C_11
REMARK    7  A    between atoms: C_11  and  C_12
REMARK                            x       y       z     vdW  Elec       q    Type
REMARK                         _______ _______ _______ _____ _____    ______ ____
ROOT
ATOM      1  N   UNL     1       4.036   5.617  17.965  0.00  0.00    +0.000 N 
ATOM      2  C   UNL     1       5.313   5.489  18.492  0.00  0.00    +0.000 A 
ATOM      3  N   UNL     1       6.253   6.498  18.553  0.00  0.00    +0.000 N 
ATOM      4  C   UNL     1       7.588   6.192  18.807  0.00  0.00    +0.000 C 
ATOM      5  O   UNL     1       8.060   5.081  19.023  0.00  0.00    +0.000 OA
ATOM      6  N   UNL     1       5.499   4.261  18.926  0.00  0.00    +0.000 NA
ATOM      7  C   UNL     1       4.341   3.584  18.715  0.00  0.00    +0.000 A 
ATOM      8  C   UNL     1       4.028   2.256  19.042  0.00  0.00    +0.000 A 
ATOM      9  C   UNL     1       2.762   1.763  18.720  0.00  0.00    +0.000 A 
ATOM     10  C   UNL     1       1.830   2.579  18.079  0.00  0.00    +0.000 A 
ATOM     11  C   UNL     1       2.125   3.911  17.750  0.00  0.00    +0.000 A 
ATOM     12  C   UNL     1       3.398   4.392  18.092  0.00  0.00    +0.000 A 
ATOM     13  H   UNL     1       5.980   7.447  18.355  0.00  0.00    +0.000 HD
ENDROOT
BRANCH   1  14
ATOM     14  C   UNL     1       3.413   6.812  17.425  0.00  0.00    +0.000 C 
BRANCH  14  16
ATOM     15  C   UNL     1       2.030   8.931  17.818  0.00  0.00    +0.000 C 
ATOM     16  C   UNL     1       2.470   7.578  18.357  0.00  0.00    +0.000 C 
ENDBRANCH  14  16
ENDBRANCH   1  14
BRANCH   4  17
ATOM     17  C   UNL     1       8.503   7.408  18.793  0.00  0.00    +0.000 C 
BRANCH  17  18
ATOM     18  C   UNL     1       8.170   8.368  17.637  0.00  0.00    +0.000 C 
BRANCH  18  19
ATOM     19  C   UNL     1       7.892   9.807  18.100  0.00  0.00    +0.000 C 
BRANCH  19  20
ATOM     20  C   UNL     1       9.140  10.496  18.606  0.00  0.00    +0.000 A 
ATOM     21  C   UNL     1       9.332  10.715  19.978  0.00  0.00    +0.000 A 
ATOM     22  C   UNL     1      10.475  11.374  20.440  0.00  0.00    +0.000 A 
ATOM     23  C   UNL     1      11.437  11.822  19.536  0.00  0.00    +0.000 A 
ATOM     24  C   UNL     1      11.258  11.606  18.170  0.00  0.00    +0.000 A 
ATOM     25  C   UNL     1      10.116  10.948  17.708  0.00  0.00    +0.000 A 
ENDBRANCH  19  20
ENDBRANCH  18  19
ENDBRANCH  17  18
ENDBRANCH   4  17
TORSDOF 6
ENDMDL
MODEL 4
REMARK VINA RESULT:      -7.6      4.583      6.601
REMARK  Name = 
REMARK  7 active torsions:
REMARK  status: ('A' for Active; 'I' for Inactive)
REMARK    1  A    between atoms: C_1  and  C_2
REMARK    2  A    between atoms: C_2  and  C_3
REMARK    3  A    between atoms: C_3  and  N_4
REMARK    4  A    between atoms: C_7  and  C_9
REMARK    5  A    between atoms: C_9  and  C_10
REMARK    6  A    between atoms: C_10  and  C_11
REMARK    7  A    between atoms: C_11  and  C_12
REMARK                            x       y       z     vdW  Elec       q    Type
REMARK                         _______ _______ _______ _____ _____    ______ ____
ROOT
ATOM      1  N   UNL     1       3.370   5.680  18.607  0.00  0.00    +0.000 N 
ATOM      2  C   UNL     1       3.035   7.003  18.359  0.00  0.00    +0.000 A 
ATOM      3  N   UNL     1       2.185   7.766  19.135  0.00  0.00    +0.000 N 
ATOM      4  C   UNL     1       1.674   8.963  18.637  0.00  0.00    +0.000 C 
ATOM      5  O   UNL     1       1.916   9.469  17.547  0.00  0.00    +0.000 OA
ATOM      6  N   UNL     1       3.645   7.427  17.273  0.00  0.00    +0.000 NA
ATOM      7  C   UNL     1       4.406   6.398  16.818  0.00  0.00    +0.000 A 
ATOM      8  C   UNL     1       5.270   6.367  15.713  0.00  0.00    +0.000 A 
ATOM      9  C   UNL     1       5.953   5.184  15.424  0.00  0.00    +0.000 A 
ATOM     10  C   UNL     1       5.772   4.053  16.220  0.00  0.00    +0.000 A 
ATOM     11  C   UNL     1       4.916   4.069  17.333  0.00  0.00    +0.000 A 
ATOM     12  C   UNL     1       4.248   5.271  17.613  0.00  0.00    +0.000 A 
ATOM     13  H   UNL     1       1.890   7.426  20.036  0.00  0.00    +0.000 HD
ENDROOT
BRANCH   1  14
ATOM     14  C   UNL     1       2.954   4.851  19.724  0.00  0.00    +0.000 C 
BRANCH  14  16
ATOM     15  C   UNL     1       1.010   3.428  20.591  0.00  0.00    +0.000 C 
ATOM     16  C   UNL     1       1.929   3.754  19.424  0.00  0.00    +0.000 C 
ENDBRANCH  14  16
ENDBRANCH   1  14
BRANCH   4  17
ATOM     17  C   UNL     1       0.717   9.659  19.594  0.00  0.00    +0.000 C 
BRANCH  17  18
ATOM     18  C   UNL     1       0.092  10.920  18.970  0.00  0.00    +0.000 C 
BRANCH  18  19
ATOM     19  C   UNL     1      -1.403  11.080  19.287  0.00  0.00    +0.000 C 
BRANCH  19  20
ATOM     20  C   UNL     1      -2.272  10.886  18.065  0.00  0.00    +0.000 A 
ATOM     21  C   UNL     1      -1.853  10.060  17.011  0.00  0.00    +0.000 A 
ATOM     22  C   UNL     1      -2.648   9.901  15.872  0.00  0.00    +0.000 A 
ATOM     23  C   UNL     1      -3.869  10.567  15.774  0.00  0.00    +0.000 A 
ATOM     24  C   UNL     1      -4.298  11.386  16.817  0.00  0.00    +0.000 A 
ATOM     25  C   UNL     1      -3.504  11.545  17.956  0.00  0.00    +0.000 A 
ENDBRANCH  19  20
ENDBRANCH  18  19
ENDBRANCH  17  18
ENDBRANCH   4  17
TORSDOF 6
ENDMDL
MODEL 5
REMARK VINA RESULT:      -7.6      2.491      7.127
REMARK  Name = 
REMARK  7 active torsions:
REMARK  status: ('A' for Active; 'I' for Inactive)
REMARK    1  A    between atoms: C_1  and  C_2
REMARK    2  A    between atoms: C_2  and  C_3
REMARK    3  A    between atoms: C_3  and  N_4
REMARK    4  A    between atoms: C_7  and  C_9
REMARK    5  A    between atoms: C_9  and  C_10
REMARK    6  A    between atoms: C_10  and  C_11
REMARK    7  A    between atoms: C_11  and  C_12
REMARK                            x       y       z     vdW  Elec       q    Type
REMARK                         _______ _______ _______ _____ _____    ______ ____
ROOT
ATOM      1  N   UNL     1       3.103   5.535  18.722  0.00  0.00    +0.000 N 
ATOM      2  C   UNL     1       4.473   5.341  18.820  0.00  0.00    +0.000 A 
ATOM      3  N   UNL     1       5.433   6.138  18.229  0.00  0.00    +0.000 N 
ATOM      4  C   UNL     1       6.747   5.685  18.127  0.00  0.00    +0.000 C 
ATOM      5  O   UNL     1       7.193   4.621  18.541  0.00  0.00    +0.000 OA
ATOM      6  N   UNL     1       4.726   4.282  19.560  0.00  0.00    +0.000 NA
ATOM      7  C   UNL     1       3.529   3.793  19.976  0.00  0.00    +0.000 A 
ATOM      8  C   UNL     1       3.273   2.699  20.816  0.00  0.00    +0.000 A 
ATOM      9  C   UNL     1       1.948   2.368  21.107  0.00  0.00    +0.000 A 
ATOM     10  C   UNL     1       0.900   3.112  20.564  0.00  0.00    +0.000 A 
ATOM     11  C   UNL     1       1.140   4.213  19.727  0.00  0.00    +0.000 A 
ATOM     12  C   UNL     1       2.479   4.537  19.456  0.00  0.00    +0.000 A 
ATOM     13  H   UNL     1       5.168   7.019  17.821  0.00  0.00    +0.000 HD
ENDROOT
BRANCH   1  14
ATOM     14  C   UNL     1       2.404   6.610  18.042  0.00  0.00    +0.000 C 
BRANCH  14  16
ATOM     15  C   UNL     1       1.822   9.102  17.966  0.00  0.00    +0.000 C 
ATOM     16  C   UNL     1       2.205   7.909  18.827  0.00  0.00    +0.000 C 
ENDBRANCH  14  16
ENDBRANCH   1  14
BRANCH   4  17
ATOM     17  C   UNL     1       7.670   6.659  17.407  0.00  0.00    +0.000 C 
BRANCH  17  18
ATOM     18  C   UNL     1       8.000   7.888  18.274  0.00  0.00    +0.000 C 
BRANCH  18  19
ATOM     19  C   UNL     1       8.320   9.145  17.450  0.00  0.00    +0.000 C 
BRANCH  19  20
ATOM     20  C   UNL     1       8.770  10.299  18.319  0.00  0.00    +0.000 A 
ATOM     21  C   UNL     1       8.687  11.621  17.856  0.00  0.00    +0.000 A 
ATOM     22  C   UNL     1       9.126  12.682  18.652  0.00  0.00    +0.000 A 
ATOM     23  C   UNL     1       9.654  12.435  19.917  0.00  0.00    +0.000 A 
ATOM     24  C   UNL     1       9.738  11.126  20.389  0.00  0.00    +0.000 A 
ATOM     25  C   UNL     1       9.299  10.064  19.595  0.00  0.00    +0.000 A 
ENDBRANCH  19  20
ENDBRANCH  18  19
ENDBRANCH  17  18
ENDBRANCH   4  17
TORSDOF 6
ENDMDL
MODEL 6
REMARK VINA RESULT:      -7.6      2.636      7.495
REMARK  Name = 
REMARK  7 active torsions:
REMARK  status: ('A' for Active; 'I' for Inactive)
REMARK    1  A    between atoms: C_1  and  C_2
REMARK    2  A    between atoms: C_2  and  C_3
REMARK    3  A    between atoms: C_3  and  N_4
REMARK    4  A    between atoms: C_7  and  C_9
REMARK    5  A    between atoms: C_9  and  C_10
REMARK    6  A    between atoms: C_10  and  C_11
REMARK    7  A    between atoms: C_11  and  C_12
REMARK                            x       y       z     vdW  Elec       q    Type
REMARK                         _______ _______ _______ _____ _____    ______ ____
ROOT
ATOM      1  N   UNL     1       3.379   5.518  18.468  0.00  0.00    +0.000 N 
ATOM      2  C   UNL     1       4.764   5.547  18.555  0.00  0.00    +0.000 A 
ATOM      3  N   UNL     1       5.572   6.542  18.044  0.00  0.00    +0.000 N 
ATOM      4  C   UNL     1       6.941   6.326  17.907  0.00  0.00    +0.000 C 
ATOM      5  O   UNL     1       7.562   5.317  18.225  0.00  0.00    +0.000 OA
ATOM      6  N   UNL     1       5.197   4.481  19.195  0.00  0.00    +0.000 NA
ATOM      7  C   UNL     1       4.102   3.764  19.559  0.00  0.00    +0.000 A 
ATOM      8  C   UNL     1       4.040   2.570  20.293  0.00  0.00    +0.000 A 
ATOM      9  C   UNL     1       2.791   1.999  20.546  0.00  0.00    +0.000 A 
ATOM     10  C   UNL     1       1.629   2.605  20.069  0.00  0.00    +0.000 A 
ATOM     11  C   UNL     1       1.674   3.802  19.337  0.00  0.00    +0.000 A 
ATOM     12  C   UNL     1       2.937   4.367  19.104  0.00  0.00    +0.000 A 
ATOM     13  H   UNL     1       5.160   7.401  17.716  0.00  0.00    +0.000 HD
ENDROOT
BRANCH   1  14
ATOM     14  C   UNL     1       2.504   6.519  17.885  0.00  0.00    +0.000 C 
BRANCH  14  16
ATOM     15  C   UNL     1       1.895   7.673  20.089  0.00  0.00    +0.000 C 
ATOM     16  C   UNL     1       2.360   7.838  18.650  0.00  0.00    +0.000 C 
ENDBRANCH  14  16
ENDBRANCH   1  14
BRANCH   4  17
ATOM     17  C   UNL     1       7.682   7.501  17.284  0.00  0.00    +0.000 C 
BRANCH  17  18
ATOM     18  C   UNL     1       8.205   8.483  18.349  0.00  0.00    +0.000 C 
BRANCH  18  19
ATOM     19  C   UNL     1       8.352   9.922  17.830  0.00  0.00    +0.000 C 
BRANCH  19  20
ATOM     20  C   UNL     1       9.437  10.684  18.558  0.00  0.00    +0.000 A 
ATOM     21  C   UNL     1      10.483  11.295  17.849  0.00  0.00    +0.000 A 
ATOM     22  C   UNL     1      11.496  11.979  18.526  0.00  0.00    +0.000 A 
ATOM     23  C   UNL     1      11.477  12.058  19.917  0.00  0.00    +0.000 A 
ATOM     24  C   UNL     1      10.440  11.459  20.631  0.00  0.00    +0.000 A 
ATOM     25  C   UNL     1       9.427  10.776  19.956  0.00  0.00    +0.000 A 
ENDBRANCH  19  20
ENDBRANCH  18  19
ENDBRANCH  17  18
ENDBRANCH   4  17
TORSDOF 6
ENDMDL
MODEL 7
REMARK VINA RESULT:      -7.5      6.421      9.148
REMARK  Name = 
REMARK  7 active torsions:
REMARK  status: ('A' for Active; 'I' for Inactive)
REMARK    1  A    between atoms: C_1  and  C_2
REMARK    2  A    between atoms: C_2  and  C_3
REMARK    3  A    between atoms: C_3  and  N_4
REMARK    4  A    between atoms: C_7  and  C_9
REMARK    5  A    between atoms: C_9  and  C_10
REMARK    6  A    between atoms: C_10  and  C_11
REMARK    7  A    between atoms: C_11  and  C_12
REMARK                            x       y       z     vdW  Elec       q    Type
REMARK                         _______ _______ _______ _____ _____    ______ ____
ROOT
ATOM      1  N   UNL     1      -2.472  10.725  17.779  0.00  0.00    +0.000 N 
ATOM      2  C   UNL     1      -1.220  10.868  18.359  0.00  0.00    +0.000 A 
ATOM      3  N   UNL     1      -0.062  10.266  17.909  0.00  0.00    +0.000 N 
ATOM      4  C   UNL     1       1.063  10.220  18.730  0.00  0.00    +0.000 C 
ATOM      5  O   UNL     1       1.173  10.694  19.855  0.00  0.00    +0.000 OA
ATOM      6  N   UNL     1      -1.297  11.662  19.406  0.00  0.00    +0.000 NA
ATOM      7  C   UNL     1      -2.589  12.068  19.502  0.00  0.00    +0.000 A 
ATOM      8  C   UNL     1      -3.165  12.951  20.429  0.00  0.00    +0.000 A 
ATOM      9  C   UNL     1      -4.532  13.221  20.342  0.00  0.00    +0.000 A 
ATOM     10  C   UNL     1      -5.309  12.617  19.354  0.00  0.00    +0.000 A 
ATOM     11  C   UNL     1      -4.748  11.737  18.417  0.00  0.00    +0.000 A 
ATOM     12  C   UNL     1      -3.370  11.487  18.512  0.00  0.00    +0.000 A 
ATOM     13  H   UNL     1      -0.052   9.810  17.011  0.00  0.00    +0.000 HD
ENDROOT
BRANCH   1  14
ATOM     14  C   UNL     1      -2.818   9.977  16.583  0.00  0.00    +0.000 C 
BRANCH  14  16
ATOM     15  C   UNL     1      -3.195   9.922  14.051  0.00  0.00    +0.000 C 
ATOM     16  C   UNL     1      -2.959  10.778  15.286  0.00  0.00    +0.000 C 
ENDBRANCH  14  16
ENDBRANCH   1  14
BRANCH   4  17
ATOM     17  C   UNL     1       2.239   9.481  18.107  0.00  0.00    +0.000 C 
BRANCH  17  18
ATOM     18  C   UNL     1       1.882   8.027  17.748  0.00  0.00    +0.000 C 
BRANCH  18  19
ATOM     19  C   UNL     1       2.923   7.006  18.234  0.00  0.00    +0.000 C 
BRANCH  19  20
ATOM     20  C   UNL     1       2.282   5.741  18.760  0.00  0.00    +0.000 A 
ATOM     21  C   UNL     1       2.060   5.566  20.134  0.00  0.00    +0.000 A 
ATOM     22  C   UNL     1       1.488   4.386  20.618  0.00  0.00    +0.000 A 
ATOM     23  C   UNL     1       1.135   3.368  19.735  0.00  0.00    +0.000 A 
ATOM     24  C   UNL     1       1.346   3.532  18.367  0.00  0.00    +0.000 A 
ATOM     25  C   UNL     1       1.917   4.711  17.882  0.00  0.00    +0.000 A 
ENDBRANCH  19  20
ENDBRANCH  18  19
ENDBRANCH  17  18
ENDBRANCH   4  17
TORSDOF 6
ENDMDL
MODEL 8
REMARK VINA RESULT:      -7.5      5.586      8.316
REMARK  Name = 
REMARK  7 active torsions:
REMARK  status: ('A' for Active; 'I' for Inactive)
REMARK    1  A    between atoms: C_1  and  C_2
REMARK    2  A    between atoms: C_2  and  C_3
REMARK    3  A    between atoms: C_3  and  N_4
REMARK    4  A    between atoms: C_7  and  C_9
REMARK    5  A    between atoms: C_9  and  C_10
REMARK    6  A    between atoms: C_10  and  C_11
REMARK    7  A    between atoms: C_11  and  C_12
REMARK                            x       y       z     vdW  Elec       q    Type
REMARK                         _______ _______ _______ _____ _____    ______ ____
ROOT
ATOM      1  N   UNL     1      -1.148  11.400  19.361  0.00  0.00    +0.000 N 
ATOM      2  C   UNL     1      -0.106  10.531  19.646  0.00  0.00    +0.000 A 
ATOM      3  N   UNL     1       0.709   9.932  18.706  0.00  0.00    +0.000 N 
ATOM      4  C   UNL     1       1.509   8.850  19.067  0.00  0.00    +0.000 C 
ATOM      5  O   UNL     1       1.609   8.348  20.181  0.00  0.00    +0.000 OA
ATOM      6  N   UNL     1      -0.007  10.358  20.947  0.00  0.00    +0.000 NA
ATOM      7  C   UNL     1      -0.961  11.132  21.525  0.00  0.00    +0.000 A 
ATOM      8  C   UNL     1      -1.232  11.320  22.889  0.00  0.00    +0.000 A 
ATOM      9  C   UNL     1      -2.279  12.167  23.258  0.00  0.00    +0.000 A 
ATOM     10  C   UNL     1      -3.043  12.809  22.284  0.00  0.00    +0.000 A 
ATOM     11  C   UNL     1      -2.782  12.636  20.915  0.00  0.00    +0.000 A 
ATOM     12  C   UNL     1      -1.718  11.790  20.565  0.00  0.00    +0.000 A 
ATOM     13  H   UNL     1       0.679  10.242  17.749  0.00  0.00    +0.000 HD
ENDROOT
BRANCH   1  14
ATOM     14  C   UNL     1      -1.565  11.893  18.061  0.00  0.00    +0.000 C 
BRANCH  14  16
ATOM     15  C   UNL     1      -2.660   9.775  17.126  0.00  0.00    +0.000 C 
ATOM     16  C   UNL     1      -2.815  11.254  17.449  0.00  0.00    +0.000 C 
ENDBRANCH  14  16
ENDBRANCH   1  14
BRANCH   4  17
ATOM     17  C   UNL     1       2.310   8.274  17.907  0.00  0.00    +0.000 C 
BRANCH  17  18
ATOM     18  C   UNL     1       3.146   7.053  18.333  0.00  0.00    +0.000 C 
BRANCH  18  19
ATOM     19  C   UNL     1       2.586   5.720  17.812  0.00  0.00    +0.000 C 
BRANCH  19  20
ATOM     20  C   UNL     1       2.122   4.817  18.932  0.00  0.00    +0.000 A 
ATOM     21  C   UNL     1       2.535   5.043  20.254  0.00  0.00    +0.000 A 
ATOM     22  C   UNL     1       2.122   4.192  21.284  0.00  0.00    +0.000 A 
ATOM     23  C   UNL     1       1.295   3.106  21.003  0.00  0.00    +0.000 A 
ATOM     24  C   UNL     1       0.875   2.874  19.695  0.00  0.00    +0.000 A 
ATOM     25  C   UNL     1       1.286   3.724  18.665  0.00  0.00    +0.000 A 
ENDBRANCH  19  20
ENDBRANCH  18  19
ENDBRANCH  17  18
ENDBRANCH   4  17
TORSDOF 6
ENDMDL
MODEL 9
REMARK VINA RESULT:      -7.4      2.586      7.365
REMARK  Name = 
REMARK  7 active torsions:
REMARK  status: ('A' for Active; 'I' for Inactive)
REMARK    1  A    between atoms: C_1  and  C_2
REMARK    2  A    between atoms: C_2  and  C_3
REMARK    3  A    between atoms: C_3  and  N_4
REMARK    4  A    between atoms: C_7  and  C_9
REMARK    5  A    between atoms: C_9  and  C_10
REMARK    6  A    between atoms: C_10  and  C_11
REMARK    7  A    between atoms: C_11  and  C_12
REMARK                            x       y       z     vdW  Elec       q    Type
REMARK                         _______ _______ _______ _____ _____    ______ ____
ROOT
ATOM      1  N   UNL     1       3.700   5.870  18.537  0.00  0.00    +0.000 N 
ATOM      2  C   UNL     1       5.061   5.611  18.478  0.00  0.00    +0.000 A 
ATOM      3  N   UNL     1       6.057   6.547  18.674  0.00  0.00    +0.000 N 
ATOM      4  C   UNL     1       7.365   6.262  18.288  0.00  0.00    +0.000 C 
ATOM      5  O   UNL     1       7.776   5.218  17.793  0.00  0.00    +0.000 OA
ATOM      6  N   UNL     1       5.267   4.340  18.205  0.00  0.00    +0.000 NA
ATOM      7  C   UNL     1       4.046   3.751  18.113  0.00  0.00    +0.000 A 
ATOM      8  C   UNL     1       3.738   2.403  17.876  0.00  0.00    +0.000 A 
ATOM      9  C   UNL     1       2.397   2.019  17.815  0.00  0.00    +0.000 A 
ATOM     10  C   UNL     1       1.385   2.964  17.980  0.00  0.00    +0.000 A 
ATOM     11  C   UNL     1       1.676   4.315  18.223  0.00  0.00    +0.000 A 
ATOM     12  C   UNL     1       3.030   4.679  18.294  0.00  0.00    +0.000 A 
ATOM     13  H   UNL     1       5.824   7.455  19.041  0.00  0.00    +0.000 HD
ENDROOT
BRANCH   1  14
ATOM     14  C   UNL     1       3.046   7.126  18.856  0.00  0.00    +0.000 C 
BRANCH  14  16
ATOM     15  C   UNL     1       1.738   9.180  18.064  0.00  0.00    +0.000 C 
ATOM     16  C   UNL     1       2.610   7.996  17.674  0.00  0.00    +0.000 C 
ENDBRANCH  14  16
ENDBRANCH   1  14
BRANCH   4  17
ATOM     17  C   UNL     1       8.333   7.413  18.526  0.00  0.00    +0.000 C 
BRANCH  17  18
ATOM     18  C   UNL     1       8.198   8.511  17.456  0.00  0.00    +0.000 C 
BRANCH  18  19
ATOM     19  C   UNL     1       7.899   9.900  18.041  0.00  0.00    +0.000 C 
BRANCH  19  20
ATOM     20  C   UNL     1       9.140  10.571  18.587  0.00  0.00    +0.000 A 
ATOM     21  C   UNL     1      10.154  11.014  17.725  0.00  0.00    +0.000 A 
ATOM     22  C   UNL     1      11.310  11.612  18.235  0.00  0.00    +0.000 A 
ATOM     23  C   UNL     1      11.465  11.772  19.610  0.00  0.00    +0.000 A 
ATOM     24  C   UNL     1      10.462  11.340  20.476  0.00  0.00    +0.000 A 
ATOM     25  C   UNL     1       9.307  10.742  19.968  0.00  0.00    +0.000 A 
ENDBRANCH  19  20
ENDBRANCH  18  19
ENDBRANCH  17  18
ENDBRANCH   4  17
TORSDOF 6
ENDMDL
