MODEL 1
REMARK VINA RESULT:      -7.7      0.000      0.000
REMARK  Name = 
REMARK  9 active torsions:
REMARK  status: ('A' for Active; 'I' for Inactive)
REMARK    1  A    between atoms: C_1  and  C_2
REMARK    2  A    between atoms: C_2  and  C_3
REMARK    3  A    between atoms: C_2  and  C_4
REMARK    4  A    between atoms: C_2  and  C_5
REMARK    5  A    between atoms: C_7  and  N_8
REMARK    6  A    between atoms: C_9  and  C_11
REMARK    7  A    between atoms: C_15  and  N_16
REMARK    8  A    between atoms: N_16  and  C_17
REMARK    9  A    between atoms: C_28  and  O_29
REMARK                            x       y       z     vdW  Elec       q    Type
REMARK                         _______ _______ _______ _____ _____    ______ ____
ROOT
ATOM      1  N   UNL     1       1.740   8.330  20.294  0.00  0.00    +0.000 N 
ATOM      2  C   UNL     1       0.949   9.348  19.781  0.00  0.00    +0.000 C 
ATOM      3  O   UNL     1       0.542   9.421  18.628  0.00  0.00    +0.000 OA
ATOM      4  H   UNL     1       1.998   8.379  21.272  0.00  0.00    +0.000 HD
ENDROOT
BRANCH   2   5
ATOM      5  C   UNL     1       0.553  10.459  20.700  0.00  0.00    +0.000 A 
ATOM      6  C   UNL     1       0.825  11.787  20.325  0.00  0.00    +0.000 A 
ATOM      7 CL   UNL     1       1.874  12.219  19.011  0.00  0.00    +0.000 Cl
ATOM      8  C   UNL     1       0.291  12.869  21.046  0.00  0.00    +0.000 A 
ATOM      9  C   UNL     1      -0.500  12.677  22.178  0.00  0.00    +0.000 A 
ATOM     10  C   UNL     1      -0.707  11.356  22.589  0.00  0.00    +0.000 A 
ATOM     11  C   UNL     1      -0.210  10.258  21.857  0.00  0.00    +0.000 A 
ATOM     12 CL   UNL     1      -0.641   8.688  22.448  0.00  0.00    +0.000 Cl
BRANCH   9  13
ATOM     13  N   UNL     1      -1.098  13.713  22.906  0.00  0.00    +0.000 N 
ATOM     14  H   UNL     1      -0.405  14.245  23.430  0.00  0.00    +0.000 HD
BRANCH  13  15
ATOM     15  C   UNL     1      -2.173  14.543  22.332  0.00  0.00    +0.000 C 
ATOM     16  C   UNL     1      -3.289  13.659  21.757  0.00  0.00    +0.000 C 
ATOM     17  C   UNL     1      -4.089  12.923  22.831  0.00  0.00    +0.000 C 
ATOM     18  C   UNL     1      -4.614  13.840  23.932  0.00  0.00    +0.000 C 
ATOM     19  C   UNL     1      -3.578  14.819  24.469  0.00  0.00    +0.000 C 
ATOM     20  C   UNL     1      -2.760  15.502  23.381  0.00  0.00    +0.000 C 
ENDBRANCH  13  15
ENDBRANCH   9  13
ENDBRANCH   2   5
BRANCH   1  23
ATOM     21  C   UNL     1       2.486   4.803  19.109  0.00  0.00    +0.000 A 
ATOM     22  C   UNL     1       2.060   5.892  19.907  0.00  0.00    +0.000 A 
ATOM     23  C   UNL     1       2.268   7.233  19.561  0.00  0.00    +0.000 A 
ATOM     24  C   UNL     1       3.010   7.508  18.415  0.00  0.00    +0.000 A 
ATOM     25  C   UNL     1       3.464   6.461  17.608  0.00  0.00    +0.000 A 
ATOM     26  C   UNL     1       3.191   5.127  17.942  0.00  0.00    +0.000 A 
BRANCH  21  28
ATOM     27  C   UNL     1       1.259   3.481  20.866  0.00  0.00    +0.000 C 
ATOM     28  C   UNL     1       2.090   3.376  19.564  0.00  0.00    +0.000 C 
ATOM     29  C   UNL     1       3.360   2.537  19.850  0.00  0.00    +0.000 C 
ATOM     30  C   UNL     1       1.240   2.554  18.570  0.00  0.00    +0.000 C 
ENDBRANCH  21  28
BRANCH  26  31
ATOM     31  O   UNL     1       3.622   4.155  17.088  0.00  0.00    +0.000 OA
ATOM     32  H   UNL     1       2.868   3.790  16.602  0.00  0.00    +0.000 HD
ENDBRANCH  26  31
ENDBRANCH   1  23
TORSDOF 6
ENDMDL
MODEL 2
REMARK VINA RESULT:      -7.6      1.775      3.036
REMARK  Name = 
REMARK  9 active torsions:
REMARK  status: ('A' for Active; 'I' for Inactive)
REMARK    1  A    between atoms: C_1  and  C_2
REMARK    2  A    between atoms: C_2  and  C_3
REMARK    3  A    between atoms: C_2  and  C_4
REMARK    4  A    between atoms: C_2  and  C_5
REMARK    5  A    between atoms: C_7  and  N_8
REMARK    6  A    between atoms: C_9  and  C_11
REMARK    7  A    between atoms: C_15  and  N_16
REMARK    8  A    between atoms: N_16  and  C_17
REMARK    9  A    between atoms: C_28  and  O_29
REMARK                            x       y       z     vdW  Elec       q    Type
REMARK                         _______ _______ _______ _____ _____    ______ ____
ROOT
ATOM      1  N   UNL     1       2.315   7.626  19.310  0.00  0.00    +0.000 N 
ATOM      2  C   UNL     1       1.607   8.654  18.704  0.00  0.00    +0.000 C 
ATOM      3  O   UNL     1       1.383   8.754  17.504  0.00  0.00    +0.000 OA
ATOM      4  H   UNL     1       2.419   7.653  20.316  0.00  0.00    +0.000 HD
ENDROOT
BRANCH   2   5
ATOM      5  C   UNL     1       1.068   9.744  19.576  0.00  0.00    +0.000 A 
ATOM      6  C   UNL     1       1.283  11.083  19.208  0.00  0.00    +0.000 A 
ATOM      7 CL   UNL     1       2.404  11.574  17.976  0.00  0.00    +0.000 Cl
ATOM      8  C   UNL     1       0.625  12.133  19.872  0.00  0.00    +0.000 A 
ATOM      9  C   UNL     1      -0.239  11.898  20.940  0.00  0.00    +0.000 A 
ATOM     10  C   UNL     1      -0.393  10.568  21.349  0.00  0.00    +0.000 A 
ATOM     11  C   UNL     1       0.231   9.500  20.672  0.00  0.00    +0.000 A 
ATOM     12 CL   UNL     1      -0.143   7.910  21.245  0.00  0.00    +0.000 Cl
BRANCH   9  13
ATOM     13  N   UNL     1      -0.959  12.897  21.607  0.00  0.00    +0.000 N 
ATOM     14  H   UNL     1      -1.725  13.246  21.033  0.00  0.00    +0.000 HD
BRANCH  13  15
ATOM     15  C   UNL     1      -1.291  12.787  23.039  0.00  0.00    +0.000 C 
ATOM     16  C   UNL     1      -1.267  14.170  23.707  0.00  0.00    +0.000 C 
ATOM     17  C   UNL     1      -2.410  15.077  23.254  0.00  0.00    +0.000 C 
ATOM     18  C   UNL     1      -3.785  14.425  23.370  0.00  0.00    +0.000 C 
ATOM     19  C   UNL     1      -3.844  13.005  22.821  0.00  0.00    +0.000 C 
ATOM     20  C   UNL     1      -2.669  12.136  23.246  0.00  0.00    +0.000 C 
ENDBRANCH  13  15
ENDBRANCH   9  13
ENDBRANCH   2   5
BRANCH   1  23
ATOM     21  C   UNL     1       4.925   5.505  17.552  0.00  0.00    +0.000 A 
ATOM     22  C   UNL     1       4.248   6.617  18.109  0.00  0.00    +0.000 A 
ATOM     23  C   UNL     1       2.955   6.547  18.642  0.00  0.00    +0.000 A 
ATOM     24  C   UNL     1       2.265   5.341  18.538  0.00  0.00    +0.000 A 
ATOM     25  C   UNL     1       2.891   4.224  17.978  0.00  0.00    +0.000 A 
ATOM     26  C   UNL     1       4.209   4.301  17.506  0.00  0.00    +0.000 A 
BRANCH  21  28
ATOM     27  C   UNL     1       6.498   5.381  15.589  0.00  0.00    +0.000 C 
ATOM     28  C   UNL     1       6.393   5.706  17.100  0.00  0.00    +0.000 C 
ATOM     29  C   UNL     1       7.326   4.748  17.880  0.00  0.00    +0.000 C 
ATOM     30  C   UNL     1       6.975   7.125  17.282  0.00  0.00    +0.000 C 
ENDBRANCH  21  28
BRANCH  26  31
ATOM     31  O   UNL     1       4.777   3.163  17.014  0.00  0.00    +0.000 OA
ATOM     32  H   UNL     1       5.425   2.821  17.649  0.00  0.00    +0.000 HD
ENDBRANCH  26  31
ENDBRANCH   1  23
TORSDOF 6
ENDMDL
MODEL 3
REMARK VINA RESULT:      -7.5      0.605      1.104
REMARK  Name = 
REMARK  9 active torsions:
REMARK  status: ('A' for Active; 'I' for Inactive)
REMARK    1  A    between atoms: C_1  and  C_2
REMARK    2  A    between atoms: C_2  and  C_3
REMARK    3  A    between atoms: C_2  and  C_4
REMARK    4  A    between atoms: C_2  and  C_5
REMARK    5  A    between atoms: C_7  and  N_8
REMARK    6  A    between atoms: C_9  and  C_11
REMARK    7  A    between atoms: C_15  and  N_16
REMARK    8  A    between atoms: N_16  and  C_17
REMARK    9  A    between atoms: C_28  and  O_29
REMARK                            x       y       z     vdW  Elec       q    Type
REMARK                         _______ _______ _______ _____ _____    ______ ____
ROOT
ATOM      1  N   UNL     1       1.659   8.387  20.385  0.00  0.00    +0.000 N 
ATOM      2  C   UNL     1       0.920   9.443  19.871  0.00  0.00    +0.000 C 
ATOM      3  O   UNL     1       0.573   9.567  18.703  0.00  0.00    +0.000 OA
ATOM      4  H   UNL     1       1.868   8.394  21.375  0.00  0.00    +0.000 HD
ENDROOT
BRANCH   2   5
ATOM      5  C   UNL     1       0.506  10.531  20.810  0.00  0.00    +0.000 A 
ATOM      6  C   UNL     1       0.774  11.868  20.468  0.00  0.00    +0.000 A 
ATOM      7 CL   UNL     1       1.837  12.335  19.176  0.00  0.00    +0.000 Cl
ATOM      8  C   UNL     1       0.225  12.931  21.206  0.00  0.00    +0.000 A 
ATOM      9  C   UNL     1      -0.578  12.710  22.323  0.00  0.00    +0.000 A 
ATOM     10  C   UNL     1      -0.782  11.378  22.703  0.00  0.00    +0.000 A 
ATOM     11  C   UNL     1      -0.270  10.299  21.953  0.00  0.00    +0.000 A 
ATOM     12 CL   UNL     1      -0.698   8.714  22.503  0.00  0.00    +0.000 Cl
BRANCH   9  13
ATOM     13  N   UNL     1      -1.191  13.725  23.067  0.00  0.00    +0.000 N 
ATOM     14  H   UNL     1      -0.626  14.574  23.071  0.00  0.00    +0.000 HD
BRANCH  13  15
ATOM     15  C   UNL     1      -2.641  13.979  22.984  0.00  0.00    +0.000 C 
ATOM     16  C   UNL     1      -3.295  13.830  24.365  0.00  0.00    +0.000 C 
ATOM     17  C   UNL     1      -2.903  14.941  25.340  0.00  0.00    +0.000 C 
ATOM     18  C   UNL     1      -3.105  16.344  24.774  0.00  0.00    +0.000 C 
ATOM     19  C   UNL     1      -2.572  16.522  23.358  0.00  0.00    +0.000 C 
ATOM     20  C   UNL     1      -2.933  15.379  22.419  0.00  0.00    +0.000 C 
ENDBRANCH  13  15
ENDBRANCH   9  13
ENDBRANCH   2   5
BRANCH   1  23
ATOM     21  C   UNL     1       2.432   4.880  19.158  0.00  0.00    +0.000 A 
ATOM     22  C   UNL     1       1.998   5.956  19.970  0.00  0.00    +0.000 A 
ATOM     23  C   UNL     1       2.195   7.302  19.639  0.00  0.00    +0.000 A 
ATOM     24  C   UNL     1       2.934   7.597  18.496  0.00  0.00    +0.000 A 
ATOM     25  C   UNL     1       3.396   6.563  17.677  0.00  0.00    +0.000 A 
ATOM     26  C   UNL     1       3.134   5.223  17.995  0.00  0.00    +0.000 A 
BRANCH  21  28
ATOM     27  C   UNL     1       1.256   3.524  20.925  0.00  0.00    +0.000 C 
ATOM     28  C   UNL     1       2.048   3.444  19.597  0.00  0.00    +0.000 C 
ATOM     29  C   UNL     1       3.325   2.600  19.830  0.00  0.00    +0.000 C 
ATOM     30  C   UNL     1       1.170   2.642  18.612  0.00  0.00    +0.000 C 
ENDBRANCH  21  28
BRANCH  26  31
ATOM     31  O   UNL     1       3.573   4.265  17.130  0.00  0.00    +0.000 OA
ATOM     32  H   UNL     1       3.179   3.410  17.363  0.00  0.00    +0.000 HD
ENDBRANCH  26  31
ENDBRANCH   1  23
TORSDOF 6
ENDMDL
MODEL 4
REMARK VINA RESULT:      -7.5      1.579      2.735
REMARK  Name = 
REMARK  9 active torsions:
REMARK  status: ('A' for Active; 'I' for Inactive)
REMARK    1  A    between atoms: C_1  and  C_2
REMARK    2  A    between atoms: C_2  and  C_3
REMARK    3  A    between atoms: C_2  and  C_4
REMARK    4  A    between atoms: C_2  and  C_5
REMARK    5  A    between atoms: C_7  and  N_8
REMARK    6  A    between atoms: C_9  and  C_11
REMARK    7  A    between atoms: C_15  and  N_16
REMARK    8  A    between atoms: N_16  and  C_17
REMARK    9  A    between atoms: C_28  and  O_29
REMARK                            x       y       z     vdW  Elec       q    Type
REMARK                         _______ _______ _______ _____ _____    ______ ____
ROOT
ATOM      1  N   UNL     1       2.234   7.716  19.455  0.00  0.00    +0.000 N 
ATOM      2  C   UNL     1       1.507   8.749  18.879  0.00  0.00    +0.000 C 
ATOM      3  O   UNL     1       1.184   8.822  17.700  0.00  0.00    +0.000 OA
ATOM      4  H   UNL     1       2.423   7.768  20.447  0.00  0.00    +0.000 HD
ENDROOT
BRANCH   2   5
ATOM      5  C   UNL     1       1.075   9.878  19.761  0.00  0.00    +0.000 A 
ATOM      6  C   UNL     1       1.337  11.199  19.358  0.00  0.00    +0.000 A 
ATOM      7 CL   UNL     1       2.410  11.612  18.055  0.00  0.00    +0.000 Cl
ATOM      8  C   UNL     1       0.773  12.291  20.038  0.00  0.00    +0.000 A 
ATOM      9  C   UNL     1      -0.040  12.118  21.157  0.00  0.00    +0.000 A 
ATOM     10  C   UNL     1      -0.238  10.805  21.598  0.00  0.00    +0.000 A 
ATOM     11  C   UNL     1       0.290   9.695  20.906  0.00  0.00    +0.000 A 
ATOM     12 CL   UNL     1      -0.132   8.135  21.528  0.00  0.00    +0.000 Cl
BRANCH   9  13
ATOM     13  N   UNL     1      -0.668  13.164  21.845  0.00  0.00    +0.000 N 
ATOM     14  H   UNL     1      -0.010  13.910  22.064  0.00  0.00    +0.000 HD
BRANCH  13  15
ATOM     15  C   UNL     1      -2.008  13.646  21.464  0.00  0.00    +0.000 C 
ATOM     16  C   UNL     1      -3.082  12.620  21.852  0.00  0.00    +0.000 C 
ATOM     17  C   UNL     1      -3.281  12.498  23.363  0.00  0.00    +0.000 C 
ATOM     18  C   UNL     1      -3.512  13.838  24.055  0.00  0.00    +0.000 C 
ATOM     19  C   UNL     1      -2.542  14.932  23.627  0.00  0.00    +0.000 C 
ATOM     20  C   UNL     1      -2.323  15.001  22.122  0.00  0.00    +0.000 C 
ENDBRANCH  13  15
ENDBRANCH   9  13
ENDBRANCH   2   5
BRANCH   1  23
ATOM     21  C   UNL     1       4.592   5.496  17.478  0.00  0.00    +0.000 A 
ATOM     22  C   UNL     1       3.990   6.638  18.059  0.00  0.00    +0.000 A 
ATOM     23  C   UNL     1       2.784   6.600  18.768  0.00  0.00    +0.000 A 
ATOM     24  C   UNL     1       2.095   5.391  18.830  0.00  0.00    +0.000 A 
ATOM     25  C   UNL     1       2.647   4.243  18.254  0.00  0.00    +0.000 A 
ATOM     26  C   UNL     1       3.886   4.291  17.601  0.00  0.00    +0.000 A 
BRANCH  21  28
ATOM     27  C   UNL     1       6.512   7.089  17.137  0.00  0.00    +0.000 C 
ATOM     28  C   UNL     1       5.982   5.669  16.817  0.00  0.00    +0.000 C 
ATOM     29  C   UNL     1       5.864   5.517  15.280  0.00  0.00    +0.000 C 
ATOM     30  C   UNL     1       7.081   4.682  17.268  0.00  0.00    +0.000 C 
ENDBRANCH  21  28
BRANCH  26  31
ATOM     31  O   UNL     1       4.389   3.127  17.102  0.00  0.00    +0.000 OA
ATOM     32  H   UNL     1       3.664   2.509  16.921  0.00  0.00    +0.000 HD
ENDBRANCH  26  31
ENDBRANCH   1  23
TORSDOF 6
ENDMDL
MODEL 5
REMARK VINA RESULT:      -7.5      4.741     11.405
REMARK  Name = 
REMARK  9 active torsions:
REMARK  status: ('A' for Active; 'I' for Inactive)
REMARK    1  A    between atoms: C_1  and  C_2
REMARK    2  A    between atoms: C_2  and  C_3
REMARK    3  A    between atoms: C_2  and  C_4
REMARK    4  A    between atoms: C_2  and  C_5
REMARK    5  A    between atoms: C_7  and  N_8
REMARK    6  A    between atoms: C_9  and  C_11
REMARK    7  A    between atoms: C_15  and  N_16
REMARK    8  A    between atoms: N_16  and  C_17
REMARK    9  A    between atoms: C_28  and  O_29
REMARK                            x       y       z     vdW  Elec       q    Type
REMARK                         _______ _______ _______ _____ _____    ______ ____
ROOT
ATOM      1  N   UNL     1       3.022   6.712  18.256  0.00  0.00    +0.000 N 
ATOM      2  C   UNL     1       4.085   5.892  18.609  0.00  0.00    +0.000 C 
ATOM      3  O   UNL     1       4.492   5.706  19.749  0.00  0.00    +0.000 OA
ATOM      4  H   UNL     1       2.775   6.769  17.276  0.00  0.00    +0.000 HD
ENDROOT
BRANCH   2   5
ATOM      5  C   UNL     1       4.807   5.170  17.516  0.00  0.00    +0.000 A 
ATOM      6  C   UNL     1       4.243   3.998  16.982  0.00  0.00    +0.000 A 
ATOM      7 CL   UNL     1       2.919   3.147  17.717  0.00  0.00    +0.000 Cl
ATOM      8  C   UNL     1       4.768   3.402  15.823  0.00  0.00    +0.000 A 
ATOM      9  C   UNL     1       5.885   3.924  15.172  0.00  0.00    +0.000 A 
ATOM     10  C   UNL     1       6.486   5.048  15.748  0.00  0.00    +0.000 A 
ATOM     11  C   UNL     1       5.951   5.680  16.890  0.00  0.00    +0.000 A 
ATOM     12 CL   UNL     1       6.759   7.118  17.416  0.00  0.00    +0.000 Cl
BRANCH   9  13
ATOM     13  N   UNL     1       6.422   3.403  13.988  0.00  0.00    +0.000 N 
ATOM     14  H   UNL     1       6.443   2.384  14.008  0.00  0.00    +0.000 HD
BRANCH  13  15
ATOM     15  C   UNL     1       6.076   3.963  12.669  0.00  0.00    +0.000 C 
ATOM     16  C   UNL     1       7.318   4.028  11.768  0.00  0.00    +0.000 C 
ATOM     17  C   UNL     1       7.818   2.652  11.331  0.00  0.00    +0.000 C 
ATOM     18  C   UNL     1       6.728   1.776  10.718  0.00  0.00    +0.000 C 
ATOM     19  C   UNL     1       5.429   1.758  11.513  0.00  0.00    +0.000 C 
ATOM     20  C   UNL     1       4.978   3.136  11.979  0.00  0.00    +0.000 C 
ENDBRANCH  13  15
ENDBRANCH   9  13
ENDBRANCH   2   5
BRANCH   1  23
ATOM     21  C   UNL     1       1.047   9.612  19.700  0.00  0.00    +0.000 A 
ATOM     22  C   UNL     1       1.901   8.848  18.868  0.00  0.00    +0.000 A 
ATOM     23  C   UNL     1       2.265   7.524  19.142  0.00  0.00    +0.000 A 
ATOM     24  C   UNL     1       1.836   6.959  20.341  0.00  0.00    +0.000 A 
ATOM     25  C   UNL     1       1.005   7.687  21.198  0.00  0.00    +0.000 A 
ATOM     26  C   UNL     1       0.603   8.990  20.874  0.00  0.00    +0.000 A 
BRANCH  21  28
ATOM     27  C   UNL     1      -0.669  10.918  18.398  0.00  0.00    +0.000 C 
ATOM     28  C   UNL     1       0.643  11.027  19.214  0.00  0.00    +0.000 C 
ATOM     29  C   UNL     1       1.749  11.613  18.301  0.00  0.00    +0.000 C 
ATOM     30  C   UNL     1       0.385  12.079  20.315  0.00  0.00    +0.000 C 
ENDBRANCH  21  28
BRANCH  26  31
ATOM     31  O   UNL     1      -0.244   9.627  21.731  0.00  0.00    +0.000 OA
ATOM     32  H   UNL     1      -0.336   9.108  22.545  0.00  0.00    +0.000 HD
ENDBRANCH  26  31
ENDBRANCH   1  23
TORSDOF 6
ENDMDL
MODEL 6
REMARK VINA RESULT:      -7.4      0.746      1.893
REMARK  Name = 
REMARK  9 active torsions:
REMARK  status: ('A' for Active; 'I' for Inactive)
REMARK    1  A    between atoms: C_1  and  C_2
REMARK    2  A    between atoms: C_2  and  C_3
REMARK    3  A    between atoms: C_2  and  C_4
REMARK    4  A    between atoms: C_2  and  C_5
REMARK    5  A    between atoms: C_7  and  N_8
REMARK    6  A    between atoms: C_9  and  C_11
REMARK    7  A    between atoms: C_15  and  N_16
REMARK    8  A    between atoms: N_16  and  C_17
REMARK    9  A    between atoms: C_28  and  O_29
REMARK                            x       y       z     vdW  Elec       q    Type
REMARK                         _______ _______ _______ _____ _____    ______ ____
ROOT
ATOM      1  N   UNL     1       1.834   8.259  19.841  0.00  0.00    +0.000 N 
ATOM      2  C   UNL     1       1.101   9.243  19.192  0.00  0.00    +0.000 C 
ATOM      3  O   UNL     1       0.854   9.273  17.993  0.00  0.00    +0.000 OA
ATOM      4  H   UNL     1       1.955   8.343  20.842  0.00  0.00    +0.000 HD
ENDROOT
BRANCH   2   5
ATOM      5  C   UNL     1       0.563  10.372  20.013  0.00  0.00    +0.000 A 
ATOM      6  C   UNL     1      -0.156  10.083  21.186  0.00  0.00    +0.000 A 
ATOM      7 CL   UNL     1      -0.739   8.497  21.590  0.00  0.00    +0.000 Cl
ATOM      8  C   UNL     1      -0.499  11.097  22.096  0.00  0.00    +0.000 A 
ATOM      9  C   UNL     1      -0.175  12.432  21.863  0.00  0.00    +0.000 A 
ATOM     10  C   UNL     1       0.476  12.725  20.659  0.00  0.00    +0.000 A 
ATOM     11  C   UNL     1       0.861  11.715  19.752  0.00  0.00    +0.000 A 
ATOM     12 CL   UNL     1       1.746  12.237  18.358  0.00  0.00    +0.000 Cl
BRANCH   9  13
ATOM     13  N   UNL     1      -0.447  13.477  22.755  0.00  0.00    +0.000 N 
ATOM     14  H   UNL     1       0.412  13.875  23.133  0.00  0.00    +0.000 HD
BRANCH  13  15
ATOM     15  C   UNL     1      -1.493  14.479  22.478  0.00  0.00    +0.000 C 
ATOM     16  C   UNL     1      -2.886  13.837  22.544  0.00  0.00    +0.000 C 
ATOM     17  C   UNL     1      -3.296  13.433  23.960  0.00  0.00    +0.000 C 
ATOM     18  C   UNL     1      -3.150  14.559  24.980  0.00  0.00    +0.000 C 
ATOM     19  C   UNL     1      -1.827  15.308  24.890  0.00  0.00    +0.000 C 
ATOM     20  C   UNL     1      -1.416  15.656  23.466  0.00  0.00    +0.000 C 
ENDBRANCH  13  15
ENDBRANCH   9  13
ENDBRANCH   2   5
BRANCH   1  23
ATOM     21  C   UNL     1       2.810   4.717  18.893  0.00  0.00    +0.000 A 
ATOM     22  C   UNL     1       2.261   5.820  19.590  0.00  0.00    +0.000 A 
ATOM     23  C   UNL     1       2.476   7.153  19.221  0.00  0.00    +0.000 A 
ATOM     24  C   UNL     1       3.349   7.411  18.166  0.00  0.00    +0.000 A 
ATOM     25  C   UNL     1       3.926   6.350  17.463  0.00  0.00    +0.000 A 
ATOM     26  C   UNL     1       3.648   5.021  17.811  0.00  0.00    +0.000 A 
BRANCH  21  28
ATOM     27  C   UNL     1       1.281   3.419  20.417  0.00  0.00    +0.000 C 
ATOM     28  C   UNL     1       2.397   3.295  19.350  0.00  0.00    +0.000 C 
ATOM     29  C   UNL     1       3.609   2.566  19.981  0.00  0.00    +0.000 C 
ATOM     30  C   UNL     1       1.848   2.359  18.252  0.00  0.00    +0.000 C 
ENDBRANCH  21  28
BRANCH  26  31
ATOM     31  O   UNL     1       4.207   4.033  17.056  0.00  0.00    +0.000 OA
ATOM     32  H   UNL     1       3.704   3.212  17.168  0.00  0.00    +0.000 HD
ENDBRANCH  26  31
ENDBRANCH   1  23
TORSDOF 6
ENDMDL
MODEL 7
REMARK VINA RESULT:      -7.4      2.748      9.865
REMARK  Name = 
REMARK  9 active torsions:
REMARK  status: ('A' for Active; 'I' for Inactive)
REMARK    1  A    between atoms: C_1  and  C_2
REMARK    2  A    between atoms: C_2  and  C_3
REMARK    3  A    between atoms: C_2  and  C_4
REMARK    4  A    between atoms: C_2  and  C_5
REMARK    5  A    between atoms: C_7  and  N_8
REMARK    6  A    between atoms: C_9  and  C_11
REMARK    7  A    between atoms: C_15  and  N_16
REMARK    8  A    between atoms: N_16  and  C_17
REMARK    9  A    between atoms: C_28  and  O_29
REMARK                            x       y       z     vdW  Elec       q    Type
REMARK                         _______ _______ _______ _____ _____    ______ ____
ROOT
ATOM      1  N   UNL     1       0.430  11.694  20.482  0.00  0.00    +0.000 N 
ATOM      2  C   UNL     1       0.003  10.524  19.868  0.00  0.00    +0.000 C 
ATOM      3  O   UNL     1      -0.998  10.410  19.171  0.00  0.00    +0.000 OA
ATOM      4  H   UNL     1       1.286  11.659  21.021  0.00  0.00    +0.000 HD
ENDROOT
BRANCH   2   5
ATOM      5  C   UNL     1       0.824   9.289  20.066  0.00  0.00    +0.000 A 
ATOM      6  C   UNL     1       0.622   8.512  21.219  0.00  0.00    +0.000 A 
ATOM      7 CL   UNL     1      -0.295   9.050  22.593  0.00  0.00    +0.000 Cl
ATOM      8  C   UNL     1       1.210   7.242  21.352  0.00  0.00    +0.000 A 
ATOM      9  C   UNL     1       2.043   6.714  20.367  0.00  0.00    +0.000 A 
ATOM     10  C   UNL     1       2.300   7.522  19.254  0.00  0.00    +0.000 A 
ATOM     11  C   UNL     1       1.688   8.782  19.088  0.00  0.00    +0.000 A 
ATOM     12 CL   UNL     1       2.036   9.610  17.607  0.00  0.00    +0.000 Cl
BRANCH   9  13
ATOM     13  N   UNL     1       2.617   5.438  20.422  0.00  0.00    +0.000 N 
ATOM     14  H   UNL     1       3.591   5.482  20.719  0.00  0.00    +0.000 HD
BRANCH  13  15
ATOM     15  C   UNL     1       1.882   4.281  20.966  0.00  0.00    +0.000 C 
ATOM     16  C   UNL     1       0.753   3.861  20.014  0.00  0.00    +0.000 C 
ATOM     17  C   UNL     1       1.261   3.244  18.711  0.00  0.00    +0.000 C 
ATOM     18  C   UNL     1       2.261   2.111  18.926  0.00  0.00    +0.000 C 
ATOM     19  C   UNL     1       3.346   2.428  19.946  0.00  0.00    +0.000 C 
ATOM     20  C   UNL     1       2.822   3.088  21.214  0.00  0.00    +0.000 C 
ENDBRANCH  13  15
ENDBRANCH   9  13
ENDBRANCH   2   5
BRANCH   1  23
ATOM     21  C   UNL     1      -0.425  15.331  19.819  0.00  0.00    +0.000 A 
ATOM     22  C   UNL     1       0.299  14.120  19.944  0.00  0.00    +0.000 A 
ATOM     23  C   UNL     1      -0.250  12.941  20.463  0.00  0.00    +0.000 A 
ATOM     24  C   UNL     1      -1.549  12.986  20.964  0.00  0.00    +0.000 A 
ATOM     25  C   UNL     1      -2.292  14.167  20.875  0.00  0.00    +0.000 A 
ATOM     26  C   UNL     1      -1.743  15.319  20.295  0.00  0.00    +0.000 A 
BRANCH  21  28
ATOM     27  C   UNL     1       1.647  16.047  18.580  0.00  0.00    +0.000 C 
ATOM     28  C   UNL     1       0.278  16.524  19.125  0.00  0.00    +0.000 C 
ATOM     29  C   UNL     1       0.519  17.665  20.144  0.00  0.00    +0.000 C 
ATOM     30  C   UNL     1      -0.469  17.157  17.931  0.00  0.00    +0.000 C 
ENDBRANCH  21  28
BRANCH  26  31
ATOM     31  O   UNL     1      -2.536  16.423  20.198  0.00  0.00    +0.000 OA
ATOM     32  H   UNL     1      -2.240  16.973  19.456  0.00  0.00    +0.000 HD
ENDBRANCH  26  31
ENDBRANCH   1  23
TORSDOF 6
ENDMDL
MODEL 8
REMARK VINA RESULT:      -7.4      1.005      1.605
REMARK  Name = 
REMARK  9 active torsions:
REMARK  status: ('A' for Active; 'I' for Inactive)
REMARK    1  A    between atoms: C_1  and  C_2
REMARK    2  A    between atoms: C_2  and  C_3
REMARK    3  A    between atoms: C_2  and  C_4
REMARK    4  A    between atoms: C_2  and  C_5
REMARK    5  A    between atoms: C_7  and  N_8
REMARK    6  A    between atoms: C_9  and  C_11
REMARK    7  A    between atoms: C_15  and  N_16
REMARK    8  A    between atoms: N_16  and  C_17
REMARK    9  A    between atoms: C_28  and  O_29
REMARK                            x       y       z     vdW  Elec       q    Type
REMARK                         _______ _______ _______ _____ _____    ______ ____
ROOT
ATOM      1  N   UNL     1       2.146   8.033  19.581  0.00  0.00    +0.000 N 
ATOM      2  C   UNL     1       1.361   9.010  18.985  0.00  0.00    +0.000 C 
ATOM      3  O   UNL     1       1.062   9.057  17.798  0.00  0.00    +0.000 OA
ATOM      4  H   UNL     1       2.308   8.100  20.577  0.00  0.00    +0.000 HD
ENDROOT
BRANCH   2   5
ATOM      5  C   UNL     1       0.832  10.109  19.850  0.00  0.00    +0.000 A 
ATOM      6  C   UNL     1       1.076  11.445  19.486  0.00  0.00    +0.000 A 
ATOM      7 CL   UNL     1       2.221  11.915  18.267  0.00  0.00    +0.000 Cl
ATOM      8  C   UNL     1       0.430  12.506  20.142  0.00  0.00    +0.000 A 
ATOM      9  C   UNL     1      -0.451  12.287  21.200  0.00  0.00    +0.000 A 
ATOM     10  C   UNL     1      -0.635  10.960  21.607  0.00  0.00    +0.000 A 
ATOM     11  C   UNL     1      -0.023   9.881  20.936  0.00  0.00    +0.000 A 
ATOM     12 CL   UNL     1      -0.433   8.298  21.504  0.00  0.00    +0.000 Cl
BRANCH   9  13
ATOM     13  N   UNL     1      -1.160  13.299  21.858  0.00  0.00    +0.000 N 
ATOM     14  H   UNL     1      -1.896  13.681  21.266  0.00  0.00    +0.000 HD
BRANCH  13  15
ATOM     15  C   UNL     1      -1.543  13.180  23.277  0.00  0.00    +0.000 C 
ATOM     16  C   UNL     1      -1.347  14.518  24.004  0.00  0.00    +0.000 C 
ATOM     17  C   UNL     1      -2.342  15.592  23.567  0.00  0.00    +0.000 C 
ATOM     18  C   UNL     1      -3.796  15.132  23.625  0.00  0.00    +0.000 C 
ATOM     19  C   UNL     1      -4.035  13.758  23.015  0.00  0.00    +0.000 C 
ATOM     20  C   UNL     1      -3.002  12.717  23.426  0.00  0.00    +0.000 C 
ENDBRANCH  13  15
ENDBRANCH   9  13
ENDBRANCH   2   5
BRANCH   1  23
ATOM     21  C   UNL     1       3.155   4.535  18.511  0.00  0.00    +0.000 A 
ATOM     22  C   UNL     1       2.609   5.609  19.254  0.00  0.00    +0.000 A 
ATOM     23  C   UNL     1       2.787   6.955  18.912  0.00  0.00    +0.000 A 
ATOM     24  C   UNL     1       3.618   7.256  17.835  0.00  0.00    +0.000 A 
ATOM     25  C   UNL     1       4.191   6.224  17.086  0.00  0.00    +0.000 A 
ATOM     26  C   UNL     1       3.949   4.882  17.409  0.00  0.00    +0.000 A 
BRANCH  21  28
ATOM     27  C   UNL     1       4.040   2.419  19.551  0.00  0.00    +0.000 C 
ATOM     28  C   UNL     1       2.785   3.094  18.945  0.00  0.00    +0.000 C 
ATOM     29  C   UNL     1       2.320   2.271  17.718  0.00  0.00    +0.000 C 
ATOM     30  C   UNL     1       1.668   2.967  20.003  0.00  0.00    +0.000 C 
ENDBRANCH  21  28
BRANCH  26  31
ATOM     31  O   UNL     1       4.501   3.925  16.610  0.00  0.00    +0.000 OA
ATOM     32  H   UNL     1       5.207   4.316  16.073  0.00  0.00    +0.000 HD
ENDBRANCH  26  31
ENDBRANCH   1  23
TORSDOF 6
ENDMDL
MODEL 9
REMARK VINA RESULT:      -7.3      1.998      2.868
REMARK  Name = 
REMARK  9 active torsions:
REMARK  status: ('A' for Active; 'I' for Inactive)
REMARK    1  A    between atoms: C_1  and  C_2
REMARK    2  A    between atoms: C_2  and  C_3
REMARK    3  A    between atoms: C_2  and  C_4
REMARK    4  A    between atoms: C_2  and  C_5
REMARK    5  A    between atoms: C_7  and  N_8
REMARK    6  A    between atoms: C_9  and  C_11
REMARK    7  A    between atoms: C_15  and  N_16
REMARK    8  A    between atoms: N_16  and  C_17
REMARK    9  A    between atoms: C_28  and  O_29
REMARK                            x       y       z     vdW  Elec       q    Type
REMARK                         _______ _______ _______ _____ _____    ______ ____
ROOT
ATOM      1  N   UNL     1       0.184  10.085  20.060  0.00  0.00    +0.000 N 
ATOM      2  C   UNL     1       0.429  11.227  20.811  0.00  0.00    +0.000 C 
ATOM      3  O   UNL     1       1.518  11.770  20.946  0.00  0.00    +0.000 OA
ATOM      4  H   UNL     1      -0.767   9.743  20.016  0.00  0.00    +0.000 HD
ENDROOT
BRANCH   2   5
ATOM      5  C   UNL     1      -0.725  11.858  21.523  0.00  0.00    +0.000 A 
ATOM      6  C   UNL     1      -1.382  12.949  20.928  0.00  0.00    +0.000 A 
ATOM      7 CL   UNL     1      -0.753  13.824  19.566  0.00  0.00    +0.000 Cl
ATOM      8  C   UNL     1      -2.592  13.440  21.449  0.00  0.00    +0.000 A 
ATOM      9  C   UNL     1      -3.174  12.894  22.591  0.00  0.00    +0.000 A 
ATOM     10  C   UNL     1      -2.479  11.856  23.222  0.00  0.00    +0.000 A 
ATOM     11  C   UNL     1      -1.284  11.326  22.692  0.00  0.00    +0.000 A 
ATOM     12 CL   UNL     1      -0.604   9.978  23.540  0.00  0.00    +0.000 Cl
BRANCH   9  13
ATOM     13  N   UNL     1      -4.399  13.309  23.127  0.00  0.00    +0.000 N 
ATOM     14  H   UNL     1      -4.265  13.973  23.888  0.00  0.00    +0.000 HD
BRANCH  13  15
ATOM     15  C   UNL     1      -5.555  13.620  22.266  0.00  0.00    +0.000 C 
ATOM     16  C   UNL     1      -6.658  12.566  22.440  0.00  0.00    +0.000 C 
ATOM     17  C   UNL     1      -7.340  12.628  23.806  0.00  0.00    +0.000 C 
ATOM     18  C   UNL     1      -7.838  14.023  24.173  0.00  0.00    +0.000 C 
ATOM     19  C   UNL     1      -6.823  15.129  23.918  0.00  0.00    +0.000 C 
ATOM     20  C   UNL     1      -6.121  15.018  22.572  0.00  0.00    +0.000 C 
ENDBRANCH  13  15
ENDBRANCH   9  13
ENDBRANCH   2   5
BRANCH   1  23
ATOM     21  C   UNL     1       2.385   7.196  18.960  0.00  0.00    +0.000 A 
ATOM     22  C   UNL     1       1.501   8.000  19.719  0.00  0.00    +0.000 A 
ATOM     23  C   UNL     1       1.160   9.314  19.373  0.00  0.00    +0.000 A 
ATOM     24  C   UNL     1       1.793   9.889  18.274  0.00  0.00    +0.000 A 
ATOM     25  C   UNL     1       2.687   9.135  17.508  0.00  0.00    +0.000 A 
ATOM     26  C   UNL     1       2.966   7.801  17.837  0.00  0.00    +0.000 A 
BRANCH  21  28
ATOM     27  C   UNL     1       4.098   5.463  19.595  0.00  0.00    +0.000 C 
ATOM     28  C   UNL     1       2.584   5.725  19.403  0.00  0.00    +0.000 C 
ATOM     29  C   UNL     1       2.048   4.764  18.314  0.00  0.00    +0.000 C 
ATOM     30  C   UNL     1       1.899   5.312  20.724  0.00  0.00    +0.000 C 
ENDBRANCH  21  28
BRANCH  26  31
ATOM     31  O   UNL     1       3.811   7.107  17.022  0.00  0.00    +0.000 OA
ATOM     32  H   UNL     1       3.831   6.176  17.291  0.00  0.00    +0.000 HD
ENDBRANCH  26  31
ENDBRANCH   1  23
TORSDOF 6
ENDMDL
