MODEL 1
REMARK VINA RESULT:      -6.9      0.000      0.000
REMARK  Name = 
REMARK  6 active torsions:
REMARK  status: ('A' for Active; 'I' for Inactive)
REMARK    1  A    between atoms: C_1  and  C_2
REMARK    2  A    between atoms: C_2  and  O_3
REMARK    3  A    between atoms: O_3  and  C_4
REMARK    4  A    between atoms: C_4  and  C_6
REMARK    5  A    between atoms: C_7  and  C_8
REMARK    6  A    between atoms: N_14  and  C_15
REMARK                            x       y       z     vdW  Elec       q    Type
REMARK                         _______ _______ _______ _____ _____    ______ ____
ROOT
ATOM      1  C   UNL     1       3.470   4.599  19.656  0.00  0.00    +0.000 C 
ATOM      2  C   UNL     1       3.865   5.424  18.651  0.00  0.00    +0.000 C 
ATOM      3  N   UNL     1       3.413   6.750  18.424  0.00  0.00    +0.000 N 
ATOM      4  C   UNL     1       3.912   7.588  17.322  0.00  0.00    +0.000 C 
ATOM      5  C   UNL     1       2.428   7.372  19.259  0.00  0.00    +0.000 A 
ATOM      6  C   UNL     1       1.986   8.700  19.056  0.00  0.00    +0.000 A 
ATOM      7  C   UNL     1       1.006   9.301  19.860  0.00  0.00    +0.000 A 
ATOM      8  C   UNL     1       0.424   8.590  20.895  0.00  0.00    +0.000 A 
ATOM      9  C   UNL     1       0.841   7.288  21.132  0.00  0.00    +0.000 A 
ATOM     10  C   UNL     1       1.841   6.688  20.340  0.00  0.00    +0.000 A 
ATOM     11  S   UNL     1       2.301   5.060  20.855  0.00  0.00    +0.000 S 
ENDROOT
BRANCH   2  12
ATOM     12  C   UNL     1       4.851   4.872  17.674  0.00  0.00    +0.000 A 
ATOM     13  C   UNL     1       6.228   5.058  17.865  0.00  0.00    +0.000 A 
ATOM     14  C   UNL     1       7.132   4.678  16.868  0.00  0.00    +0.000 A 
ATOM     15  C   UNL     1       6.667   4.112  15.680  0.00  0.00    +0.000 A 
ATOM     16  C   UNL     1       5.303   3.888  15.500  0.00  0.00    +0.000 A 
ATOM     17  C   UNL     1       4.398   4.249  16.500  0.00  0.00    +0.000 A 
ENDBRANCH   2  12
BRANCH   1  18
ATOM     18  C   UNL     1       3.966   3.177  19.816  0.00  0.00    +0.000 C 
ATOM     19  O   UNL     1       5.130   2.815  19.883  0.00  0.00    +0.000 OA
BRANCH  18  20
ATOM     20  O   UNL     1       2.908   2.319  19.791  0.00  0.00    +0.000 OA
BRANCH  20  22
ATOM     21  C   UNL     1       0.826   2.276  18.687  0.00  0.00    +0.000 C 
ATOM     22  C   UNL     1       2.319   2.085  18.510  0.00  0.00    +0.000 C 
ENDBRANCH  20  22
ENDBRANCH  18  20
ENDBRANCH   1  18
TORSDOF 4
ENDMDL
MODEL 2
REMARK VINA RESULT:      -6.6      0.308      1.073
REMARK  Name = 
REMARK  6 active torsions:
REMARK  status: ('A' for Active; 'I' for Inactive)
REMARK    1  A    between atoms: C_1  and  C_2
REMARK    2  A    between atoms: C_2  and  O_3
REMARK    3  A    between atoms: O_3  and  C_4
REMARK    4  A    between atoms: C_4  and  C_6
REMARK    5  A    between atoms: C_7  and  C_8
REMARK    6  A    between atoms: N_14  and  C_15
REMARK                            x       y       z     vdW  Elec       q    Type
REMARK                         _______ _______ _______ _____ _____    ______ ____
ROOT
ATOM      1  C   UNL     1       3.433   4.852  19.607  0.00  0.00    +0.000 C 
ATOM      2  C   UNL     1       3.744   5.733  18.621  0.00  0.00    +0.000 C 
ATOM      3  N   UNL     1       3.214   7.039  18.462  0.00  0.00    +0.000 N 
ATOM      4  C   UNL     1       3.625   7.943  17.375  0.00  0.00    +0.000 C 
ATOM      5  C   UNL     1       2.230   7.576  19.355  0.00  0.00    +0.000 A 
ATOM      6  C   UNL     1       1.710   8.884  19.219  0.00  0.00    +0.000 A 
ATOM      7  C   UNL     1       0.732   9.401  20.082  0.00  0.00    +0.000 A 
ATOM      8  C   UNL     1       0.229   8.622  21.109  0.00  0.00    +0.000 A 
ATOM      9  C   UNL     1       0.724   7.337  21.281  0.00  0.00    +0.000 A 
ATOM     10  C   UNL     1       1.723   6.823  20.430  0.00  0.00    +0.000 A 
ATOM     11  S   UNL     1       2.289   5.205  20.865  0.00  0.00    +0.000 S 
ENDROOT
BRANCH   2  12
ATOM     12  C   UNL     1       4.719   5.271  17.588  0.00  0.00    +0.000 A 
ATOM     13  C   UNL     1       4.299   4.476  16.511  0.00  0.00    +0.000 A 
ATOM     14  C   UNL     1       5.240   3.918  15.641  0.00  0.00    +0.000 A 
ATOM     15  C   UNL     1       6.602   4.149  15.842  0.00  0.00    +0.000 A 
ATOM     16  C   UNL     1       7.025   4.970  16.886  0.00  0.00    +0.000 A 
ATOM     17  C   UNL     1       6.087   5.544  17.746  0.00  0.00    +0.000 A 
ENDBRANCH   2  12
BRANCH   1  18
ATOM     18  C   UNL     1       4.011   3.454  19.694  0.00  0.00    +0.000 C 
ATOM     19  O   UNL     1       5.192   3.150  19.649  0.00  0.00    +0.000 OA
BRANCH  18  20
ATOM     20  O   UNL     1       2.997   2.545  19.748  0.00  0.00    +0.000 OA
BRANCH  20  22
ATOM     21  C   UNL     1       0.905   2.332  18.685  0.00  0.00    +0.000 C 
ATOM     22  C   UNL     1       2.403   2.192  18.498  0.00  0.00    +0.000 C 
ENDBRANCH  20  22
ENDBRANCH  18  20
ENDBRANCH   1  18
TORSDOF 4
ENDMDL
MODEL 3
REMARK VINA RESULT:      -6.3      1.697      2.273
REMARK  Name = 
REMARK  6 active torsions:
REMARK  status: ('A' for Active; 'I' for Inactive)
REMARK    1  A    between atoms: C_1  and  C_2
REMARK    2  A    between atoms: C_2  and  O_3
REMARK    3  A    between atoms: O_3  and  C_4
REMARK    4  A    between atoms: C_4  and  C_6
REMARK    5  A    between atoms: C_7  and  C_8
REMARK    6  A    between atoms: N_14  and  C_15
REMARK                            x       y       z     vdW  Elec       q    Type
REMARK                         _______ _______ _______ _____ _____    ______ ____
ROOT
ATOM      1  C   UNL     1       1.816   6.298  20.351  0.00  0.00    +0.000 C 
ATOM      2  C   UNL     1       2.520   6.627  19.236  0.00  0.00    +0.000 C 
ATOM      3  N   UNL     1       2.518   7.886  18.581  0.00  0.00    +0.000 N 
ATOM      4  C   UNL     1       3.332   8.168  17.388  0.00  0.00    +0.000 C 
ATOM      5  C   UNL     1       1.715   8.981  19.039  0.00  0.00    +0.000 A 
ATOM      6  C   UNL     1       1.721  10.246  18.407  0.00  0.00    +0.000 A 
ATOM      7  C   UNL     1       0.919  11.312  18.843  0.00  0.00    +0.000 A 
ATOM      8  C   UNL     1       0.070  11.146  19.924  0.00  0.00    +0.000 A 
ATOM      9  C   UNL     1       0.046   9.922  20.576  0.00  0.00    +0.000 A 
ATOM     10  C   UNL     1       0.867   8.856  20.155  0.00  0.00    +0.000 A 
ATOM     11  S   UNL     1       0.762   7.410  21.167  0.00  0.00    +0.000 S 
ENDROOT
BRANCH   2  12
ATOM     12  C   UNL     1       3.356   5.550  18.625  0.00  0.00    +0.000 A 
ATOM     13  C   UNL     1       4.698   5.387  19.000  0.00  0.00    +0.000 A 
ATOM     14  C   UNL     1       5.514   4.485  18.311  0.00  0.00    +0.000 A 
ATOM     15  C   UNL     1       4.997   3.744  17.248  0.00  0.00    +0.000 A 
ATOM     16  C   UNL     1       3.654   3.872  16.895  0.00  0.00    +0.000 A 
ATOM     17  C   UNL     1       2.831   4.759  17.592  0.00  0.00    +0.000 A 
ENDBRANCH   2  12
BRANCH   1  18
ATOM     18  C   UNL     1       1.835   4.918  20.976  0.00  0.00    +0.000 C 
ATOM     19  O   UNL     1       2.649   4.495  21.782  0.00  0.00    +0.000 OA
BRANCH  18  20
ATOM     20  O   UNL     1       0.838   4.160  20.439  0.00  0.00    +0.000 OA
BRANCH  20  22
ATOM     21  C   UNL     1       0.717   2.373  18.907  0.00  0.00    +0.000 C 
ATOM     22  C   UNL     1       1.107   2.762  20.320  0.00  0.00    +0.000 C 
ENDBRANCH  20  22
ENDBRANCH  18  20
ENDBRANCH   1  18
TORSDOF 4
ENDMDL
MODEL 4
REMARK VINA RESULT:      -6.3      2.764      4.761
REMARK  Name = 
REMARK  6 active torsions:
REMARK  status: ('A' for Active; 'I' for Inactive)
REMARK    1  A    between atoms: C_1  and  C_2
REMARK    2  A    between atoms: C_2  and  O_3
REMARK    3  A    between atoms: O_3  and  C_4
REMARK    4  A    between atoms: C_4  and  C_6
REMARK    5  A    between atoms: C_7  and  C_8
REMARK    6  A    between atoms: N_14  and  C_15
REMARK                            x       y       z     vdW  Elec       q    Type
REMARK                         _______ _______ _______ _____ _____    ______ ____
ROOT
ATOM      1  C   UNL     1       5.220   3.987  17.077  0.00  0.00    +0.000 C 
ATOM      2  C   UNL     1       5.028   4.962  18.003  0.00  0.00    +0.000 C 
ATOM      3  N   UNL     1       3.943   5.056  18.912  0.00  0.00    +0.000 N 
ATOM      4  C   UNL     1       3.822   6.136  19.905  0.00  0.00    +0.000 C 
ATOM      5  C   UNL     1       2.877   4.099  18.927  0.00  0.00    +0.000 A 
ATOM      6  C   UNL     1       1.801   4.171  19.842  0.00  0.00    +0.000 A 
ATOM      7  C   UNL     1       0.747   3.245  19.843  0.00  0.00    +0.000 A 
ATOM      8  C   UNL     1       0.725   2.216  18.917  0.00  0.00    +0.000 A 
ATOM      9  C   UNL     1       1.769   2.107  18.010  0.00  0.00    +0.000 A 
ATOM     10  C   UNL     1       2.842   3.022  18.022  0.00  0.00    +0.000 A 
ATOM     11  S   UNL     1       4.119   2.663  16.853  0.00  0.00    +0.000 S 
ENDROOT
BRANCH   2  12
ATOM     12  C   UNL     1       6.045   6.056  18.050  0.00  0.00    +0.000 A 
ATOM     13  C   UNL     1       5.954   7.155  17.183  0.00  0.00    +0.000 A 
ATOM     14  C   UNL     1       6.992   8.090  17.125  0.00  0.00    +0.000 A 
ATOM     15  C   UNL     1       8.122   7.932  17.929  0.00  0.00    +0.000 A 
ATOM     16  C   UNL     1       8.201   6.864  18.820  0.00  0.00    +0.000 A 
ATOM     17  C   UNL     1       7.159   5.938  18.895  0.00  0.00    +0.000 A 
ENDBRANCH   2  12
BRANCH   1  18
ATOM     18  C   UNL     1       6.386   3.969  16.109  0.00  0.00    +0.000 C 
ATOM     19  O   UNL     1       7.559   4.170  16.378  0.00  0.00    +0.000 OA
BRANCH  18  20
ATOM     20  O   UNL     1       5.923   3.775  14.842  0.00  0.00    +0.000 OA
BRANCH  20  22
ATOM     21  C   UNL     1       6.349   3.604  12.530  0.00  0.00    +0.000 C 
ATOM     22  C   UNL     1       6.693   4.367  13.794  0.00  0.00    +0.000 C 
ENDBRANCH  20  22
ENDBRANCH  18  20
ENDBRANCH   1  18
TORSDOF 4
ENDMDL
MODEL 5
REMARK VINA RESULT:      -6.3      2.503      6.083
REMARK  Name = 
REMARK  6 active torsions:
REMARK  status: ('A' for Active; 'I' for Inactive)
REMARK    1  A    between atoms: C_1  and  C_2
REMARK    2  A    between atoms: C_2  and  O_3
REMARK    3  A    between atoms: O_3  and  C_4
REMARK    4  A    between atoms: C_4  and  C_6
REMARK    5  A    between atoms: C_7  and  C_8
REMARK    6  A    between atoms: N_14  and  C_15
REMARK                            x       y       z     vdW  Elec       q    Type
REMARK                         _______ _______ _______ _____ _____    ______ ____
ROOT
ATOM      1  C   UNL     1       3.404   6.216  18.057  0.00  0.00    +0.000 C 
ATOM      2  C   UNL     1       3.429   4.869  18.233  0.00  0.00    +0.000 C 
ATOM      3  N   UNL     1       4.198   3.937  17.489  0.00  0.00    +0.000 N 
ATOM      4  C   UNL     1       4.186   2.491  17.762  0.00  0.00    +0.000 C 
ATOM      5  C   UNL     1       5.047   4.342  16.408  0.00  0.00    +0.000 A 
ATOM      6  C   UNL     1       5.834   3.425  15.673  0.00  0.00    +0.000 A 
ATOM      7  C   UNL     1       6.649   3.819  14.601  0.00  0.00    +0.000 A 
ATOM      8  C   UNL     1       6.698   5.148  14.217  0.00  0.00    +0.000 A 
ATOM      9  C   UNL     1       5.948   6.078  14.923  0.00  0.00    +0.000 A 
ATOM     10  C   UNL     1       5.146   5.689  16.014  0.00  0.00    +0.000 A 
ATOM     11  S   UNL     1       4.341   7.029  16.842  0.00  0.00    +0.000 S 
ENDROOT
BRANCH   2  12
ATOM     12  C   UNL     1       2.540   4.312  19.297  0.00  0.00    +0.000 A 
ATOM     13  C   UNL     1       3.002   4.169  20.614  0.00  0.00    +0.000 A 
ATOM     14  C   UNL     1       2.221   3.503  21.563  0.00  0.00    +0.000 A 
ATOM     15  C   UNL     1       0.980   2.977  21.203  0.00  0.00    +0.000 A 
ATOM     16  C   UNL     1       0.497   3.150  19.907  0.00  0.00    +0.000 A 
ATOM     17  C   UNL     1       1.265   3.831  18.961  0.00  0.00    +0.000 A 
ENDBRANCH   2  12
BRANCH   1  18
ATOM     18  C   UNL     1       2.528   7.150  18.866  0.00  0.00    +0.000 C 
ATOM     19  O   UNL     1       2.438   7.194  20.082  0.00  0.00    +0.000 OA
BRANCH  18  20
ATOM     20  O   UNL     1       1.766   7.903  18.023  0.00  0.00    +0.000 OA
BRANCH  20  22
ATOM     21  C   UNL     1       0.351   9.783  18.167  0.00  0.00    +0.000 C 
ATOM     22  C   UNL     1       1.791   9.314  18.247  0.00  0.00    +0.000 C 
ENDBRANCH  20  22
ENDBRANCH  18  20
ENDBRANCH   1  18
TORSDOF 4
ENDMDL
MODEL 6
REMARK VINA RESULT:      -6.3      1.798      2.594
REMARK  Name = 
REMARK  6 active torsions:
REMARK  status: ('A' for Active; 'I' for Inactive)
REMARK    1  A    between atoms: C_1  and  C_2
REMARK    2  A    between atoms: C_2  and  O_3
REMARK    3  A    between atoms: O_3  and  C_4
REMARK    4  A    between atoms: C_4  and  C_6
REMARK    5  A    between atoms: C_7  and  C_8
REMARK    6  A    between atoms: N_14  and  C_15
REMARK                            x       y       z     vdW  Elec       q    Type
REMARK                         _______ _______ _______ _____ _____    ______ ____
ROOT
ATOM      1  C   UNL     1       1.769   6.362  20.395  0.00  0.00    +0.000 C 
ATOM      2  C   UNL     1       2.427   6.732  19.265  0.00  0.00    +0.000 C 
ATOM      3  N   UNL     1       2.387   8.009  18.648  0.00  0.00    +0.000 N 
ATOM      4  C   UNL     1       3.153   8.336  17.435  0.00  0.00    +0.000 C 
ATOM      5  C   UNL     1       1.590   9.081  19.168  0.00  0.00    +0.000 A 
ATOM      6  C   UNL     1       1.559  10.364  18.575  0.00  0.00    +0.000 A 
ATOM      7  C   UNL     1       0.762  11.406  19.071  0.00  0.00    +0.000 A 
ATOM      8  C   UNL     1      -0.043  11.199  20.177  0.00  0.00    +0.000 A 
ATOM      9  C   UNL     1      -0.031   9.956  20.793  0.00  0.00    +0.000 A 
ATOM     10  C   UNL     1       0.786   8.913  20.311  0.00  0.00    +0.000 A 
ATOM     11  S   UNL     1       0.734   7.437  21.283  0.00  0.00    +0.000 S 
ENDROOT
BRANCH   2  12
ATOM     12  C   UNL     1       3.251   5.683  18.592  0.00  0.00    +0.000 A 
ATOM     13  C   UNL     1       2.692   4.858  17.604  0.00  0.00    +0.000 A 
ATOM     14  C   UNL     1       3.422   3.780  17.095  0.00  0.00    +0.000 A 
ATOM     15  C   UNL     1       4.709   3.520  17.568  0.00  0.00    +0.000 A 
ATOM     16  C   UNL     1       5.285   4.359  18.521  0.00  0.00    +0.000 A 
ATOM     17  C   UNL     1       4.567   5.448  19.019  0.00  0.00    +0.000 A 
ENDBRANCH   2  12
BRANCH   1  18
ATOM     18  C   UNL     1       1.826   4.965  20.978  0.00  0.00    +0.000 C 
ATOM     19  O   UNL     1       2.667   4.532  21.750  0.00  0.00    +0.000 OA
BRANCH  18  20
ATOM     20  O   UNL     1       0.829   4.206  20.442  0.00  0.00    +0.000 OA
BRANCH  20  22
ATOM     21  C   UNL     1       0.628   2.375  18.972  0.00  0.00    +0.000 C 
ATOM     22  C   UNL     1       1.087   2.803  20.352  0.00  0.00    +0.000 C 
ENDBRANCH  20  22
ENDBRANCH  18  20
ENDBRANCH   1  18
TORSDOF 4
ENDMDL
MODEL 7
REMARK VINA RESULT:      -6.3      2.860      4.669
REMARK  Name = 
REMARK  6 active torsions:
REMARK  status: ('A' for Active; 'I' for Inactive)
REMARK    1  A    between atoms: C_1  and  C_2
REMARK    2  A    between atoms: C_2  and  O_3
REMARK    3  A    between atoms: O_3  and  C_4
REMARK    4  A    between atoms: C_4  and  C_6
REMARK    5  A    between atoms: C_7  and  C_8
REMARK    6  A    between atoms: N_14  and  C_15
REMARK                            x       y       z     vdW  Elec       q    Type
REMARK                         _______ _______ _______ _____ _____    ______ ____
ROOT
ATOM      1  C   UNL     1       5.126   4.049  16.839  0.00  0.00    +0.000 C 
ATOM      2  C   UNL     1       5.081   4.990  17.818  0.00  0.00    +0.000 C 
ATOM      3  N   UNL     1       4.091   5.105  18.829  0.00  0.00    +0.000 N 
ATOM      4  C   UNL     1       4.130   6.143  19.872  0.00  0.00    +0.000 C 
ATOM      5  C   UNL     1       2.973   4.212  18.905  0.00  0.00    +0.000 A 
ATOM      6  C   UNL     1       1.992   4.304  19.920  0.00  0.00    +0.000 A 
ATOM      7  C   UNL     1       0.887   3.443  19.982  0.00  0.00    +0.000 A 
ATOM      8  C   UNL     1       0.716   2.461  19.021  0.00  0.00    +0.000 A 
ATOM      9  C   UNL     1       1.664   2.333  18.016  0.00  0.00    +0.000 A 
ATOM     10  C   UNL     1       2.788   3.182  17.964  0.00  0.00    +0.000 A 
ATOM     11  S   UNL     1       3.929   2.804  16.667  0.00  0.00    +0.000 S 
ENDROOT
BRANCH   2  12
ATOM     12  C   UNL     1       6.164   6.019  17.814  0.00  0.00    +0.000 A 
ATOM     13  C   UNL     1       7.289   5.877  18.640  0.00  0.00    +0.000 A 
ATOM     14  C   UNL     1       8.216   6.918  18.748  0.00  0.00    +0.000 A 
ATOM     15  C   UNL     1       8.025   8.102  18.035  0.00  0.00    +0.000 A 
ATOM     16  C   UNL     1       6.930   8.235  17.182  0.00  0.00    +0.000 A 
ATOM     17  C   UNL     1       6.011   7.191  17.058  0.00  0.00    +0.000 A 
ENDBRANCH   2  12
BRANCH   1  18
ATOM     18  C   UNL     1       6.195   4.009  15.766  0.00  0.00    +0.000 C 
ATOM     19  O   UNL     1       7.403   4.042  15.939  0.00  0.00    +0.000 OA
BRANCH  18  20
ATOM     20  O   UNL     1       5.607   4.013  14.537  0.00  0.00    +0.000 OA
BRANCH  20  22
ATOM     21  C   UNL     1       5.739   3.286  12.299  0.00  0.00    +0.000 C 
ATOM     22  C   UNL     1       6.493   3.979  13.416  0.00  0.00    +0.000 C 
ENDBRANCH  20  22
ENDBRANCH  18  20
ENDBRANCH   1  18
TORSDOF 4
ENDMDL
MODEL 8
REMARK VINA RESULT:      -6.1      2.381      6.093
REMARK  Name = 
REMARK  6 active torsions:
REMARK  status: ('A' for Active; 'I' for Inactive)
REMARK    1  A    between atoms: C_1  and  C_2
REMARK    2  A    between atoms: C_2  and  O_3
REMARK    3  A    between atoms: O_3  and  C_4
REMARK    4  A    between atoms: C_4  and  C_6
REMARK    5  A    between atoms: C_7  and  C_8
REMARK    6  A    between atoms: N_14  and  C_15
REMARK                            x       y       z     vdW  Elec       q    Type
REMARK                         _______ _______ _______ _____ _____    ______ ____
ROOT
ATOM      1  C   UNL     1       3.499   5.839  18.308  0.00  0.00    +0.000 C 
ATOM      2  C   UNL     1       3.511   4.481  18.313  0.00  0.00    +0.000 C 
ATOM      3  N   UNL     1       4.223   3.642  17.417  0.00  0.00    +0.000 N 
ATOM      4  C   UNL     1       4.203   2.173  17.508  0.00  0.00    +0.000 C 
ATOM      5  C   UNL     1       5.018   4.171  16.348  0.00  0.00    +0.000 A 
ATOM      6  C   UNL     1       5.749   3.346  15.462  0.00  0.00    +0.000 A 
ATOM      7  C   UNL     1       6.511   3.864  14.404  0.00  0.00    +0.000 A 
ATOM      8  C   UNL     1       6.561   5.230  14.186  0.00  0.00    +0.000 A 
ATOM      9  C   UNL     1       5.866   6.071  15.043  0.00  0.00    +0.000 A 
ATOM     10  C   UNL     1       5.118   5.556  16.121  0.00  0.00    +0.000 A 
ATOM     11  S   UNL     1       4.380   6.789  17.152  0.00  0.00    +0.000 S 
ENDROOT
BRANCH   2  12
ATOM     12  C   UNL     1       2.673   3.804  19.348  0.00  0.00    +0.000 A 
ATOM     13  C   UNL     1       1.281   3.709  19.191  0.00  0.00    +0.000 A 
ATOM     14  C   UNL     1       0.490   3.218  20.234  0.00  0.00    +0.000 A 
ATOM     15  C   UNL     1       1.081   2.821  21.434  0.00  0.00    +0.000 A 
ATOM     16  C   UNL     1       2.466   2.875  21.582  0.00  0.00    +0.000 A 
ATOM     17  C   UNL     1       3.262   3.347  20.537  0.00  0.00    +0.000 A 
ENDBRANCH   2  12
BRANCH   1  18
ATOM     18  C   UNL     1       2.683   6.673  19.274  0.00  0.00    +0.000 C 
ATOM     19  O   UNL     1       2.702   6.603  20.493  0.00  0.00    +0.000 OA
BRANCH  18  20
ATOM     20  O   UNL     1       1.836   7.481  18.576  0.00  0.00    +0.000 OA
BRANCH  20  22
ATOM     21  C   UNL     1       1.894   9.739  17.905  0.00  0.00    +0.000 C 
ATOM     22  C   UNL     1       1.675   8.808  19.081  0.00  0.00    +0.000 C 
ENDBRANCH  20  22
ENDBRANCH  18  20
ENDBRANCH   1  18
TORSDOF 4
ENDMDL
MODEL 9
REMARK VINA RESULT:      -6.0      2.836      4.521
REMARK  Name = 
REMARK  6 active torsions:
REMARK  status: ('A' for Active; 'I' for Inactive)
REMARK    1  A    between atoms: C_1  and  C_2
REMARK    2  A    between atoms: C_2  and  O_3
REMARK    3  A    between atoms: O_3  and  C_4
REMARK    4  A    between atoms: C_4  and  C_6
REMARK    5  A    between atoms: C_7  and  C_8
REMARK    6  A    between atoms: N_14  and  C_15
REMARK                            x       y       z     vdW  Elec       q    Type
REMARK                         _______ _______ _______ _____ _____    ______ ____
ROOT
ATOM      1  C   UNL     1       4.283   5.798  17.548  0.00  0.00    +0.000 C 
ATOM      2  C   UNL     1       4.378   4.508  17.131  0.00  0.00    +0.000 C 
ATOM      3  N   UNL     1       3.786   3.378  17.753  0.00  0.00    +0.000 N 
ATOM      4  C   UNL     1       3.917   2.012  17.221  0.00  0.00    +0.000 C 
ATOM      5  C   UNL     1       3.013   3.488  18.954  0.00  0.00    +0.000 A 
ATOM      6  C   UNL     1       2.401   2.372  19.571  0.00  0.00    +0.000 A 
ATOM      7  C   UNL     1       1.661   2.477  20.758  0.00  0.00    +0.000 A 
ATOM      8  C   UNL     1       1.516   3.705  21.381  0.00  0.00    +0.000 A 
ATOM      9  C   UNL     1       2.093   4.824  20.799  0.00  0.00    +0.000 A 
ATOM     10  C   UNL     1       2.817   4.726  19.593  0.00  0.00    +0.000 A 
ATOM     11  S   UNL     1       3.396   6.274  18.962  0.00  0.00    +0.000 S 
ENDROOT
BRANCH   2  12
ATOM     12  C   UNL     1       5.208   4.252  15.916  0.00  0.00    +0.000 A 
ATOM     13  C   UNL     1       6.608   4.318  15.979  0.00  0.00    +0.000 A 
ATOM     14  C   UNL     1       7.367   4.235  14.808  0.00  0.00    +0.000 A 
ATOM     15  C   UNL     1       6.735   4.086  13.573  0.00  0.00    +0.000 A 
ATOM     16  C   UNL     1       5.347   3.980  13.507  0.00  0.00    +0.000 A 
ATOM     17  C   UNL     1       4.585   4.044  14.675  0.00  0.00    +0.000 A 
ENDBRANCH   2  12
BRANCH   1  18
ATOM     18  C   UNL     1       4.975   6.954  16.855  0.00  0.00    +0.000 C 
ATOM     19  O   UNL     1       4.857   7.278  15.684  0.00  0.00    +0.000 OA
BRANCH  18  20
ATOM     20  O   UNL     1       5.839   7.554  17.722  0.00  0.00    +0.000 OA
BRANCH  20  22
ATOM     21  C   UNL     1       7.849   6.605  18.505  0.00  0.00    +0.000 C 
ATOM     22  C   UNL     1       7.227   7.442  17.404  0.00  0.00    +0.000 C 
ENDBRANCH  20  22
ENDBRANCH  18  20
ENDBRANCH   1  18
TORSDOF 4
ENDMDL
