MODEL 1
REMARK VINA RESULT:      -7.2      0.000      0.000
REMARK  Name = 
REMARK  6 active torsions:
REMARK  status: ('A' for Active; 'I' for Inactive)
REMARK    1  A    between atoms: C_1  and  C_2
REMARK    2  A    between atoms: C_5  and  N_6
REMARK    3  A    between atoms: C_10  and  N_11
REMARK    4  A    between atoms: C_12  and  C_14
REMARK    5  A    between atoms: C_15  and  C_16
REMARK    6  A    between atoms: C_16  and  O_18
REMARK                            x       y       z     vdW  Elec       q    Type
REMARK                         _______ _______ _______ _____ _____    ______ ____
ROOT
ATOM      1  C   UNL     1       3.248   7.444  17.940  0.00  0.00    +0.000 C 
ATOM      2  C   UNL     1       3.119   6.224  18.817  0.00  0.00    +0.000 A 
ATOM      3  C   UNL     1       2.188   6.307  19.881  0.00  0.00    +0.000 A 
ATOM      4  C   UNL     1       1.985   5.246  20.759  0.00  0.00    +0.000 A 
ATOM      5  C   UNL     1       2.720   4.077  20.579  0.00  0.00    +0.000 A 
ATOM      6  C   UNL     1       3.641   3.979  19.532  0.00  0.00    +0.000 A 
ATOM      7  C   UNL     1       3.865   5.036  18.633  0.00  0.00    +0.000 A 
ENDROOT
BRANCH   7   8
ATOM      8  N   UNL     1       4.816   4.913  17.563  0.00  0.00    +0.000 N 
ATOM      9  C   UNL     1       6.155   4.597  17.727  0.00  0.00    +0.000 C 
ATOM     10  O   UNL     1       6.725   4.395  18.801  0.00  0.00    +0.000 OA
ATOM     11  H   UNL     1       4.474   5.069  16.626  0.00  0.00    +0.000 HD
BRANCH   9  12
ATOM     12  C   UNL     1       6.973   4.495  16.489  0.00  0.00    +0.000 C 
ATOM     13  C   UNL     1       6.315   4.757  15.344  0.00  0.00    +0.000 C 
BRANCH  13  14
ATOM     14  C   UNL     1       6.952   4.703  14.024  0.00  0.00    +0.000 C 
ATOM     15  O   UNL     1       6.627   3.937  13.138  0.00  0.00    +0.000 OA
BRANCH  14  16
ATOM     16  O   UNL     1       7.948   5.607  13.909  0.00  0.00    +0.000 OA
ATOM     17  H   UNL     1       7.982   6.106  13.072  0.00  0.00    +0.000 HD
ENDBRANCH  14  16
ENDBRANCH  13  14
ENDBRANCH   9  12
ENDBRANCH   7   8
BRANCH   5  18
ATOM     18  N   UNL     1       2.527   2.941  21.488  0.00  0.00    +0.000 N 
ATOM     19  O   UNL     1       1.437   2.850  22.069  0.00  0.00    +0.000 OA
ATOM     20  O   UNL     1       3.459   2.140  21.626  0.00  0.00    +0.000 OA
ENDBRANCH   5  18
TORSDOF 5
ENDMDL
MODEL 2
REMARK VINA RESULT:      -7.0      0.527      1.062
REMARK  Name = 
REMARK  6 active torsions:
REMARK  status: ('A' for Active; 'I' for Inactive)
REMARK    1  A    between atoms: C_1  and  C_2
REMARK    2  A    between atoms: C_5  and  N_6
REMARK    3  A    between atoms: C_10  and  N_11
REMARK    4  A    between atoms: C_12  and  C_14
REMARK    5  A    between atoms: C_15  and  C_16
REMARK    6  A    between atoms: C_16  and  O_18
REMARK                            x       y       z     vdW  Elec       q    Type
REMARK                         _______ _______ _______ _____ _____    ______ ____
ROOT
ATOM      1  C   UNL     1       3.558   7.540  17.851  0.00  0.00    +0.000 C 
ATOM      2  C   UNL     1       3.198   6.318  18.657  0.00  0.00    +0.000 A 
ATOM      3  C   UNL     1       2.262   6.506  19.702  0.00  0.00    +0.000 A 
ATOM      4  C   UNL     1       1.855   5.452  20.518  0.00  0.00    +0.000 A 
ATOM      5  C   UNL     1       2.388   4.186  20.291  0.00  0.00    +0.000 A 
ATOM      6  C   UNL     1       3.312   3.985  19.262  0.00  0.00    +0.000 A 
ATOM      7  C   UNL     1       3.740   5.031  18.427  0.00  0.00    +0.000 A 
ENDROOT
BRANCH   7   8
ATOM      8  N   UNL     1       4.689   4.802  17.374  0.00  0.00    +0.000 N 
ATOM      9  C   UNL     1       6.040   4.555  17.566  0.00  0.00    +0.000 C 
ATOM     10  O   UNL     1       6.620   4.514  18.652  0.00  0.00    +0.000 OA
ATOM     11  H   UNL     1       4.339   4.822  16.428  0.00  0.00    +0.000 HD
BRANCH   9  12
ATOM     12  C   UNL     1       6.856   4.320  16.345  0.00  0.00    +0.000 C 
ATOM     13  C   UNL     1       6.450   4.988  15.247  0.00  0.00    +0.000 C 
BRANCH  13  14
ATOM     14  C   UNL     1       7.126   4.880  13.951  0.00  0.00    +0.000 C 
ATOM     15  O   UNL     1       8.064   5.574  13.608  0.00  0.00    +0.000 OA
BRANCH  14  16
ATOM     16  O   UNL     1       6.581   3.918  13.178  0.00  0.00    +0.000 OA
ATOM     17  H   UNL     1       5.727   4.134  12.759  0.00  0.00    +0.000 HD
ENDBRANCH  14  16
ENDBRANCH  13  14
ENDBRANCH   9  12
ENDBRANCH   7   8
BRANCH   5  18
ATOM     18  N   UNL     1       1.978   3.056  21.133  0.00  0.00    +0.000 N 
ATOM     19  O   UNL     1       2.671   2.800  22.127  0.00  0.00    +0.000 OA
ATOM     20  O   UNL     1       0.967   2.423  20.807  0.00  0.00    +0.000 OA
ENDBRANCH   5  18
TORSDOF 5
ENDMDL
MODEL 3
REMARK VINA RESULT:      -7.0      1.450      1.937
REMARK  Name = 
REMARK  6 active torsions:
REMARK  status: ('A' for Active; 'I' for Inactive)
REMARK    1  A    between atoms: C_1  and  C_2
REMARK    2  A    between atoms: C_5  and  N_6
REMARK    3  A    between atoms: C_10  and  N_11
REMARK    4  A    between atoms: C_12  and  C_14
REMARK    5  A    between atoms: C_15  and  C_16
REMARK    6  A    between atoms: C_16  and  O_18
REMARK                            x       y       z     vdW  Elec       q    Type
REMARK                         _______ _______ _______ _____ _____    ______ ____
ROOT
ATOM      1  C   UNL     1       4.067   7.164  16.997  0.00  0.00    +0.000 C 
ATOM      2  C   UNL     1       4.064   5.925  17.856  0.00  0.00    +0.000 A 
ATOM      3  C   UNL     1       3.440   6.038  19.122  0.00  0.00    +0.000 A 
ATOM      4  C   UNL     1       3.379   4.962  20.005  0.00  0.00    +0.000 A 
ATOM      5  C   UNL     1       3.947   3.750  19.624  0.00  0.00    +0.000 A 
ATOM      6  C   UNL     1       4.565   3.623  18.376  0.00  0.00    +0.000 A 
ATOM      7  C   UNL     1       4.641   4.693  17.468  0.00  0.00    +0.000 A 
ENDROOT
BRANCH   7   8
ATOM      8  N   UNL     1       5.279   4.539  16.191  0.00  0.00    +0.000 N 
ATOM      9  C   UNL     1       6.615   4.806  15.935  0.00  0.00    +0.000 C 
ATOM     10  O   UNL     1       7.437   5.226  16.752  0.00  0.00    +0.000 OA
ATOM     11  H   UNL     1       4.704   4.212  15.428  0.00  0.00    +0.000 HD
BRANCH   9  12
ATOM     12  C   UNL     1       7.091   4.563  14.548  0.00  0.00    +0.000 C 
ATOM     13  C   UNL     1       6.230   3.898  13.754  0.00  0.00    +0.000 C 
BRANCH  13  14
ATOM     14  C   UNL     1       6.524   3.563  12.358  0.00  0.00    +0.000 C 
ATOM     15  O   UNL     1       7.244   4.223  11.633  0.00  0.00    +0.000 OA
BRANCH  14  16
ATOM     16  O   UNL     1       5.899   2.432  11.969  0.00  0.00    +0.000 OA
ATOM     17  H   UNL     1       4.925   2.460  11.957  0.00  0.00    +0.000 HD
ENDBRANCH  14  16
ENDBRANCH  13  14
ENDBRANCH   9  12
ENDBRANCH   7   8
BRANCH   5  18
ATOM     18  N   UNL     1       3.897   2.598  20.533  0.00  0.00    +0.000 N 
ATOM     19  O   UNL     1       2.887   2.466  21.237  0.00  0.00    +0.000 OA
ATOM     20  O   UNL     1       4.863   1.824  20.547  0.00  0.00    +0.000 OA
ENDBRANCH   5  18
TORSDOF 5
ENDMDL
MODEL 4
REMARK VINA RESULT:      -7.0      0.699      1.014
REMARK  Name = 
REMARK  6 active torsions:
REMARK  status: ('A' for Active; 'I' for Inactive)
REMARK    1  A    between atoms: C_1  and  C_2
REMARK    2  A    between atoms: C_5  and  N_6
REMARK    3  A    between atoms: C_10  and  N_11
REMARK    4  A    between atoms: C_12  and  C_14
REMARK    5  A    between atoms: C_15  and  C_16
REMARK    6  A    between atoms: C_16  and  O_18
REMARK                            x       y       z     vdW  Elec       q    Type
REMARK                         _______ _______ _______ _____ _____    ______ ____
ROOT
ATOM      1  C   UNL     1       2.752   7.116  17.896  0.00  0.00    +0.000 C 
ATOM      2  C   UNL     1       2.667   5.929  18.823  0.00  0.00    +0.000 A 
ATOM      3  C   UNL     1       2.022   6.145  20.065  0.00  0.00    +0.000 A 
ATOM      4  C   UNL     1       1.886   5.126  21.005  0.00  0.00    +0.000 A 
ATOM      5  C   UNL     1       2.400   3.867  20.706  0.00  0.00    +0.000 A 
ATOM      6  C   UNL     1       3.038   3.639  19.484  0.00  0.00    +0.000 A 
ATOM      7  C   UNL     1       3.189   4.650  18.519  0.00  0.00    +0.000 A 
ENDROOT
BRANCH   7   8
ATOM      8  N   UNL     1       3.847   4.393  17.269  0.00  0.00    +0.000 N 
ATOM      9  C   UNL     1       5.220   4.310  17.099  0.00  0.00    +0.000 C 
ATOM     10  O   UNL     1       6.068   4.461  17.980  0.00  0.00    +0.000 OA
ATOM     11  H   UNL     1       3.258   4.263  16.459  0.00  0.00    +0.000 HD
BRANCH   9  12
ATOM     12  C   UNL     1       5.706   4.014  15.725  0.00  0.00    +0.000 C 
ATOM     13  C   UNL     1       6.475   4.970  15.170  0.00  0.00    +0.000 C 
BRANCH  13  14
ATOM     14  C   UNL     1       7.042   4.859  13.823  0.00  0.00    +0.000 C 
ATOM     15  O   UNL     1       6.606   4.128  12.954  0.00  0.00    +0.000 OA
BRANCH  14  16
ATOM     16  O   UNL     1       8.112   5.666  13.658  0.00  0.00    +0.000 OA
ATOM     17  H   UNL     1       8.934   5.236  13.359  0.00  0.00    +0.000 HD
ENDBRANCH  14  16
ENDBRANCH  13  14
ENDBRANCH   9  12
ENDBRANCH   7   8
BRANCH   5  18
ATOM     18  N   UNL     1       2.272   2.773  21.676  0.00  0.00    +0.000 N 
ATOM     19  O   UNL     1       3.282   2.101  21.921  0.00  0.00    +0.000 OA
ATOM     20  O   UNL     1       1.165   2.581  22.196  0.00  0.00    +0.000 OA
ENDBRANCH   5  18
TORSDOF 5
ENDMDL
MODEL 5
REMARK VINA RESULT:      -6.8      3.266      7.067
REMARK  Name = 
REMARK  6 active torsions:
REMARK  status: ('A' for Active; 'I' for Inactive)
REMARK    1  A    between atoms: C_1  and  C_2
REMARK    2  A    between atoms: C_5  and  N_6
REMARK    3  A    between atoms: C_10  and  N_11
REMARK    4  A    between atoms: C_12  and  C_14
REMARK    5  A    between atoms: C_15  and  C_16
REMARK    6  A    between atoms: C_16  and  O_18
REMARK                            x       y       z     vdW  Elec       q    Type
REMARK                         _______ _______ _______ _____ _____    ______ ____
ROOT
ATOM      1  C   UNL     1       1.835   4.118  18.035  0.00  0.00    +0.000 C 
ATOM      2  C   UNL     1       3.173   4.649  17.587  0.00  0.00    +0.000 A 
ATOM      3  C   UNL     1       3.934   3.807  16.740  0.00  0.00    +0.000 A 
ATOM      4  C   UNL     1       5.187   4.187  16.264  0.00  0.00    +0.000 A 
ATOM      5  C   UNL     1       5.696   5.428  16.637  0.00  0.00    +0.000 A 
ATOM      6  C   UNL     1       4.956   6.271  17.472  0.00  0.00    +0.000 A 
ATOM      7  C   UNL     1       3.690   5.910  17.965  0.00  0.00    +0.000 A 
ENDROOT
BRANCH   7   8
ATOM      8  N   UNL     1       2.947   6.793  18.820  0.00  0.00    +0.000 N 
ATOM      9  C   UNL     1       2.356   7.978  18.412  0.00  0.00    +0.000 C 
ATOM     10  O   UNL     1       2.396   8.452  17.276  0.00  0.00    +0.000 OA
ATOM     11  H   UNL     1       2.852   6.521  19.788  0.00  0.00    +0.000 HD
BRANCH   9  12
ATOM     12  C   UNL     1       1.609   8.743  19.446  0.00  0.00    +0.000 C 
ATOM     13  C   UNL     1       1.594   8.184  20.672  0.00  0.00    +0.000 C 
BRANCH  13  14
ATOM     14  C   UNL     1       0.906   8.788  21.818  0.00  0.00    +0.000 C 
ATOM     15  O   UNL     1      -0.302   8.817  21.952  0.00  0.00    +0.000 OA
BRANCH  14  16
ATOM     16  O   UNL     1       1.775   9.311  22.708  0.00  0.00    +0.000 OA
ATOM     17  H   UNL     1       2.666   9.517  22.370  0.00  0.00    +0.000 HD
ENDBRANCH  14  16
ENDBRANCH  13  14
ENDBRANCH   9  12
ENDBRANCH   7   8
BRANCH   5  18
ATOM     18  N   UNL     1       7.013   5.856  16.152  0.00  0.00    +0.000 N 
ATOM     19  O   UNL     1       7.459   5.303  15.138  0.00  0.00    +0.000 OA
ATOM     20  O   UNL     1       7.605   6.743  16.779  0.00  0.00    +0.000 OA
ENDBRANCH   5  18
TORSDOF 5
ENDMDL
MODEL 6
REMARK VINA RESULT:      -6.8      0.808      1.131
REMARK  Name = 
REMARK  6 active torsions:
REMARK  status: ('A' for Active; 'I' for Inactive)
REMARK    1  A    between atoms: C_1  and  C_2
REMARK    2  A    between atoms: C_5  and  N_6
REMARK    3  A    between atoms: C_10  and  N_11
REMARK    4  A    between atoms: C_12  and  C_14
REMARK    5  A    between atoms: C_15  and  C_16
REMARK    6  A    between atoms: C_16  and  O_18
REMARK                            x       y       z     vdW  Elec       q    Type
REMARK                         _______ _______ _______ _____ _____    ______ ____
ROOT
ATOM      1  C   UNL     1       2.504   7.317  18.000  0.00  0.00    +0.000 C 
ATOM      2  C   UNL     1       2.521   6.086  18.871  0.00  0.00    +0.000 A 
ATOM      3  C   UNL     1       1.952   6.218  20.161  0.00  0.00    +0.000 A 
ATOM      4  C   UNL     1       1.914   5.152  21.056  0.00  0.00    +0.000 A 
ATOM      5  C   UNL     1       2.451   3.929  20.663  0.00  0.00    +0.000 A 
ATOM      6  C   UNL     1       3.015   3.783  19.393  0.00  0.00    +0.000 A 
ATOM      7  C   UNL     1       3.067   4.843  18.472  0.00  0.00    +0.000 A 
ENDROOT
BRANCH   7   8
ATOM      8  N   UNL     1       3.650   4.670  17.171  0.00  0.00    +0.000 N 
ATOM      9  C   UNL     1       4.993   4.843  16.875  0.00  0.00    +0.000 C 
ATOM     10  O   UNL     1       5.870   5.182  17.671  0.00  0.00    +0.000 OA
ATOM     11  H   UNL     1       3.028   4.402  16.422  0.00  0.00    +0.000 HD
BRANCH   9  12
ATOM     12  C   UNL     1       5.404   4.594  15.468  0.00  0.00    +0.000 C 
ATOM     13  C   UNL     1       6.664   4.964  15.165  0.00  0.00    +0.000 C 
BRANCH  13  14
ATOM     14  C   UNL     1       7.245   4.802  13.829  0.00  0.00    +0.000 C 
ATOM     15  O   UNL     1       8.066   5.556  13.344  0.00  0.00    +0.000 OA
BRANCH  14  16
ATOM     16  O   UNL     1       6.759   3.713  13.197  0.00  0.00    +0.000 OA
ATOM     17  H   UNL     1       7.259   2.885  13.318  0.00  0.00    +0.000 HD
ENDBRANCH  14  16
ENDBRANCH  13  14
ENDBRANCH   9  12
ENDBRANCH   7   8
BRANCH   5  18
ATOM     18  N   UNL     1       2.425   2.787  21.585  0.00  0.00    +0.000 N 
ATOM     19  O   UNL     1       1.366   2.557  22.185  0.00  0.00    +0.000 OA
ATOM     20  O   UNL     1       3.457   2.117  21.713  0.00  0.00    +0.000 OA
ENDBRANCH   5  18
TORSDOF 5
ENDMDL
MODEL 7
REMARK VINA RESULT:      -6.8      4.017      5.638
REMARK  Name = 
REMARK  6 active torsions:
REMARK  status: ('A' for Active; 'I' for Inactive)
REMARK    1  A    between atoms: C_1  and  C_2
REMARK    2  A    between atoms: C_5  and  N_6
REMARK    3  A    between atoms: C_10  and  N_11
REMARK    4  A    between atoms: C_12  and  C_14
REMARK    5  A    between atoms: C_15  and  C_16
REMARK    6  A    between atoms: C_16  and  O_18
REMARK                            x       y       z     vdW  Elec       q    Type
REMARK                         _______ _______ _______ _____ _____    ______ ____
ROOT
ATOM      1  C   UNL     1       1.814   8.674  17.775  0.00  0.00    +0.000 C 
ATOM      2  C   UNL     1       1.332   8.929  19.180  0.00  0.00    +0.000 A 
ATOM      3  C   UNL     1       0.481  10.046  19.362  0.00  0.00    +0.000 A 
ATOM      4  C   UNL     1      -0.023  10.385  20.616  0.00  0.00    +0.000 A 
ATOM      5  C   UNL     1       0.324   9.599  21.711  0.00  0.00    +0.000 A 
ATOM      6  C   UNL     1       1.162   8.492  21.547  0.00  0.00    +0.000 A 
ATOM      7  C   UNL     1       1.685   8.130  20.293  0.00  0.00    +0.000 A 
ENDROOT
BRANCH   7   8
ATOM      8  N   UNL     1       2.543   6.988  20.147  0.00  0.00    +0.000 N 
ATOM      9  C   UNL     1       2.135   5.670  20.277  0.00  0.00    +0.000 C 
ATOM     10  O   UNL     1       0.995   5.289  20.549  0.00  0.00    +0.000 OA
ATOM     11  H   UNL     1       3.513   7.168  19.934  0.00  0.00    +0.000 HD
BRANCH   9  12
ATOM     12  C   UNL     1       3.173   4.626  20.067  0.00  0.00    +0.000 C 
ATOM     13  C   UNL     1       4.265   5.031  19.390  0.00  0.00    +0.000 C 
BRANCH  13  14
ATOM     14  C   UNL     1       5.390   4.144  19.083  0.00  0.00    +0.000 C 
ATOM     15  O   UNL     1       6.471   4.525  18.676  0.00  0.00    +0.000 OA
BRANCH  14  16
ATOM     16  O   UNL     1       5.085   2.848  19.305  0.00  0.00    +0.000 OA
ATOM     17  H   UNL     1       5.345   2.487  20.172  0.00  0.00    +0.000 HD
ENDBRANCH  14  16
ENDBRANCH  13  14
ENDBRANCH   9  12
ENDBRANCH   7   8
BRANCH   5  18
ATOM     18  N   UNL     1      -0.193   9.930  23.045  0.00  0.00    +0.000 N 
ATOM     19  O   UNL     1      -1.259  10.555  23.108  0.00  0.00    +0.000 OA
ATOM     20  O   UNL     1       0.462   9.568  24.030  0.00  0.00    +0.000 OA
ENDBRANCH   5  18
TORSDOF 5
ENDMDL
MODEL 8
REMARK VINA RESULT:      -6.7      3.357      7.267
REMARK  Name = 
REMARK  6 active torsions:
REMARK  status: ('A' for Active; 'I' for Inactive)
REMARK    1  A    between atoms: C_1  and  C_2
REMARK    2  A    between atoms: C_5  and  N_6
REMARK    3  A    between atoms: C_10  and  N_11
REMARK    4  A    between atoms: C_12  and  C_14
REMARK    5  A    between atoms: C_15  and  C_16
REMARK    6  A    between atoms: C_16  and  O_18
REMARK                            x       y       z     vdW  Elec       q    Type
REMARK                         _______ _______ _______ _____ _____    ______ ____
ROOT
ATOM      1  C   UNL     1       1.791   3.702  18.175  0.00  0.00    +0.000 C 
ATOM      2  C   UNL     1       3.135   4.360  17.989  0.00  0.00    +0.000 A 
ATOM      3  C   UNL     1       3.927   3.883  16.917  0.00  0.00    +0.000 A 
ATOM      4  C   UNL     1       5.188   4.410  16.648  0.00  0.00    +0.000 A 
ATOM      5  C   UNL     1       5.673   5.431  17.460  0.00  0.00    +0.000 A 
ATOM      6  C   UNL     1       4.902   5.914  18.522  0.00  0.00    +0.000 A 
ATOM      7  C   UNL     1       3.627   5.398  18.814  0.00  0.00    +0.000 A 
ENDROOT
BRANCH   7   8
ATOM      8  N   UNL     1       2.851   5.910  19.908  0.00  0.00    +0.000 N 
ATOM      9  C   UNL     1       2.145   7.102  19.889  0.00  0.00    +0.000 C 
ATOM     10  O   UNL     1       2.093   7.896  18.948  0.00  0.00    +0.000 OA
ATOM     11  H   UNL     1       2.824   5.354  20.751  0.00  0.00    +0.000 HD
BRANCH   9  12
ATOM     12  C   UNL     1       1.384   7.448  21.119  0.00  0.00    +0.000 C 
ATOM     13  C   UNL     1       0.963   8.725  21.193  0.00  0.00    +0.000 C 
BRANCH  13  14
ATOM     14  C   UNL     1       0.202   9.252  22.330  0.00  0.00    +0.000 C 
ATOM     15  O   UNL     1       0.487  10.270  22.931  0.00  0.00    +0.000 OA
BRANCH  14  16
ATOM     16  O   UNL     1      -0.855   8.471  22.634  0.00  0.00    +0.000 OA
ATOM     17  H   UNL     1      -0.816   8.007  23.490  0.00  0.00    +0.000 HD
ENDBRANCH  14  16
ENDBRANCH  13  14
ENDBRANCH   9  12
ENDBRANCH   7   8
BRANCH   5  18
ATOM     18  N   UNL     1       6.998   6.007  17.202  0.00  0.00    +0.000 N 
ATOM     19  O   UNL     1       7.584   6.547  18.150  0.00  0.00    +0.000 OA
ATOM     20  O   UNL     1       7.457   5.924  16.056  0.00  0.00    +0.000 OA
ENDBRANCH   5  18
TORSDOF 5
ENDMDL
MODEL 9
REMARK VINA RESULT:      -6.6      2.560      3.346
REMARK  Name = 
REMARK  6 active torsions:
REMARK  status: ('A' for Active; 'I' for Inactive)
REMARK    1  A    between atoms: C_1  and  C_2
REMARK    2  A    between atoms: C_5  and  N_6
REMARK    3  A    between atoms: C_10  and  N_11
REMARK    4  A    between atoms: C_12  and  C_14
REMARK    5  A    between atoms: C_15  and  C_16
REMARK    6  A    between atoms: C_16  and  O_18
REMARK                            x       y       z     vdW  Elec       q    Type
REMARK                         _______ _______ _______ _____ _____    ______ ____
ROOT
ATOM      1  C   UNL     1       3.423   1.820  18.067  0.00  0.00    +0.000 C 
ATOM      2  C   UNL     1       3.190   3.293  18.287  0.00  0.00    +0.000 A 
ATOM      3  C   UNL     1       2.369   3.644  19.386  0.00  0.00    +0.000 A 
ATOM      4  C   UNL     1       2.078   4.973  19.687  0.00  0.00    +0.000 A 
ATOM      5  C   UNL     1       2.612   5.974  18.880  0.00  0.00    +0.000 A 
ATOM      6  C   UNL     1       3.424   5.643  17.791  0.00  0.00    +0.000 A 
ATOM      7  C   UNL     1       3.732   4.310  17.467  0.00  0.00    +0.000 A 
ENDROOT
BRANCH   7   8
ATOM      8  N   UNL     1       4.571   3.993  16.345  0.00  0.00    +0.000 N 
ATOM      9  C   UNL     1       5.889   4.398  16.203  0.00  0.00    +0.000 C 
ATOM     10  O   UNL     1       6.521   5.095  16.998  0.00  0.00    +0.000 OA
ATOM     11  H   UNL     1       4.163   3.433  15.611  0.00  0.00    +0.000 HD
BRANCH   9  12
ATOM     12  C   UNL     1       6.597   3.948  14.975  0.00  0.00    +0.000 C 
ATOM     13  C   UNL     1       5.875   4.015  13.839  0.00  0.00    +0.000 C 
BRANCH  13  14
ATOM     14  C   UNL     1       6.401   3.611  12.532  0.00  0.00    +0.000 C 
ATOM     15  O   UNL     1       7.232   4.239  11.905  0.00  0.00    +0.000 OA
BRANCH  14  16
ATOM     16  O   UNL     1       5.850   2.456  12.103  0.00  0.00    +0.000 OA
ATOM     17  H   UNL     1       4.879   2.392  12.166  0.00  0.00    +0.000 HD
ENDBRANCH  14  16
ENDBRANCH  13  14
ENDBRANCH   9  12
ENDBRANCH   7   8
BRANCH   5  18
ATOM     18  N   UNL     1       2.323   7.383  19.171  0.00  0.00    +0.000 N 
ATOM     19  O   UNL     1       1.853   7.654  20.285  0.00  0.00    +0.000 OA
ATOM     20  O   UNL     1       2.563   8.221  18.294  0.00  0.00    +0.000 OA
ENDBRANCH   5  18
TORSDOF 5
ENDMDL
