MODEL 1
REMARK VINA RESULT:      -7.7      0.000      0.000
REMARK  Name = 
REMARK  5 active torsions:
REMARK  status: ('A' for Active; 'I' for Inactive)
REMARK    1  A    between atoms: C_1  and  N_2
REMARK    2  A    between atoms: C_7  and  N_8
REMARK    3  A    between atoms: N_8  and  C_9
REMARK    4  A    between atoms: C_10  and  C_11
REMARK    5  A    between atoms: C_17  and  C_18
REMARK                            x       y       z     vdW  Elec       q    Type
REMARK                         _______ _______ _______ _____ _____    ______ ____
ROOT
ATOM      1  C   UNL     1       0.618  10.073  19.449  0.00  0.00    +0.000 A 
ATOM      2  C   UNL     1       0.011  10.239  20.717  0.00  0.00    +0.000 A 
ATOM      3  C   UNL     1       0.216   9.286  21.703  0.00  0.00    +0.000 A 
ATOM      4  N   UNL     1       0.938   8.165  21.569  0.00  0.00    +0.000 NA
ATOM      5  C   UNL     1       1.487   8.010  20.351  0.00  0.00    +0.000 A 
ATOM      6  S   UNL     1       2.405   6.628  20.015  0.00  0.00    +0.000 S 
ATOM      7  C   UNL     1       2.765   7.152  18.429  0.00  0.00    +0.000 A 
ATOM      8  C   UNL     1       2.171   8.372  18.175  0.00  0.00    +0.000 A 
ATOM      9  C   UNL     1       1.393   8.886  19.276  0.00  0.00    +0.000 A 
ENDROOT
BRANCH   7  10
ATOM     10  C   UNL     1       3.616   6.346  17.548  0.00  0.00    +0.000 A 
ATOM     11  C   UNL     1       4.565   6.954  16.712  0.00  0.00    +0.000 A 
ATOM     12  C   UNL     1       5.404   6.176  15.911  0.00  0.00    +0.000 A 
ATOM     13  C   UNL     1       5.303   4.786  15.939  0.00  0.00    +0.000 A 
ATOM     14  C   UNL     1       4.363   4.170  16.758  0.00  0.00    +0.000 A 
ATOM     15  C   UNL     1       3.526   4.947  17.556  0.00  0.00    +0.000 A 
ENDBRANCH   7  10
BRANCH   1  16
ATOM     16  N   UNL     1       0.507  11.070  18.443  0.00  0.00    +0.000 N 
ATOM     17  H   UNL     1       0.436  10.714  17.491  0.00  0.00    +0.000 HD
BRANCH  16  24
ATOM     18  C   UNL     1       4.207  16.558  18.613  0.00  0.00    +0.000 C 
ATOM     19  N   UNL     1       2.835  16.104  18.624  0.00  0.00    +0.000 N 
ATOM     20  C   UNL     1       1.737  16.905  18.790  0.00  0.00    +0.000 A 
ATOM     21  C   UNL     1       0.622  16.099  18.797  0.00  0.00    +0.000 A 
ATOM     22  C   UNL     1       1.067  14.760  18.636  0.00  0.00    +0.000 A 
ATOM     23  C   UNL     1       0.417  13.519  18.619  0.00  0.00    +0.000 A 
ATOM     24  C   UNL     1       1.143  12.334  18.420  0.00  0.00    +0.000 A 
ATOM     25  C   UNL     1       2.526  12.405  18.234  0.00  0.00    +0.000 A 
ATOM     26  C   UNL     1       3.206  13.627  18.285  0.00  0.00    +0.000 A 
ATOM     27  C   UNL     1       2.451  14.788  18.495  0.00  0.00    +0.000 A 
ENDBRANCH  16  24
ENDBRANCH   1  16
BRANCH   2  28
ATOM     28  C   UNL     1      -0.827  11.347  21.024  0.00  0.00    +0.000 C 
ATOM     29  N   UNL     1      -1.513  12.260  21.268  0.00  0.00    +0.000 NA
ENDBRANCH   2  28
TORSDOF 4
ENDMDL
MODEL 2
REMARK VINA RESULT:      -7.6      0.439      1.652
REMARK  Name = 
REMARK  5 active torsions:
REMARK  status: ('A' for Active; 'I' for Inactive)
REMARK    1  A    between atoms: C_1  and  N_2
REMARK    2  A    between atoms: C_7  and  N_8
REMARK    3  A    between atoms: N_8  and  C_9
REMARK    4  A    between atoms: C_10  and  C_11
REMARK    5  A    between atoms: C_17  and  C_18
REMARK                            x       y       z     vdW  Elec       q    Type
REMARK                         _______ _______ _______ _____ _____    ______ ____
ROOT
ATOM      1  C   UNL     1       0.701   9.872  19.452  0.00  0.00    +0.000 A 
ATOM      2  C   UNL     1       0.102  10.009  20.727  0.00  0.00    +0.000 A 
ATOM      3  C   UNL     1       0.335   9.048  21.699  0.00  0.00    +0.000 A 
ATOM      4  N   UNL     1       1.078   7.944  21.545  0.00  0.00    +0.000 NA
ATOM      5  C   UNL     1       1.620   7.816  20.321  0.00  0.00    +0.000 A 
ATOM      6  S   UNL     1       2.564   6.457  19.961  0.00  0.00    +0.000 S 
ATOM      7  C   UNL     1       2.899   7.008  18.378  0.00  0.00    +0.000 A 
ATOM      8  C   UNL     1       2.279   8.219  18.144  0.00  0.00    +0.000 A 
ATOM      9  C   UNL     1       1.499   8.703  19.258  0.00  0.00    +0.000 A 
ENDROOT
BRANCH   7  10
ATOM     10  C   UNL     1       3.759   6.231  17.480  0.00  0.00    +0.000 A 
ATOM     11  C   UNL     1       3.704   4.829  17.468  0.00  0.00    +0.000 A 
ATOM     12  C   UNL     1       4.493   4.098  16.576  0.00  0.00    +0.000 A 
ATOM     13  C   UNL     1       5.342   4.761  15.690  0.00  0.00    +0.000 A 
ATOM     14  C   UNL     1       5.411   6.149  15.695  0.00  0.00    +0.000 A 
ATOM     15  C   UNL     1       4.624   6.878  16.586  0.00  0.00    +0.000 A 
ENDBRANCH   7  10
BRANCH   1  16
ATOM     16  N   UNL     1       0.561  10.878  18.460  0.00  0.00    +0.000 N 
ATOM     17  H   UNL     1       0.603  10.543  17.498  0.00  0.00    +0.000 HD
BRANCH  16  24
ATOM     18  C   UNL     1       2.079  17.322  18.413  0.00  0.00    +0.000 C 
ATOM     19  N   UNL     1       2.678  16.008  18.395  0.00  0.00    +0.000 N 
ATOM     20  C   UNL     1       4.015  15.748  18.253  0.00  0.00    +0.000 A 
ATOM     21  C   UNL     1       4.180  14.382  18.230  0.00  0.00    +0.000 A 
ATOM     22  C   UNL     1       2.893  13.797  18.357  0.00  0.00    +0.000 A 
ATOM     23  C   UNL     1       2.423  12.477  18.346  0.00  0.00    +0.000 A 
ATOM     24  C   UNL     1       1.056  12.203  18.512  0.00  0.00    +0.000 A 
ATOM     25  C   UNL     1       0.165  13.264  18.696  0.00  0.00    +0.000 A 
ATOM     26  C   UNL     1       0.601  14.593  18.672  0.00  0.00    +0.000 A 
ATOM     27  C   UNL     1       1.970  14.831  18.493  0.00  0.00    +0.000 A 
ENDBRANCH  16  24
ENDBRANCH   1  16
BRANCH   2  28
ATOM     28  C   UNL     1      -0.757  11.095  21.055  0.00  0.00    +0.000 C 
ATOM     29  N   UNL     1      -1.461  11.984  21.333  0.00  0.00    +0.000 NA
ENDBRANCH   2  28
TORSDOF 4
ENDMDL
MODEL 3
REMARK VINA RESULT:      -7.3      0.729      1.214
REMARK  Name = 
REMARK  5 active torsions:
REMARK  status: ('A' for Active; 'I' for Inactive)
REMARK    1  A    between atoms: C_1  and  N_2
REMARK    2  A    between atoms: C_7  and  N_8
REMARK    3  A    between atoms: N_8  and  C_9
REMARK    4  A    between atoms: C_10  and  C_11
REMARK    5  A    between atoms: C_17  and  C_18
REMARK                            x       y       z     vdW  Elec       q    Type
REMARK                         _______ _______ _______ _____ _____    ______ ____
ROOT
ATOM      1  C   UNL     1       0.128  10.676  19.858  0.00  0.00    +0.000 A 
ATOM      2  C   UNL     1      -0.510  10.905  21.100  0.00  0.00    +0.000 A 
ATOM      3  C   UNL     1      -0.355   9.985  22.127  0.00  0.00    +0.000 A 
ATOM      4  N   UNL     1       0.343   8.844  22.057  0.00  0.00    +0.000 NA
ATOM      5  C   UNL     1       0.922   8.630  20.862  0.00  0.00    +0.000 A 
ATOM      6  S   UNL     1       1.815   7.215  20.606  0.00  0.00    +0.000 S 
ATOM      7  C   UNL     1       2.231   7.669  19.011  0.00  0.00    +0.000 A 
ATOM      8  C   UNL     1       1.674   8.891  18.694  0.00  0.00    +0.000 A 
ATOM      9  C   UNL     1       0.878   9.465  19.752  0.00  0.00    +0.000 A 
ENDROOT
BRANCH   7  10
ATOM     10  C   UNL     1       3.086   6.810  18.187  0.00  0.00    +0.000 A 
ATOM     11  C   UNL     1       2.913   5.417  18.180  0.00  0.00    +0.000 A 
ATOM     12  C   UNL     1       3.701   4.610  17.356  0.00  0.00    +0.000 A 
ATOM     13  C   UNL     1       4.667   5.187  16.532  0.00  0.00    +0.000 A 
ATOM     14  C   UNL     1       4.853   6.565  16.532  0.00  0.00    +0.000 A 
ATOM     15  C   UNL     1       4.067   7.369  17.356  0.00  0.00    +0.000 A 
ENDBRANCH   7  10
BRANCH   1  16
ATOM     16  N   UNL     1       0.068  11.635  18.812  0.00  0.00    +0.000 N 
ATOM     17  H   UNL     1      -0.127  11.252  17.888  0.00  0.00    +0.000 HD
BRANCH  16  24
ATOM     18  C   UNL     1       4.463  16.571  18.417  0.00  0.00    +0.000 C 
ATOM     19  N   UNL     1       3.048  16.309  18.552  0.00  0.00    +0.000 N 
ATOM     20  C   UNL     1       2.083  17.258  18.755  0.00  0.00    +0.000 A 
ATOM     21  C   UNL     1       0.875  16.612  18.887  0.00  0.00    +0.000 A 
ATOM     22  C   UNL     1       1.125  15.220  18.766  0.00  0.00    +0.000 A 
ATOM     23  C   UNL     1       0.317  14.078  18.862  0.00  0.00    +0.000 A 
ATOM     24  C   UNL     1       0.862  12.798  18.675  0.00  0.00    +0.000 A 
ATOM     25  C   UNL     1       2.223  12.672  18.384  0.00  0.00    +0.000 A 
ATOM     26  C   UNL     1       3.060  13.792  18.320  0.00  0.00    +0.000 A 
ATOM     27  C   UNL     1       2.486  15.053  18.522  0.00  0.00    +0.000 A 
ENDBRANCH  16  24
ENDBRANCH   1  16
BRANCH   2  28
ATOM     28  C   UNL     1      -1.330  12.042  21.341  0.00  0.00    +0.000 C 
ATOM     29  N   UNL     1      -2.008  12.971  21.544  0.00  0.00    +0.000 NA
ENDBRANCH   2  28
TORSDOF 4
ENDMDL
MODEL 4
REMARK VINA RESULT:      -7.1      2.505      6.676
REMARK  Name = 
REMARK  5 active torsions:
REMARK  status: ('A' for Active; 'I' for Inactive)
REMARK    1  A    between atoms: C_1  and  N_2
REMARK    2  A    between atoms: C_7  and  N_8
REMARK    3  A    between atoms: N_8  and  C_9
REMARK    4  A    between atoms: C_10  and  C_11
REMARK    5  A    between atoms: C_17  and  C_18
REMARK                            x       y       z     vdW  Elec       q    Type
REMARK                         _______ _______ _______ _____ _____    ______ ____
ROOT
ATOM      1  C   UNL     1       0.740  10.487  19.493  0.00  0.00    +0.000 A 
ATOM      2  C   UNL     1       1.344   9.214  19.358  0.00  0.00    +0.000 A 
ATOM      3  C   UNL     1       1.231   8.291  20.387  0.00  0.00    +0.000 A 
ATOM      4  N   UNL     1       0.606   8.494  21.554  0.00  0.00    +0.000 NA
ATOM      5  C   UNL     1       0.059   9.717  21.676  0.00  0.00    +0.000 A 
ATOM      6  S   UNL     1      -0.742  10.137  23.108  0.00  0.00    +0.000 S 
ATOM      7  C   UNL     1      -1.161  11.684  22.515  0.00  0.00    +0.000 A 
ATOM      8  C   UNL     1      -0.676  11.861  21.235  0.00  0.00    +0.000 A 
ATOM      9  C   UNL     1       0.067  10.733  20.729  0.00  0.00    +0.000 A 
ENDROOT
BRANCH   7  10
ATOM     10  C   UNL     1      -1.950  12.611  23.332  0.00  0.00    +0.000 A 
ATOM     11  C   UNL     1      -1.440  13.870  23.686  0.00  0.00    +0.000 A 
ATOM     12  C   UNL     1      -2.216  14.765  24.425  0.00  0.00    +0.000 A 
ATOM     13  C   UNL     1      -3.508  14.412  24.816  0.00  0.00    +0.000 A 
ATOM     14  C   UNL     1      -4.024  13.166  24.478  0.00  0.00    +0.000 A 
ATOM     15  C   UNL     1      -3.248  12.273  23.741  0.00  0.00    +0.000 A 
ENDBRANCH   7  10
BRANCH   1  16
ATOM     16  N   UNL     1       0.756  11.426  18.428  0.00  0.00    +0.000 N 
ATOM     17  H   UNL     1       0.791  11.018  17.495  0.00  0.00    +0.000 HD
BRANCH  16  24
ATOM     18  C   UNL     1       4.514  16.874  18.603  0.00  0.00    +0.000 C 
ATOM     19  N   UNL     1       3.138  16.435  18.628  0.00  0.00    +0.000 N 
ATOM     20  C   UNL     1       2.050  17.245  18.818  0.00  0.00    +0.000 A 
ATOM     21  C   UNL     1       0.928  16.450  18.832  0.00  0.00    +0.000 A 
ATOM     22  C   UNL     1       1.356  15.109  18.651  0.00  0.00    +0.000 A 
ATOM     23  C   UNL     1       0.693  13.874  18.630  0.00  0.00    +0.000 A 
ATOM     24  C   UNL     1       1.405  12.684  18.409  0.00  0.00    +0.000 A 
ATOM     25  C   UNL     1       2.786  12.743  18.204  0.00  0.00    +0.000 A 
ATOM     26  C   UNL     1       3.479  13.957  18.259  0.00  0.00    +0.000 A 
ATOM     27  C   UNL     1       2.739  15.124  18.491  0.00  0.00    +0.000 A 
ENDBRANCH  16  24
ENDBRANCH   1  16
BRANCH   2  28
ATOM     28  C   UNL     1       2.089   8.839  18.205  0.00  0.00    +0.000 C 
ATOM     29  N   UNL     1       2.698   8.523  17.261  0.00  0.00    +0.000 NA
ENDBRANCH   2  28
TORSDOF 4
ENDMDL
MODEL 5
REMARK VINA RESULT:      -7.1      4.307      9.098
REMARK  Name = 
REMARK  5 active torsions:
REMARK  status: ('A' for Active; 'I' for Inactive)
REMARK    1  A    between atoms: C_1  and  N_2
REMARK    2  A    between atoms: C_7  and  N_8
REMARK    3  A    between atoms: N_8  and  C_9
REMARK    4  A    between atoms: C_10  and  C_11
REMARK    5  A    between atoms: C_17  and  C_18
REMARK                            x       y       z     vdW  Elec       q    Type
REMARK                         _______ _______ _______ _____ _____    ______ ____
ROOT
ATOM      1  C   UNL     1       4.287   3.913  19.874  0.00  0.00    +0.000 A 
ATOM      2  C   UNL     1       3.954   2.718  20.554  0.00  0.00    +0.000 A 
ATOM      3  C   UNL     1       2.743   2.628  21.225  0.00  0.00    +0.000 A 
ATOM      4  N   UNL     1       1.829   3.603  21.322  0.00  0.00    +0.000 NA
ATOM      5  C   UNL     1       2.172   4.740  20.691  0.00  0.00    +0.000 A 
ATOM      6  S   UNL     1       1.133   6.075  20.747  0.00  0.00    +0.000 S 
ATOM      7  C   UNL     1       2.159   7.018  19.756  0.00  0.00    +0.000 A 
ATOM      8  C   UNL     1       3.285   6.302  19.404  0.00  0.00    +0.000 A 
ATOM      9  C   UNL     1       3.332   4.971  19.961  0.00  0.00    +0.000 A 
ENDROOT
BRANCH   7  10
ATOM     10  C   UNL     1       1.786   8.383  19.376  0.00  0.00    +0.000 A 
ATOM     11  C   UNL     1       1.033   9.191  20.244  0.00  0.00    +0.000 A 
ATOM     12  C   UNL     1       0.722  10.507  19.894  0.00  0.00    +0.000 A 
ATOM     13  C   UNL     1       1.160  11.027  18.676  0.00  0.00    +0.000 A 
ATOM     14  C   UNL     1       1.901  10.237  17.804  0.00  0.00    +0.000 A 
ATOM     15  C   UNL     1       2.209   8.924  18.154  0.00  0.00    +0.000 A 
ENDBRANCH   7  10
BRANCH   1  16
ATOM     16  N   UNL     1       5.475   4.014  19.102  0.00  0.00    +0.000 N 
ATOM     17  H   UNL     1       6.206   4.593  19.511  0.00  0.00    +0.000 HD
BRANCH  16  24
ATOM     18  C   UNL     1       5.448   3.533  12.498  0.00  0.00    +0.000 C 
ATOM     19  N   UNL     1       6.172   4.131  13.597  0.00  0.00    +0.000 N 
ATOM     20  C   UNL     1       7.339   4.838  13.487  0.00  0.00    +0.000 A 
ATOM     21  C   UNL     1       7.740   5.194  14.753  0.00  0.00    +0.000 A 
ATOM     22  C   UNL     1       6.781   4.674  15.663  0.00  0.00    +0.000 A 
ATOM     23  C   UNL     1       6.676   4.665  17.060  0.00  0.00    +0.000 A 
ATOM     24  C   UNL     1       5.573   4.069  17.691  0.00  0.00    +0.000 A 
ATOM     25  C   UNL     1       4.572   3.486  16.908  0.00  0.00    +0.000 A 
ATOM     26  C   UNL     1       4.670   3.447  15.513  0.00  0.00    +0.000 A 
ATOM     27  C   UNL     1       5.790   4.042  14.917  0.00  0.00    +0.000 A 
ENDBRANCH  16  24
ENDBRANCH   1  16
BRANCH   2  28
ATOM     28  C   UNL     1       4.825   1.593  20.597  0.00  0.00    +0.000 C 
ATOM     29  N   UNL     1       5.539   0.671  20.642  0.00  0.00    +0.000 NA
ENDBRANCH   2  28
TORSDOF 4
ENDMDL
MODEL 6
REMARK VINA RESULT:      -7.1      2.464      6.747
REMARK  Name = 
REMARK  5 active torsions:
REMARK  status: ('A' for Active; 'I' for Inactive)
REMARK    1  A    between atoms: C_1  and  N_2
REMARK    2  A    between atoms: C_7  and  N_8
REMARK    3  A    between atoms: N_8  and  C_9
REMARK    4  A    between atoms: C_10  and  C_11
REMARK    5  A    between atoms: C_17  and  C_18
REMARK                            x       y       z     vdW  Elec       q    Type
REMARK                         _______ _______ _______ _____ _____    ______ ____
ROOT
ATOM      1  C   UNL     1       0.818  10.356  19.459  0.00  0.00    +0.000 A 
ATOM      2  C   UNL     1       1.448   9.094  19.343  0.00  0.00    +0.000 A 
ATOM      3  C   UNL     1       1.360   8.188  20.390  0.00  0.00    +0.000 A 
ATOM      4  N   UNL     1       0.737   8.399  21.556  0.00  0.00    +0.000 NA
ATOM      5  C   UNL     1       0.166   9.612  21.660  0.00  0.00    +0.000 A 
ATOM      6  S   UNL     1      -0.636  10.042  23.088  0.00  0.00    +0.000 S 
ATOM      7  C   UNL     1      -1.091  11.569  22.470  0.00  0.00    +0.000 A 
ATOM      8  C   UNL     1      -0.616  11.733  21.184  0.00  0.00    +0.000 A 
ATOM      9  C   UNL     1       0.147  10.611  20.694  0.00  0.00    +0.000 A 
ENDROOT
BRANCH   7  10
ATOM     10  C   UNL     1      -1.894  12.494  23.275  0.00  0.00    +0.000 A 
ATOM     11  C   UNL     1      -1.398  13.761  23.624  0.00  0.00    +0.000 A 
ATOM     12  C   UNL     1      -2.188  14.654  24.351  0.00  0.00    +0.000 A 
ATOM     13  C   UNL     1      -3.479  14.291  24.734  0.00  0.00    +0.000 A 
ATOM     14  C   UNL     1      -3.981  13.038  24.401  0.00  0.00    +0.000 A 
ATOM     15  C   UNL     1      -3.191  12.147  23.676  0.00  0.00    +0.000 A 
ENDBRANCH   7  10
BRANCH   1  16
ATOM     16  N   UNL     1       0.809  11.276  18.377  0.00  0.00    +0.000 N 
ATOM     17  H   UNL     1       1.107  10.890  17.482  0.00  0.00    +0.000 HD
BRANCH  16  24
ATOM     18  C   UNL     1       1.519  17.859  18.338  0.00  0.00    +0.000 C 
ATOM     19  N   UNL     1       2.275  16.628  18.281  0.00  0.00    +0.000 N 
ATOM     20  C   UNL     1       3.626  16.535  18.080  0.00  0.00    +0.000 A 
ATOM     21  C   UNL     1       3.957  15.201  18.035  0.00  0.00    +0.000 A 
ATOM     22  C   UNL     1       2.758  14.461  18.209  0.00  0.00    +0.000 A 
ATOM     23  C   UNL     1       2.454  13.093  18.203  0.00  0.00    +0.000 A 
ATOM     24  C   UNL     1       1.139  12.651  18.423  0.00  0.00    +0.000 A 
ATOM     25  C   UNL     1       0.133  13.593  18.655  0.00  0.00    +0.000 A 
ATOM     26  C   UNL     1       0.401  14.966  18.629  0.00  0.00    +0.000 A 
ATOM     27  C   UNL     1       1.722  15.372  18.395  0.00  0.00    +0.000 A 
ENDBRANCH  16  24
ENDBRANCH   1  16
BRANCH   2  28
ATOM     28  C   UNL     1       2.194   8.714  18.193  0.00  0.00    +0.000 C 
ATOM     29  N   UNL     1       2.808   8.411  17.247  0.00  0.00    +0.000 NA
ENDBRANCH   2  28
TORSDOF 4
ENDMDL
MODEL 7
REMARK VINA RESULT:      -7.0      2.874      4.769
REMARK  Name = 
REMARK  5 active torsions:
REMARK  status: ('A' for Active; 'I' for Inactive)
REMARK    1  A    between atoms: C_1  and  N_2
REMARK    2  A    between atoms: C_7  and  N_8
REMARK    3  A    between atoms: N_8  and  C_9
REMARK    4  A    between atoms: C_10  and  C_11
REMARK    5  A    between atoms: C_17  and  C_18
REMARK                            x       y       z     vdW  Elec       q    Type
REMARK                         _______ _______ _______ _____ _____    ______ ____
ROOT
ATOM      1  C   UNL     1       3.101   7.137  18.327  0.00  0.00    +0.000 A 
ATOM      2  C   UNL     1       2.561   6.696  19.559  0.00  0.00    +0.000 A 
ATOM      3  C   UNL     1       2.749   5.380  19.955  0.00  0.00    +0.000 A 
ATOM      4  N   UNL     1       3.393   4.437  19.255  0.00  0.00    +0.000 NA
ATOM      5  C   UNL     1       3.878   4.866  18.076  0.00  0.00    +0.000 A 
ATOM      6  S   UNL     1       4.692   3.783  17.061  0.00  0.00    +0.000 S 
ATOM      7  C   UNL     1       5.014   4.991  15.895  0.00  0.00    +0.000 A 
ATOM      8  C   UNL     1       4.488   6.203  16.294  0.00  0.00    +0.000 A 
ATOM      9  C   UNL     1       3.792   6.152  17.557  0.00  0.00    +0.000 A 
ENDROOT
BRANCH   7  10
ATOM     10  C   UNL     1       5.774   4.677  14.681  0.00  0.00    +0.000 A 
ATOM     11  C   UNL     1       5.247   3.815  13.706  0.00  0.00    +0.000 A 
ATOM     12  C   UNL     1       5.958   3.559  12.531  0.00  0.00    +0.000 A 
ATOM     13  C   UNL     1       7.198   4.160  12.320  0.00  0.00    +0.000 A 
ATOM     14  C   UNL     1       7.735   5.011  13.280  0.00  0.00    +0.000 A 
ATOM     15  C   UNL     1       7.026   5.265  14.452  0.00  0.00    +0.000 A 
ENDBRANCH   7  10
BRANCH   1  16
ATOM     16  N   UNL     1       3.008   8.497  17.928  0.00  0.00    +0.000 N 
ATOM     17  H   UNL     1       3.866   9.036  18.035  0.00  0.00    +0.000 HD
BRANCH  16  24
ATOM     18  C   UNL     1      -1.795  12.813  19.389  0.00  0.00    +0.000 C 
ATOM     19  N   UNL     1      -1.530  11.613  18.629  0.00  0.00    +0.000 N 
ATOM     20  C   UNL     1      -2.465  10.890  17.937  0.00  0.00    +0.000 A 
ATOM     21  C   UNL     1      -1.836   9.794  17.394  0.00  0.00    +0.000 A 
ATOM     22  C   UNL     1      -0.471   9.856  17.779  0.00  0.00    +0.000 A 
ATOM     23  C   UNL     1       0.631   9.013  17.580  0.00  0.00    +0.000 A 
ATOM     24  C   UNL     1       1.896   9.358  18.083  0.00  0.00    +0.000 A 
ATOM     25  C   UNL     1       2.047  10.558  18.783  0.00  0.00    +0.000 A 
ATOM     26  C   UNL     1       0.957  11.400  19.029  0.00  0.00    +0.000 A 
ATOM     27  C   UNL     1      -0.293  11.020  18.522  0.00  0.00    +0.000 A 
ENDBRANCH  16  24
ENDBRANCH   1  16
BRANCH   2  28
ATOM     28  C   UNL     1       1.808   7.549  20.413  0.00  0.00    +0.000 C 
ATOM     29  N   UNL     1       1.198   8.254  21.115  0.00  0.00    +0.000 NA
ENDBRANCH   2  28
TORSDOF 4
ENDMDL
MODEL 8
REMARK VINA RESULT:      -7.0      1.037      1.592
REMARK  Name = 
REMARK  5 active torsions:
REMARK  status: ('A' for Active; 'I' for Inactive)
REMARK    1  A    between atoms: C_1  and  N_2
REMARK    2  A    between atoms: C_7  and  N_8
REMARK    3  A    between atoms: N_8  and  C_9
REMARK    4  A    between atoms: C_10  and  C_11
REMARK    5  A    between atoms: C_17  and  C_18
REMARK                            x       y       z     vdW  Elec       q    Type
REMARK                         _______ _______ _______ _____ _____    ______ ____
ROOT
ATOM      1  C   UNL     1       0.706  10.284  19.783  0.00  0.00    +0.000 A 
ATOM      2  C   UNL     1      -0.077  10.365  20.959  0.00  0.00    +0.000 A 
ATOM      3  C   UNL     1      -0.141   9.275  21.814  0.00  0.00    +0.000 A 
ATOM      4  N   UNL     1       0.466   8.096  21.624  0.00  0.00    +0.000 NA
ATOM      5  C   UNL     1       1.185   8.027  20.490  0.00  0.00    +0.000 A 
ATOM      6  S   UNL     1       1.988   6.590  20.094  0.00  0.00    +0.000 S 
ATOM      7  C   UNL     1       2.657   7.261  18.670  0.00  0.00    +0.000 A 
ATOM      8  C   UNL     1       2.250   8.570  18.513  0.00  0.00    +0.000 A 
ATOM      9  C   UNL     1       1.364   9.037  19.553  0.00  0.00    +0.000 A 
ENDROOT
BRANCH   7  10
ATOM     10  C   UNL     1       3.546   6.469  17.815  0.00  0.00    +0.000 A 
ATOM     11  C   UNL     1       3.433   5.071  17.760  0.00  0.00    +0.000 A 
ATOM     12  C   UNL     1       4.253   4.328  16.907  0.00  0.00    +0.000 A 
ATOM     13  C   UNL     1       5.190   4.975  16.102  0.00  0.00    +0.000 A 
ATOM     14  C   UNL     1       5.317   6.359  16.150  0.00  0.00    +0.000 A 
ATOM     15  C   UNL     1       4.499   7.098  17.003  0.00  0.00    +0.000 A 
ENDBRANCH   7  10
BRANCH   1  16
ATOM     16  N   UNL     1       0.870  11.406  18.928  0.00  0.00    +0.000 N 
ATOM     17  H   UNL     1       0.807  11.202  17.932  0.00  0.00    +0.000 HD
BRANCH  16  24
ATOM     18  C   UNL     1       4.596  16.601  20.652  0.00  0.00    +0.000 C 
ATOM     19  N   UNL     1       4.074  15.902  19.500  0.00  0.00    +0.000 N 
ATOM     20  C   UNL     1       4.208  16.306  18.199  0.00  0.00    +0.000 A 
ATOM     21  C   UNL     1       3.532  15.409  17.405  0.00  0.00    +0.000 A 
ATOM     22  C   UNL     1       2.963  14.431  18.261  0.00  0.00    +0.000 A 
ATOM     23  C   UNL     1       2.137  13.318  18.048  0.00  0.00    +0.000 A 
ATOM     24  C   UNL     1       1.738  12.507  19.122  0.00  0.00    +0.000 A 
ATOM     25  C   UNL     1       2.179  12.818  20.412  0.00  0.00    +0.000 A 
ATOM     26  C   UNL     1       2.972  13.944  20.659  0.00  0.00    +0.000 A 
ATOM     27  C   UNL     1       3.343  14.737  19.565  0.00  0.00    +0.000 A 
ENDBRANCH  16  24
ENDBRANCH   1  16
BRANCH   2  28
ATOM     28  C   UNL     1      -0.827  11.525  21.299  0.00  0.00    +0.000 C 
ATOM     29  N   UNL     1      -1.440  12.476  21.587  0.00  0.00    +0.000 NA
ENDBRANCH   2  28
TORSDOF 4
ENDMDL
MODEL 9
REMARK VINA RESULT:      -7.0      2.982      4.268
REMARK  Name = 
REMARK  5 active torsions:
REMARK  status: ('A' for Active; 'I' for Inactive)
REMARK    1  A    between atoms: C_1  and  N_2
REMARK    2  A    between atoms: C_7  and  N_8
REMARK    3  A    between atoms: N_8  and  C_9
REMARK    4  A    between atoms: C_10  and  C_11
REMARK    5  A    between atoms: C_17  and  C_18
REMARK                            x       y       z     vdW  Elec       q    Type
REMARK                         _______ _______ _______ _____ _____    ______ ____
ROOT
ATOM      1  C   UNL     1       1.029   9.223  19.769  0.00  0.00    +0.000 A 
ATOM      2  C   UNL     1       0.543   9.191  21.098  0.00  0.00    +0.000 A 
ATOM      3  C   UNL     1       0.898   8.140  21.930  0.00  0.00    +0.000 A 
ATOM      4  N   UNL     1       1.664   7.095  21.587  0.00  0.00    +0.000 NA
ATOM      5  C   UNL     1       2.096   7.128  20.315  0.00  0.00    +0.000 A 
ATOM      6  S   UNL     1       3.051   5.862  19.721  0.00  0.00    +0.000 S 
ATOM      7  C   UNL     1       3.221   6.600  18.189  0.00  0.00    +0.000 A 
ATOM      8  C   UNL     1       2.539   7.799  18.149  0.00  0.00    +0.000 A 
ATOM      9  C   UNL     1       1.847   8.121  19.374  0.00  0.00    +0.000 A 
ENDROOT
BRANCH   7  10
ATOM     10  C   UNL     1       4.023   5.967  17.137  0.00  0.00    +0.000 A 
ATOM     11  C   UNL     1       4.778   6.743  16.244  0.00  0.00    +0.000 A 
ATOM     12  C   UNL     1       5.576   6.130  15.275  0.00  0.00    +0.000 A 
ATOM     13  C   UNL     1       5.628   4.739  15.191  0.00  0.00    +0.000 A 
ATOM     14  C   UNL     1       4.881   3.958  16.066  0.00  0.00    +0.000 A 
ATOM     15  C   UNL     1       4.084   4.570  17.031  0.00  0.00    +0.000 A 
ENDBRANCH   7  10
BRANCH   1  16
ATOM     16  N   UNL     1       0.763  10.325  18.914  0.00  0.00    +0.000 N 
ATOM     17  H   UNL     1       1.258  11.184  19.153  0.00  0.00    +0.000 HD
BRANCH  16  24
ATOM     18  C   UNL     1      -5.250  12.179  16.855  0.00  0.00    +0.000 C 
ATOM     19  N   UNL     1      -4.153  11.297  16.530  0.00  0.00    +0.000 N 
ATOM     20  C   UNL     1      -4.153  10.371  15.521  0.00  0.00    +0.000 A 
ATOM     21  C   UNL     1      -2.956   9.694  15.568  0.00  0.00    +0.000 A 
ATOM     22  C   UNL     1      -2.210  10.229  16.650  0.00  0.00    +0.000 A 
ATOM     23  C   UNL     1      -0.965   9.918  17.216  0.00  0.00    +0.000 A 
ATOM     24  C   UNL     1      -0.471  10.654  18.305  0.00  0.00    +0.000 A 
ATOM     25  C   UNL     1      -1.232  11.708  18.818  0.00  0.00    +0.000 A 
ATOM     26  C   UNL     1      -2.495  12.015  18.297  0.00  0.00    +0.000 A 
ATOM     27  C   UNL     1      -2.962  11.254  17.218  0.00  0.00    +0.000 A 
ENDBRANCH  16  24
ENDBRANCH   1  16
BRANCH   2  28
ATOM     28  C   UNL     1      -0.320  10.194  21.621  0.00  0.00    +0.000 C 
ATOM     29  N   UNL     1      -1.035  11.014  22.044  0.00  0.00    +0.000 NA
ENDBRANCH   2  28
TORSDOF 4
ENDMDL
