MODEL 1
REMARK VINA RESULT:      -8.2      0.000      0.000
REMARK  Name = 
REMARK  9 active torsions:
REMARK  status: ('A' for Active; 'I' for Inactive)
REMARK    1  A    between atoms: C_1  and  C_2
REMARK    2  A    between atoms: C_2  and  N_3
REMARK    3  A    between atoms: C_2  and  C_17
REMARK    4  A    between atoms: N_3  and  S_4
REMARK    5  A    between atoms: S_4  and  C_7
REMARK    6  A    between atoms: C_17  and  C_18
REMARK    7  A    between atoms: C_17  and  C_26
REMARK    8  A    between atoms: C_18  and  C_19
REMARK    9  A    between atoms: C_30  and  C_31
REMARK                            x       y       z     vdW  Elec       q    Type
REMARK                         _______ _______ _______ _____ _____    ______ ____
ROOT
ATOM      1  C   UNL     1       1.895   6.610  20.626  0.00  0.00    +0.000 C 
ATOM      2  C   UNL     1       2.374   7.405  19.384  0.00  0.00    +0.000 C 
ENDROOT
BRANCH   2   3
ATOM      3  N   UNL     1       1.165   8.081  18.865  0.00  0.00    +0.000 NA
ATOM      4  H   UNL     1       0.429   7.511  18.450  0.00  0.00    +0.000 HD
BRANCH   3   5
ATOM      5  S   UNL     1       0.789   9.714  18.875  0.00  0.00    +0.000 S 
ATOM      6  O   UNL     1       1.997  10.496  18.802  0.00  0.00    +0.000 OA
ATOM      7  O   UNL     1      -0.192   9.869  17.821  0.00  0.00    +0.000 OA
BRANCH   5   8
ATOM      8  C   UNL     1      -0.000  10.078  20.432  0.00  0.00    +0.000 A 
ATOM      9  C   UNL     1      -0.135   9.008  21.338  0.00  0.00    +0.000 A 
ATOM     10  C   UNL     1      -0.543   9.230  22.647  0.00  0.00    +0.000 A 
ATOM     11  C   UNL     1      -0.798  10.529  23.072  0.00  0.00    +0.000 A 
ATOM     12  C   UNL     1      -0.673  11.615  22.190  0.00  0.00    +0.000 A 
ATOM     13  C   UNL     1      -0.920  12.914  22.660  0.00  0.00    +0.000 A 
ATOM     14  C   UNL     1      -0.799  14.018  21.819  0.00  0.00    +0.000 A 
ATOM     15  C   UNL     1      -0.432  13.837  20.496  0.00  0.00    +0.000 A 
ATOM     16  C   UNL     1      -0.183  12.553  20.012  0.00  0.00    +0.000 A 
ATOM     17  C   UNL     1      -0.279  11.408  20.840  0.00  0.00    +0.000 A 
ENDBRANCH   5   8
ENDBRANCH   3   5
ENDBRANCH   2   3
BRANCH   2  18
ATOM     18  C   UNL     1       3.017   6.420  18.345  0.00  0.00    +0.000 C 
BRANCH  18  19
ATOM     19  C   UNL     1       2.772   4.910  18.536  0.00  0.00    +0.000 A 
ATOM     20  C   UNL     1       1.664   4.223  18.017  0.00  0.00    +0.000 A 
ATOM     21  C   UNL     1       1.423   2.883  18.326  0.00  0.00    +0.000 A 
ATOM     22  C   UNL     1       2.318   2.182  19.127  0.00  0.00    +0.000 A 
ATOM     23  C   UNL     1       3.452   2.825  19.623  0.00  0.00    +0.000 A 
ATOM     24  C   UNL     1       3.670   4.179  19.338  0.00  0.00    +0.000 A 
BRANCH  23  25
ATOM     25  C   UNL     1       4.388   2.102  20.429  0.00  0.00    +0.000 C 
ATOM     26  N   UNL     1       5.145   1.505  21.080  0.00  0.00    +0.000 NA
ENDBRANCH  23  25
ENDBRANCH  18  19
BRANCH  18  27
ATOM     27  C   UNL     1       4.532   6.632  18.052  0.00  0.00    +0.000 C 
BRANCH  27  28
ATOM     28  C   UNL     1       5.202   5.961  16.864  0.00  0.00    +0.000 A 
ATOM     29  C   UNL     1       6.000   4.818  16.957  0.00  0.00    +0.000 A 
ATOM     30  C   UNL     1       6.460   4.139  15.832  0.00  0.00    +0.000 A 
ATOM     31  C   UNL     1       6.157   4.625  14.572  0.00  0.00    +0.000 A 
ATOM     32 CL   UNL     1       6.676   3.755  13.185  0.00  0.00    +0.000 Cl
ATOM     33  C   UNL     1       5.436   5.807  14.439  0.00  0.00    +0.000 A 
ATOM     34  C   UNL     1       4.959   6.468  15.578  0.00  0.00    +0.000 A 
ENDBRANCH  27  28
ENDBRANCH  18  27
ENDBRANCH   2  18
TORSDOF 8
ENDMDL
MODEL 2
REMARK VINA RESULT:      -8.1      4.299      7.248
REMARK  Name = 
REMARK  9 active torsions:
REMARK  status: ('A' for Active; 'I' for Inactive)
REMARK    1  A    between atoms: C_1  and  C_2
REMARK    2  A    between atoms: C_2  and  N_3
REMARK    3  A    between atoms: C_2  and  C_17
REMARK    4  A    between atoms: N_3  and  S_4
REMARK    5  A    between atoms: S_4  and  C_7
REMARK    6  A    between atoms: C_17  and  C_18
REMARK    7  A    between atoms: C_17  and  C_26
REMARK    8  A    between atoms: C_18  and  C_19
REMARK    9  A    between atoms: C_30  and  C_31
REMARK                            x       y       z     vdW  Elec       q    Type
REMARK                         _______ _______ _______ _____ _____    ______ ____
ROOT
ATOM      1  C   UNL     1       2.363  12.922  18.317  0.00  0.00    +0.000 C 
ATOM      2  C   UNL     1       0.967  12.996  18.988  0.00  0.00    +0.000 C 
ENDROOT
BRANCH   2   3
ATOM      3  N   UNL     1       1.234  13.288  20.413  0.00  0.00    +0.000 NA
ATOM      4  H   UNL     1       1.467  12.513  21.033  0.00  0.00    +0.000 HD
BRANCH   3   5
ATOM      5  S   UNL     1       1.239  14.768  21.199  0.00  0.00    +0.000 S 
ATOM      6  O   UNL     1       2.095  14.705  22.357  0.00  0.00    +0.000 OA
ATOM      7  O   UNL     1       1.557  15.729  20.164  0.00  0.00    +0.000 OA
BRANCH   5   8
ATOM      8  C   UNL     1      -0.421  15.085  21.768  0.00  0.00    +0.000 A 
ATOM      9  C   UNL     1      -0.962  16.350  21.465  0.00  0.00    +0.000 A 
ATOM     10  C   UNL     1      -2.308  16.618  21.680  0.00  0.00    +0.000 A 
ATOM     11  C   UNL     1      -3.133  15.616  22.177  0.00  0.00    +0.000 A 
ATOM     12  C   UNL     1      -2.621  14.347  22.489  0.00  0.00    +0.000 A 
ATOM     13  C   UNL     1      -3.489  13.354  22.972  0.00  0.00    +0.000 A 
ATOM     14  C   UNL     1      -3.020  12.080  23.284  0.00  0.00    +0.000 A 
ATOM     15  C   UNL     1      -1.678  11.782  23.121  0.00  0.00    +0.000 A 
ATOM     16  C   UNL     1      -0.801  12.756  22.644  0.00  0.00    +0.000 A 
ATOM     17  C   UNL     1      -1.242  14.057  22.299  0.00  0.00    +0.000 A 
ENDBRANCH   5   8
ENDBRANCH   3   5
ENDBRANCH   2   3
BRANCH   2  18
ATOM     18  C   UNL     1       0.209  11.638  18.774  0.00  0.00    +0.000 C 
BRANCH  18  19
ATOM     19  C   UNL     1      -1.304  11.696  18.478  0.00  0.00    +0.000 A 
ATOM     20  C   UNL     1      -2.264  12.161  19.389  0.00  0.00    +0.000 A 
ATOM     21  C   UNL     1      -3.631  12.073  19.119  0.00  0.00    +0.000 A 
ATOM     22  C   UNL     1      -4.069  11.560  17.903  0.00  0.00    +0.000 A 
ATOM     23  C   UNL     1      -3.137  11.129  16.959  0.00  0.00    +0.000 A 
ATOM     24  C   UNL     1      -1.768  11.187  17.249  0.00  0.00    +0.000 A 
BRANCH  23  25
ATOM     25  C   UNL     1      -3.581  10.620  15.697  0.00  0.00    +0.000 C 
ATOM     26  N   UNL     1      -3.931  10.204  14.669  0.00  0.00    +0.000 NA
ENDBRANCH  23  25
ENDBRANCH  18  19
BRANCH  18  27
ATOM     27  C   UNL     1       0.450  10.544  19.856  0.00  0.00    +0.000 C 
BRANCH  27  28
ATOM     28  C   UNL     1       1.137   9.234  19.506  0.00  0.00    +0.000 A 
ATOM     29  C   UNL     1       1.642   8.928  18.240  0.00  0.00    +0.000 A 
ATOM     30  C   UNL     1       2.409   7.790  18.001  0.00  0.00    +0.000 A 
ATOM     31  C   UNL     1       2.653   6.903  19.035  0.00  0.00    +0.000 A 
ATOM     32 CL   UNL     1       3.646   5.531  18.752  0.00  0.00    +0.000 Cl
ATOM     33  C   UNL     1       2.097   7.130  20.289  0.00  0.00    +0.000 A 
ATOM     34  C   UNL     1       1.347   8.290  20.524  0.00  0.00    +0.000 A 
ENDBRANCH  27  28
ENDBRANCH  18  27
ENDBRANCH   2  18
TORSDOF 8
ENDMDL
MODEL 3
REMARK VINA RESULT:      -8.1      1.691      2.417
REMARK  Name = 
REMARK  9 active torsions:
REMARK  status: ('A' for Active; 'I' for Inactive)
REMARK    1  A    between atoms: C_1  and  C_2
REMARK    2  A    between atoms: C_2  and  N_3
REMARK    3  A    between atoms: C_2  and  C_17
REMARK    4  A    between atoms: N_3  and  S_4
REMARK    5  A    between atoms: S_4  and  C_7
REMARK    6  A    between atoms: C_17  and  C_18
REMARK    7  A    between atoms: C_17  and  C_26
REMARK    8  A    between atoms: C_18  and  C_19
REMARK    9  A    between atoms: C_30  and  C_31
REMARK                            x       y       z     vdW  Elec       q    Type
REMARK                         _______ _______ _______ _____ _____    ______ ____
ROOT
ATOM      1  C   UNL     1       2.107   8.163  17.688  0.00  0.00    +0.000 C 
ATOM      2  C   UNL     1       1.841   7.167  18.846  0.00  0.00    +0.000 C 
ENDROOT
BRANCH   2   3
ATOM      3  N   UNL     1       2.144   7.918  20.083  0.00  0.00    +0.000 NA
ATOM      4  H   UNL     1       3.119   8.114  20.307  0.00  0.00    +0.000 HD
BRANCH   3   5
ATOM      5  S   UNL     1       1.082   8.549  21.215  0.00  0.00    +0.000 S 
ATOM      6  O   UNL     1      -0.084   7.708  21.315  0.00  0.00    +0.000 OA
ATOM      7  O   UNL     1       1.887   8.747  22.401  0.00  0.00    +0.000 OA
BRANCH   5   8
ATOM      8  C   UNL     1       0.549  10.146  20.627  0.00  0.00    +0.000 A 
ATOM      9  C   UNL     1       0.939  10.500  19.321  0.00  0.00    +0.000 A 
ATOM     10  C   UNL     1       0.406  11.622  18.698  0.00  0.00    +0.000 A 
ATOM     11  C   UNL     1      -0.541  12.389  19.367  0.00  0.00    +0.000 A 
ATOM     12  C   UNL     1      -0.947  12.060  20.670  0.00  0.00    +0.000 A 
ATOM     13  C   UNL     1      -1.920  12.847  21.306  0.00  0.00    +0.000 A 
ATOM     14  C   UNL     1      -2.356  12.548  22.595  0.00  0.00    +0.000 A 
ATOM     15  C   UNL     1      -1.823  11.461  23.266  0.00  0.00    +0.000 A 
ATOM     16  C   UNL     1      -0.855  10.668  22.650  0.00  0.00    +0.000 A 
ATOM     17  C   UNL     1      -0.398  10.929  21.335  0.00  0.00    +0.000 A 
ENDBRANCH   5   8
ENDBRANCH   3   5
ENDBRANCH   2   3
BRANCH   2  18
ATOM     18  C   UNL     1       2.745   5.897  18.665  0.00  0.00    +0.000 C 
BRANCH  18  19
ATOM     19  C   UNL     1       2.487   4.690  19.589  0.00  0.00    +0.000 A 
ATOM     20  C   UNL     1       1.263   4.440  20.230  0.00  0.00    +0.000 A 
ATOM     21  C   UNL     1       1.121   3.405  21.156  0.00  0.00    +0.000 A 
ATOM     22  C   UNL     1       2.192   2.561  21.427  0.00  0.00    +0.000 A 
ATOM     23  C   UNL     1       3.409   2.757  20.775  0.00  0.00    +0.000 A 
ATOM     24  C   UNL     1       3.557   3.818  19.872  0.00  0.00    +0.000 A 
BRANCH  23  25
ATOM     25  C   UNL     1       4.508   1.878  21.033  0.00  0.00    +0.000 C 
ATOM     26  N   UNL     1       5.408   1.172  21.245  0.00  0.00    +0.000 NA
ENDBRANCH  23  25
ENDBRANCH  18  19
BRANCH  18  27
ATOM     27  C   UNL     1       4.281   6.153  18.620  0.00  0.00    +0.000 C 
BRANCH  27  28
ATOM     28  C   UNL     1       5.113   5.718  17.425  0.00  0.00    +0.000 A 
ATOM     29  C   UNL     1       4.647   4.882  16.407  0.00  0.00    +0.000 A 
ATOM     30  C   UNL     1       5.381   4.640  15.248  0.00  0.00    +0.000 A 
ATOM     31  C   UNL     1       6.635   5.208  15.106  0.00  0.00    +0.000 A 
ATOM     32 CL   UNL     1       7.515   4.955  13.652  0.00  0.00    +0.000 Cl
ATOM     33  C   UNL     1       7.169   5.978  16.133  0.00  0.00    +0.000 A 
ATOM     34  C   UNL     1       6.411   6.234  17.284  0.00  0.00    +0.000 A 
ENDBRANCH  27  28
ENDBRANCH  18  27
ENDBRANCH   2  18
TORSDOF 8
ENDMDL
MODEL 4
REMARK VINA RESULT:      -8.1      1.913      2.754
REMARK  Name = 
REMARK  9 active torsions:
REMARK  status: ('A' for Active; 'I' for Inactive)
REMARK    1  A    between atoms: C_1  and  C_2
REMARK    2  A    between atoms: C_2  and  N_3
REMARK    3  A    between atoms: C_2  and  C_17
REMARK    4  A    between atoms: N_3  and  S_4
REMARK    5  A    between atoms: S_4  and  C_7
REMARK    6  A    between atoms: C_17  and  C_18
REMARK    7  A    between atoms: C_17  and  C_26
REMARK    8  A    between atoms: C_18  and  C_19
REMARK    9  A    between atoms: C_30  and  C_31
REMARK                            x       y       z     vdW  Elec       q    Type
REMARK                         _______ _______ _______ _____ _____    ______ ____
ROOT
ATOM      1  C   UNL     1       2.382   8.712  17.885  0.00  0.00    +0.000 C 
ATOM      2  C   UNL     1       1.869   7.565  18.794  0.00  0.00    +0.000 C 
ENDROOT
BRANCH   2   3
ATOM      3  N   UNL     1       2.036   8.060  20.178  0.00  0.00    +0.000 NA
ATOM      4  H   UNL     1       2.953   7.977  20.616  0.00  0.00    +0.000 HD
BRANCH   3   5
ATOM      5  S   UNL     1       0.907   8.794  21.174  0.00  0.00    +0.000 S 
ATOM      6  O   UNL     1      -0.334   8.063  21.130  0.00  0.00    +0.000 OA
ATOM      7  O   UNL     1       1.578   8.928  22.450  0.00  0.00    +0.000 OA
BRANCH   5   8
ATOM      8  C   UNL     1       0.597  10.428  20.530  0.00  0.00    +0.000 A 
ATOM      9  C   UNL     1       1.475  11.448  20.946  0.00  0.00    +0.000 A 
ATOM     10  C   UNL     1       1.447  12.700  20.345  0.00  0.00    +0.000 A 
ATOM     11  C   UNL     1       0.555  12.939  19.305  0.00  0.00    +0.000 A 
ATOM     12  C   UNL     1      -0.333  11.941  18.872  0.00  0.00    +0.000 A 
ATOM     13  C   UNL     1      -1.206  12.213  17.806  0.00  0.00    +0.000 A 
ATOM     14  C   UNL     1      -2.095  11.246  17.341  0.00  0.00    +0.000 A 
ATOM     15  C   UNL     1      -2.126   9.997  17.938  0.00  0.00    +0.000 A 
ATOM     16  C   UNL     1      -1.266   9.710  18.998  0.00  0.00    +0.000 A 
ATOM     17  C   UNL     1      -0.337  10.659  19.488  0.00  0.00    +0.000 A 
ENDBRANCH   5   8
ENDBRANCH   3   5
ENDBRANCH   2   3
BRANCH   2  18
ATOM     18  C   UNL     1       2.692   6.260  18.508  0.00  0.00    +0.000 C 
BRANCH  18  19
ATOM     19  C   UNL     1       2.386   5.013  19.362  0.00  0.00    +0.000 A 
ATOM     20  C   UNL     1       1.125   4.725  19.905  0.00  0.00    +0.000 A 
ATOM     21  C   UNL     1       0.932   3.651  20.776  0.00  0.00    +0.000 A 
ATOM     22  C   UNL     1       1.992   2.805  21.085  0.00  0.00    +0.000 A 
ATOM     23  C   UNL     1       3.248   3.040  20.526  0.00  0.00    +0.000 A 
ATOM     24  C   UNL     1       3.445   4.140  19.681  0.00  0.00    +0.000 A 
BRANCH  23  25
ATOM     25  C   UNL     1       4.338   2.161  20.823  0.00  0.00    +0.000 C 
ATOM     26  N   UNL     1       5.217   1.441  21.071  0.00  0.00    +0.000 NA
ENDBRANCH  23  25
ENDBRANCH  18  19
BRANCH  18  27
ATOM     27  C   UNL     1       4.238   6.430  18.436  0.00  0.00    +0.000 C 
BRANCH  27  28
ATOM     28  C   UNL     1       5.036   5.864  17.273  0.00  0.00    +0.000 A 
ATOM     29  C   UNL     1       4.554   4.893  16.390  0.00  0.00    +0.000 A 
ATOM     30  C   UNL     1       5.250   4.520  15.243  0.00  0.00    +0.000 A 
ATOM     31  C   UNL     1       6.481   5.094  14.976  0.00  0.00    +0.000 A 
ATOM     32 CL   UNL     1       7.311   4.675  13.532  0.00  0.00    +0.000 Cl
ATOM     33  C   UNL     1       7.033   6.002  15.874  0.00  0.00    +0.000 A 
ATOM     34  C   UNL     1       6.313   6.387  17.013  0.00  0.00    +0.000 A 
ENDBRANCH  27  28
ENDBRANCH  18  27
ENDBRANCH   2  18
TORSDOF 8
ENDMDL
MODEL 5
REMARK VINA RESULT:      -8.1      7.453      9.718
REMARK  Name = 
REMARK  9 active torsions:
REMARK  status: ('A' for Active; 'I' for Inactive)
REMARK    1  A    between atoms: C_1  and  C_2
REMARK    2  A    between atoms: C_2  and  N_3
REMARK    3  A    between atoms: C_2  and  C_17
REMARK    4  A    between atoms: N_3  and  S_4
REMARK    5  A    between atoms: S_4  and  C_7
REMARK    6  A    between atoms: C_17  and  C_18
REMARK    7  A    between atoms: C_17  and  C_26
REMARK    8  A    between atoms: C_18  and  C_19
REMARK    9  A    between atoms: C_30  and  C_31
REMARK                            x       y       z     vdW  Elec       q    Type
REMARK                         _______ _______ _______ _____ _____    ______ ____
ROOT
ATOM      1  C   UNL     1      -1.191  11.082  23.032  0.00  0.00    +0.000 C 
ATOM      2  C   UNL     1      -1.949  12.247  22.345  0.00  0.00    +0.000 C 
ENDROOT
BRANCH   2   3
ATOM      3  N   UNL     1      -3.369  12.059  22.712  0.00  0.00    +0.000 NA
ATOM      4  H   UNL     1      -3.799  11.151  22.541  0.00  0.00    +0.000 HD
BRANCH   3   5
ATOM      5  S   UNL     1      -4.424  13.150  23.422  0.00  0.00    +0.000 S 
ATOM      6  O   UNL     1      -5.483  12.441  24.095  0.00  0.00    +0.000 OA
ATOM      7  O   UNL     1      -3.575  14.021  24.208  0.00  0.00    +0.000 OA
BRANCH   5   8
ATOM      8  C   UNL     1      -5.163  14.116  22.118  0.00  0.00    +0.000 A 
ATOM      9  C   UNL     1      -4.741  15.456  22.007  0.00  0.00    +0.000 A 
ATOM     10  C   UNL     1      -5.096  16.226  20.907  0.00  0.00    +0.000 A 
ATOM     11  C   UNL     1      -5.858  15.657  19.893  0.00  0.00    +0.000 A 
ATOM     12  C   UNL     1      -6.294  14.325  19.977  0.00  0.00    +0.000 A 
ATOM     13  C   UNL     1      -7.045  13.779  18.924  0.00  0.00    +0.000 A 
ATOM     14  C   UNL     1      -7.488  12.459  18.966  0.00  0.00    +0.000 A 
ATOM     15  C   UNL     1      -7.188  11.668  20.063  0.00  0.00    +0.000 A 
ATOM     16  C   UNL     1      -6.443  12.194  21.118  0.00  0.00    +0.000 A 
ATOM     17  C   UNL     1      -5.960  13.525  21.105  0.00  0.00    +0.000 A 
ENDBRANCH   5   8
ENDBRANCH   3   5
ENDBRANCH   2   3
BRANCH   2  18
ATOM     18  C   UNL     1      -1.705  12.191  20.795  0.00  0.00    +0.000 C 
BRANCH  18  19
ATOM     19  C   UNL     1      -0.591  13.082  20.208  0.00  0.00    +0.000 A 
ATOM     20  C   UNL     1       0.777  12.780  20.286  0.00  0.00    +0.000 A 
ATOM     21  C   UNL     1       1.750  13.682  19.851  0.00  0.00    +0.000 A 
ATOM     22  C   UNL     1       1.373  14.892  19.279  0.00  0.00    +0.000 A 
ATOM     23  C   UNL     1       0.019  15.203  19.149  0.00  0.00    +0.000 A 
ATOM     24  C   UNL     1      -0.953  14.310  19.619  0.00  0.00    +0.000 A 
BRANCH  23  25
ATOM     25  C   UNL     1      -0.376  16.436  18.541  0.00  0.00    +0.000 C 
ATOM     26  N   UNL     1      -0.706  17.440  18.053  0.00  0.00    +0.000 NA
ENDBRANCH  23  25
ENDBRANCH  18  19
BRANCH  18  27
ATOM     27  C   UNL     1      -2.970  12.343  19.900  0.00  0.00    +0.000 C 
BRANCH  27  28
ATOM     28  C   UNL     1      -3.080  11.618  18.569  0.00  0.00    +0.000 A 
ATOM     29  C   UNL     1      -4.140  11.780  17.672  0.00  0.00    +0.000 A 
ATOM     30  C   UNL     1      -4.124  11.227  16.394  0.00  0.00    +0.000 A 
ATOM     31  C   UNL     1      -3.046  10.454  16.000  0.00  0.00    +0.000 A 
ATOM     32 CL   UNL     1      -3.002   9.820  14.404  0.00  0.00    +0.000 Cl
ATOM     33  C   UNL     1      -2.011  10.200  16.893  0.00  0.00    +0.000 A 
ATOM     34  C   UNL     1      -2.026  10.781  18.168  0.00  0.00    +0.000 A 
ENDBRANCH  27  28
ENDBRANCH  18  27
ENDBRANCH   2  18
TORSDOF 8
ENDMDL
MODEL 6
REMARK VINA RESULT:      -8.0      1.506      2.129
REMARK  Name = 
REMARK  9 active torsions:
REMARK  status: ('A' for Active; 'I' for Inactive)
REMARK    1  A    between atoms: C_1  and  C_2
REMARK    2  A    between atoms: C_2  and  N_3
REMARK    3  A    between atoms: C_2  and  C_17
REMARK    4  A    between atoms: N_3  and  S_4
REMARK    5  A    between atoms: S_4  and  C_7
REMARK    6  A    between atoms: C_17  and  C_18
REMARK    7  A    between atoms: C_17  and  C_26
REMARK    8  A    between atoms: C_18  and  C_19
REMARK    9  A    between atoms: C_30  and  C_31
REMARK                            x       y       z     vdW  Elec       q    Type
REMARK                         _______ _______ _______ _____ _____    ______ ____
ROOT
ATOM      1  C   UNL     1       0.873   5.942  20.501  0.00  0.00    +0.000 C 
ATOM      2  C   UNL     1       2.060   6.868  20.133  0.00  0.00    +0.000 C 
ENDROOT
BRANCH   2   3
ATOM      3  N   UNL     1       1.483   8.227  20.048  0.00  0.00    +0.000 NA
ATOM      4  H   UNL     1       1.609   8.755  19.185  0.00  0.00    +0.000 HD
BRANCH   3   5
ATOM      5  S   UNL     1       0.591   9.063  21.194  0.00  0.00    +0.000 S 
ATOM      6  O   UNL     1      -0.429   8.205  21.742  0.00  0.00    +0.000 OA
ATOM      7  O   UNL     1       1.580   9.614  22.096  0.00  0.00    +0.000 OA
BRANCH   5   8
ATOM      8  C   UNL     1      -0.226  10.414  20.364  0.00  0.00    +0.000 A 
ATOM      9  C   UNL     1      -0.272  10.357  18.958  0.00  0.00    +0.000 A 
ATOM     10  C   UNL     1      -1.058  11.244  18.234  0.00  0.00    +0.000 A 
ATOM     11  C   UNL     1      -1.826  12.185  18.912  0.00  0.00    +0.000 A 
ATOM     12  C   UNL     1      -1.798  12.266  20.313  0.00  0.00    +0.000 A 
ATOM     13  C   UNL     1      -2.601  13.217  20.963  0.00  0.00    +0.000 A 
ATOM     14  C   UNL     1      -2.608  13.323  22.352  0.00  0.00    +0.000 A 
ATOM     15  C   UNL     1      -1.809  12.482  23.109  0.00  0.00    +0.000 A 
ATOM     16  C   UNL     1      -1.005  11.533  22.480  0.00  0.00    +0.000 A 
ATOM     17  C   UNL     1      -0.983  11.382  21.072  0.00  0.00    +0.000 A 
ENDBRANCH   5   8
ENDBRANCH   3   5
ENDBRANCH   2   3
BRANCH   2  18
ATOM     18  C   UNL     1       2.701   6.390  18.783  0.00  0.00    +0.000 C 
BRANCH  18  19
ATOM     19  C   UNL     1       2.905   4.875  18.578  0.00  0.00    +0.000 A 
ATOM     20  C   UNL     1       2.318   4.138  17.539  0.00  0.00    +0.000 A 
ATOM     21  C   UNL     1       2.432   2.748  17.473  0.00  0.00    +0.000 A 
ATOM     22  C   UNL     1       3.183   2.065  18.424  0.00  0.00    +0.000 A 
ATOM     23  C   UNL     1       3.815   2.775  19.446  0.00  0.00    +0.000 A 
ATOM     24  C   UNL     1       3.668   4.166  19.527  0.00  0.00    +0.000 A 
BRANCH  23  25
ATOM     25  C   UNL     1       4.607   2.081  20.414  0.00  0.00    +0.000 C 
ATOM     26  N   UNL     1       5.246   1.507  21.199  0.00  0.00    +0.000 NA
ENDBRANCH  23  25
ENDBRANCH  18  19
BRANCH  18  27
ATOM     27  C   UNL     1       4.009   7.119  18.353  0.00  0.00    +0.000 C 
BRANCH  27  28
ATOM     28  C   UNL     1       4.944   6.508  17.322  0.00  0.00    +0.000 A 
ATOM     29  C   UNL     1       6.094   5.781  17.640  0.00  0.00    +0.000 A 
ATOM     30  C   UNL     1       6.833   5.099  16.676  0.00  0.00    +0.000 A 
ATOM     31  C   UNL     1       6.449   5.168  15.349  0.00  0.00    +0.000 A 
ATOM     32 CL   UNL     1       7.327   4.279  14.170  0.00  0.00    +0.000 Cl
ATOM     33  C   UNL     1       5.358   5.949  14.981  0.00  0.00    +0.000 A 
ATOM     34  C   UNL     1       4.609   6.612  15.962  0.00  0.00    +0.000 A 
ENDBRANCH  27  28
ENDBRANCH  18  27
ENDBRANCH   2  18
TORSDOF 8
ENDMDL
MODEL 7
REMARK VINA RESULT:      -8.0      2.602      4.498
REMARK  Name = 
REMARK  9 active torsions:
REMARK  status: ('A' for Active; 'I' for Inactive)
REMARK    1  A    between atoms: C_1  and  C_2
REMARK    2  A    between atoms: C_2  and  N_3
REMARK    3  A    between atoms: C_2  and  C_17
REMARK    4  A    between atoms: N_3  and  S_4
REMARK    5  A    between atoms: S_4  and  C_7
REMARK    6  A    between atoms: C_17  and  C_18
REMARK    7  A    between atoms: C_17  and  C_26
REMARK    8  A    between atoms: C_18  and  C_19
REMARK    9  A    between atoms: C_30  and  C_31
REMARK                            x       y       z     vdW  Elec       q    Type
REMARK                         _______ _______ _______ _____ _____    ______ ____
ROOT
ATOM      1  C   UNL     1      -0.203   8.113  21.679  0.00  0.00    +0.000 C 
ATOM      2  C   UNL     1       1.190   8.429  21.076  0.00  0.00    +0.000 C 
ENDROOT
BRANCH   2   3
ATOM      3  N   UNL     1       0.923   9.301  19.912  0.00  0.00    +0.000 NA
ATOM      4  H   UNL     1       0.786   8.867  19.000  0.00  0.00    +0.000 HD
BRANCH   3   5
ATOM      5  S   UNL     1       0.777  10.970  19.862  0.00  0.00    +0.000 S 
ATOM      6  O   UNL     1       1.329  11.546  21.062  0.00  0.00    +0.000 OA
ATOM      7  O   UNL     1       1.356  11.349  18.590  0.00  0.00    +0.000 OA
BRANCH   5   8
ATOM      8  C   UNL     1      -0.963  11.360  19.824  0.00  0.00    +0.000 A 
ATOM      9  C   UNL     1      -1.441  12.213  20.838  0.00  0.00    +0.000 A 
ATOM     10  C   UNL     1      -2.725  12.741  20.778  0.00  0.00    +0.000 A 
ATOM     11  C   UNL     1      -3.537  12.439  19.690  0.00  0.00    +0.000 A 
ATOM     12  C   UNL     1      -3.087  11.590  18.666  0.00  0.00    +0.000 A 
ATOM     13  C   UNL     1      -3.928  11.323  17.575  0.00  0.00    +0.000 A 
ATOM     14  C   UNL     1      -3.515  10.494  16.534  0.00  0.00    +0.000 A 
ATOM     15  C   UNL     1      -2.256   9.917  16.574  0.00  0.00    +0.000 A 
ATOM     16  C   UNL     1      -1.408  10.170  17.651  0.00  0.00    +0.000 A 
ATOM     17  C   UNL     1      -1.785  11.021  18.719  0.00  0.00    +0.000 A 
ENDBRANCH   5   8
ENDBRANCH   3   5
ENDBRANCH   2   3
BRANCH   2  18
ATOM     18  C   UNL     1       1.909   7.090  20.684  0.00  0.00    +0.000 C 
BRANCH  18  19
ATOM     19  C   UNL     1       2.802   7.092  19.426  0.00  0.00    +0.000 A 
ATOM     20  C   UNL     1       2.506   7.806  18.255  0.00  0.00    +0.000 A 
ATOM     21  C   UNL     1       3.281   7.672  17.102  0.00  0.00    +0.000 A 
ATOM     22  C   UNL     1       4.406   6.854  17.110  0.00  0.00    +0.000 A 
ATOM     23  C   UNL     1       4.751   6.164  18.272  0.00  0.00    +0.000 A 
ATOM     24  C   UNL     1       3.950   6.274  19.416  0.00  0.00    +0.000 A 
BRANCH  23  25
ATOM     25  C   UNL     1       5.919   5.339  18.293  0.00  0.00    +0.000 C 
ATOM     26  N   UNL     1       6.875   4.676  18.307  0.00  0.00    +0.000 NA
ENDBRANCH  23  25
ENDBRANCH  18  19
BRANCH  18  27
ATOM     27  C   UNL     1       1.008   5.820  20.637  0.00  0.00    +0.000 C 
BRANCH  27  28
ATOM     28  C   UNL     1       1.543   4.498  20.112  0.00  0.00    +0.000 A 
ATOM     29  C   UNL     1       1.369   4.048  18.800  0.00  0.00    +0.000 A 
ATOM     30  C   UNL     1       2.013   2.913  18.313  0.00  0.00    +0.000 A 
ATOM     31  C   UNL     1       2.822   2.173  19.157  0.00  0.00    +0.000 A 
ATOM     32 CL   UNL     1       3.660   0.807  18.539  0.00  0.00    +0.000 Cl
ATOM     33  C   UNL     1       2.953   2.542  20.492  0.00  0.00    +0.000 A 
ATOM     34  C   UNL     1       2.320   3.699  20.965  0.00  0.00    +0.000 A 
ENDBRANCH  27  28
ENDBRANCH  18  27
ENDBRANCH   2  18
TORSDOF 8
ENDMDL
MODEL 8
REMARK VINA RESULT:      -8.0      2.046      2.484
REMARK  Name = 
REMARK  9 active torsions:
REMARK  status: ('A' for Active; 'I' for Inactive)
REMARK    1  A    between atoms: C_1  and  C_2
REMARK    2  A    between atoms: C_2  and  N_3
REMARK    3  A    between atoms: C_2  and  C_17
REMARK    4  A    between atoms: N_3  and  S_4
REMARK    5  A    between atoms: S_4  and  C_7
REMARK    6  A    between atoms: C_17  and  C_18
REMARK    7  A    between atoms: C_17  and  C_26
REMARK    8  A    between atoms: C_18  and  C_19
REMARK    9  A    between atoms: C_30  and  C_31
REMARK                            x       y       z     vdW  Elec       q    Type
REMARK                         _______ _______ _______ _____ _____    ______ ____
ROOT
ATOM      1  C   UNL     1       1.218   7.202  20.663  0.00  0.00    +0.000 C 
ATOM      2  C   UNL     1       2.200   7.856  19.657  0.00  0.00    +0.000 C 
ENDROOT
BRANCH   2   3
ATOM      3  N   UNL     1       1.389   8.836  18.902  0.00  0.00    +0.000 NA
ATOM      4  H   UNL     1       1.033   8.568  17.985  0.00  0.00    +0.000 HD
BRANCH   3   5
ATOM      5  S   UNL     1       0.921  10.381  19.352  0.00  0.00    +0.000 S 
ATOM      6  O   UNL     1       0.820  10.464  20.787  0.00  0.00    +0.000 OA
ATOM      7  O   UNL     1       1.857  11.256  18.679  0.00  0.00    +0.000 OA
BRANCH   5   8
ATOM      8  C   UNL     1      -0.703  10.673  18.676  0.00  0.00    +0.000 A 
ATOM      9  C   UNL     1      -1.102   9.845  17.608  0.00  0.00    +0.000 A 
ATOM     10  C   UNL     1      -2.414   9.852  17.153  0.00  0.00    +0.000 A 
ATOM     11  C   UNL     1      -3.349  10.671  17.776  0.00  0.00    +0.000 A 
ATOM     12  C   UNL     1      -2.979  11.507  18.841  0.00  0.00    +0.000 A 
ATOM     13  C   UNL     1      -3.955  12.306  19.458  0.00  0.00    +0.000 A 
ATOM     14  C   UNL     1      -3.631  13.143  20.524  0.00  0.00    +0.000 A 
ATOM     15  C   UNL     1      -2.325  13.195  20.984  0.00  0.00    +0.000 A 
ATOM     16  C   UNL     1      -1.343  12.408  20.383  0.00  0.00    +0.000 A 
ATOM     17  C   UNL     1      -1.637  11.533  19.309  0.00  0.00    +0.000 A 
ENDBRANCH   5   8
ENDBRANCH   3   5
ENDBRANCH   2   3
BRANCH   2  18
ATOM     18  C   UNL     1       2.830   6.749  18.741  0.00  0.00    +0.000 C 
BRANCH  18  19
ATOM     19  C   UNL     1       2.209   5.338  18.785  0.00  0.00    +0.000 A 
ATOM     20  C   UNL     1       1.645   4.694  17.673  0.00  0.00    +0.000 A 
ATOM     21  C   UNL     1       0.982   3.472  17.794  0.00  0.00    +0.000 A 
ATOM     22  C   UNL     1       0.912   2.837  19.029  0.00  0.00    +0.000 A 
ATOM     23  C   UNL     1       1.500   3.431  20.146  0.00  0.00    +0.000 A 
ATOM     24  C   UNL     1       2.134   4.675  20.026  0.00  0.00    +0.000 A 
BRANCH  23  25
ATOM     25  C   UNL     1       1.450   2.772  21.415  0.00  0.00    +0.000 C 
ATOM     26  N   UNL     1       1.420   2.235  22.446  0.00  0.00    +0.000 NA
ENDBRANCH  23  25
ENDBRANCH  18  19
BRANCH  18  27
ATOM     27  C   UNL     1       4.378   6.600  18.818  0.00  0.00    +0.000 C 
BRANCH  27  28
ATOM     28  C   UNL     1       5.175   6.073  17.636  0.00  0.00    +0.000 A 
ATOM     29  C   UNL     1       6.205   5.135  17.740  0.00  0.00    +0.000 A 
ATOM     30  C   UNL     1       6.799   4.555  16.621  0.00  0.00    +0.000 A 
ATOM     31  C   UNL     1       6.392   4.943  15.356  0.00  0.00    +0.000 A 
ATOM     32 CL   UNL     1       7.084   4.186  13.979  0.00  0.00    +0.000 Cl
ATOM     33  C   UNL     1       5.428   5.935  15.211  0.00  0.00    +0.000 A 
ATOM     34  C   UNL     1       4.821   6.494  16.344  0.00  0.00    +0.000 A 
ENDBRANCH  27  28
ENDBRANCH  18  27
ENDBRANCH   2  18
TORSDOF 8
ENDMDL
MODEL 9
REMARK VINA RESULT:      -8.0      4.209      9.309
REMARK  Name = 
REMARK  9 active torsions:
REMARK  status: ('A' for Active; 'I' for Inactive)
REMARK    1  A    between atoms: C_1  and  C_2
REMARK    2  A    between atoms: C_2  and  N_3
REMARK    3  A    between atoms: C_2  and  C_17
REMARK    4  A    between atoms: N_3  and  S_4
REMARK    5  A    between atoms: S_4  and  C_7
REMARK    6  A    between atoms: C_17  and  C_18
REMARK    7  A    between atoms: C_17  and  C_26
REMARK    8  A    between atoms: C_18  and  C_19
REMARK    9  A    between atoms: C_30  and  C_31
REMARK                            x       y       z     vdW  Elec       q    Type
REMARK                         _______ _______ _______ _____ _____    ______ ____
ROOT
ATOM      1  C   UNL     1      -0.629  12.309  22.192  0.00  0.00    +0.000 C 
ATOM      2  C   UNL     1      -0.929  11.383  20.986  0.00  0.00    +0.000 C 
ENDROOT
BRANCH   2   3
ATOM      3  N   UNL     1       0.325  10.636  20.746  0.00  0.00    +0.000 NA
ATOM      4  H   UNL     1       1.082  11.105  20.250  0.00  0.00    +0.000 HD
BRANCH   3   5
ATOM      5  S   UNL     1       0.722   9.075  21.208  0.00  0.00    +0.000 S 
ATOM      6  O   UNL     1       1.688   9.111  22.276  0.00  0.00    +0.000 OA
ATOM      7  O   UNL     1      -0.552   8.433  21.456  0.00  0.00    +0.000 OA
BRANCH   5   8
ATOM      8  C   UNL     1       1.489   8.276  19.810  0.00  0.00    +0.000 A 
ATOM      9  C   UNL     1       1.794   9.093  18.704  0.00  0.00    +0.000 A 
ATOM     10  C   UNL     1       2.574   8.614  17.659  0.00  0.00    +0.000 A 
ATOM     11  C   UNL     1       3.078   7.320  17.720  0.00  0.00    +0.000 A 
ATOM     12  C   UNL     1       2.788   6.483  18.810  0.00  0.00    +0.000 A 
ATOM     13  C   UNL     1       3.331   5.188  18.845  0.00  0.00    +0.000 A 
ATOM     14  C   UNL     1       3.075   4.331  19.913  0.00  0.00    +0.000 A 
ATOM     15  C   UNL     1       2.270   4.756  20.958  0.00  0.00    +0.000 A 
ATOM     16  C   UNL     1       1.723   6.038  20.938  0.00  0.00    +0.000 A 
ATOM     17  C   UNL     1       1.974   6.945  19.880  0.00  0.00    +0.000 A 
ENDBRANCH   5   8
ENDBRANCH   3   5
ENDBRANCH   2   3
BRANCH   2  18
ATOM     18  C   UNL     1      -1.369  12.251  19.754  0.00  0.00    +0.000 C 
BRANCH  18  19
ATOM     19  C   UNL     1      -2.751  11.969  19.130  0.00  0.00    +0.000 A 
ATOM     20  C   UNL     1      -2.938  11.341  17.889  0.00  0.00    +0.000 A 
ATOM     21  C   UNL     1      -4.204  11.225  17.312  0.00  0.00    +0.000 A 
ATOM     22  C   UNL     1      -5.324  11.692  17.990  0.00  0.00    +0.000 A 
ATOM     23  C   UNL     1      -5.176  12.283  19.245  0.00  0.00    +0.000 A 
ATOM     24  C   UNL     1      -3.899  12.429  19.804  0.00  0.00    +0.000 A 
BRANCH  23  25
ATOM     25  C   UNL     1      -6.327  12.746  19.958  0.00  0.00    +0.000 C 
ATOM     26  N   UNL     1      -7.260  13.133  20.535  0.00  0.00    +0.000 NA
ENDBRANCH  23  25
ENDBRANCH  18  19
BRANCH  18  27
ATOM     27  C   UNL     1      -0.331  12.373  18.600  0.00  0.00    +0.000 C 
BRANCH  27  28
ATOM     28  C   UNL     1       0.679  13.509  18.569  0.00  0.00    +0.000 A 
ATOM     29  C   UNL     1       0.385  14.828  18.927  0.00  0.00    +0.000 A 
ATOM     30  C   UNL     1       1.372  15.803  19.044  0.00  0.00    +0.000 A 
ATOM     31  C   UNL     1       2.687  15.479  18.761  0.00  0.00    +0.000 A 
ATOM     32 CL   UNL     1       3.911  16.667  18.962  0.00  0.00    +0.000 Cl
ATOM     33  C   UNL     1       3.007  14.199  18.321  0.00  0.00    +0.000 A 
ATOM     34  C   UNL     1       2.010  13.219  18.229  0.00  0.00    +0.000 A 
ENDBRANCH  27  28
ENDBRANCH  18  27
ENDBRANCH   2  18
TORSDOF 8
ENDMDL
