MODEL 1
REMARK VINA RESULT:      -7.3      0.000      0.000
REMARK  Name = 
REMARK  5 active torsions:
REMARK  status: ('A' for Active; 'I' for Inactive)
REMARK    1  A    between atoms: N_3  and  C_4
REMARK    2  A    between atoms: C_4  and  C_5
REMARK    3  A    between atoms: C_5  and  S_6
REMARK    4  A    between atoms: S_6  and  C_7
REMARK    5  A    between atoms: C_7  and  C_8
REMARK                            x       y       z     vdW  Elec       q    Type
REMARK                         _______ _______ _______ _____ _____    ______ ____
ROOT
ATOM      1  C   UNL     1       6.934   6.022  17.026  0.00  0.00    +0.000 C 
ENDROOT
BRANCH   1   4
ATOM      2  O   UNL     1       4.659   4.347  15.986  0.00  0.00    +0.000 OA
ATOM      3  C   UNL     1       5.651   4.619  15.329  0.00  0.00    +0.000 A 
ATOM      4  N   UNL     1       6.752   5.394  15.733  0.00  0.00    +0.000 N 
ATOM      5  N   UNL     1       7.672   5.508  14.706  0.00  0.00    +0.000 NA
ATOM      6  C   UNL     1       7.146   4.810  13.747  0.00  0.00    +0.000 A 
ATOM      7  C   UNL     1       7.699   4.563  12.398  0.00  0.00    +0.000 A 
ATOM      8  C   UNL     1       6.976   3.812  11.551  0.00  0.00    +0.000 A 
ATOM      9  C   UNL     1       5.692   3.256  11.940  0.00  0.00    +0.000 A 
ATOM     10  C   UNL     1       5.209   3.486  13.171  0.00  0.00    +0.000 A 
ATOM     11  N   UNL     1       5.942   4.250  14.037  0.00  0.00    +0.000 N 
ENDBRANCH   1   4
BRANCH   1  12
ATOM     12  C   UNL     1       7.071   4.994  18.147  0.00  0.00    +0.000 C 
BRANCH  12  13
ATOM     13  S   UNL     1       5.717   5.185  19.364  0.00  0.00    +0.000 S 
BRANCH  13  14
ATOM     14  C   UNL     1       4.809   3.652  19.004  0.00  0.00    +0.000 C 
BRANCH  14  15
ATOM     15  C   UNL     1       3.523   3.530  19.790  0.00  0.00    +0.000 A 
ATOM     16  C   UNL     1       3.471   2.612  20.857  0.00  0.00    +0.000 A 
ATOM     17  C   UNL     1       2.291   2.403  21.576  0.00  0.00    +0.000 A 
ATOM     18  C   UNL     1       1.141   3.113  21.248  0.00  0.00    +0.000 A 
ATOM     19  C   UNL     1       1.181   4.056  20.223  0.00  0.00    +0.000 A 
ATOM     20  C   UNL     1       2.364   4.274  19.505  0.00  0.00    +0.000 A 
ATOM     21 BR   UNL     1       2.315   5.608  18.152  0.00  0.00    +0.000 Br
ENDBRANCH  14  15
ENDBRANCH  13  14
ENDBRANCH  12  13
ENDBRANCH   1  12
TORSDOF 5
ENDMDL
MODEL 2
REMARK VINA RESULT:      -7.2      1.647      2.028
REMARK  Name = 
REMARK  5 active torsions:
REMARK  status: ('A' for Active; 'I' for Inactive)
REMARK    1  A    between atoms: N_3  and  C_4
REMARK    2  A    between atoms: C_4  and  C_5
REMARK    3  A    between atoms: C_5  and  S_6
REMARK    4  A    between atoms: S_6  and  C_7
REMARK    5  A    between atoms: C_7  and  C_8
REMARK                            x       y       z     vdW  Elec       q    Type
REMARK                         _______ _______ _______ _____ _____    ______ ____
ROOT
ATOM      1  C   UNL     1       7.138   5.201  17.520  0.00  0.00    +0.000 C 
ENDROOT
BRANCH   1   4
ATOM      2  O   UNL     1       5.289   3.242  16.175  0.00  0.00    +0.000 OA
ATOM      3  C   UNL     1       6.097   3.930  15.571  0.00  0.00    +0.000 A 
ATOM      4  N   UNL     1       6.989   4.868  16.117  0.00  0.00    +0.000 N 
ATOM      5  N   UNL     1       7.730   5.476  15.119  0.00  0.00    +0.000 NA
ATOM      6  C   UNL     1       7.307   4.903  14.035  0.00  0.00    +0.000 A 
ATOM      7  C   UNL     1       7.757   5.146  12.647  0.00  0.00    +0.000 A 
ATOM      8  C   UNL     1       7.172   4.441  11.664  0.00  0.00    +0.000 A 
ATOM      9  C   UNL     1       6.130   3.470  11.948  0.00  0.00    +0.000 A 
ATOM     10  C   UNL     1       5.739   3.258  13.215  0.00  0.00    +0.000 A 
ATOM     11  N   UNL     1       6.333   3.972  14.218  0.00  0.00    +0.000 N 
ENDBRANCH   1   4
BRANCH   1  12
ATOM     12  C   UNL     1       6.543   6.569  17.850  0.00  0.00    +0.000 C 
BRANCH  12  13
ATOM     13  S   UNL     1       4.715   6.482  17.895  0.00  0.00    +0.000 S 
BRANCH  13  14
ATOM     14  C   UNL     1       4.534   5.183  19.153  0.00  0.00    +0.000 C 
BRANCH  14  15
ATOM     15  C   UNL     1       3.353   4.275  18.898  0.00  0.00    +0.000 A 
ATOM     16  C   UNL     1       2.275   4.771  18.138  0.00  0.00    +0.000 A 
ATOM     17  C   UNL     1       1.126   4.006  17.926  0.00  0.00    +0.000 A 
ATOM     18  C   UNL     1       1.033   2.726  18.463  0.00  0.00    +0.000 A 
ATOM     19  C   UNL     1       2.103   2.201  19.184  0.00  0.00    +0.000 A 
ATOM     20  C   UNL     1       3.261   2.962  19.392  0.00  0.00    +0.000 A 
ATOM     21 BR   UNL     1       4.672   2.134  20.358  0.00  0.00    +0.000 Br
ENDBRANCH  14  15
ENDBRANCH  13  14
ENDBRANCH  12  13
ENDBRANCH   1  12
TORSDOF 5
ENDMDL
MODEL 3
REMARK VINA RESULT:      -7.2      3.148      4.642
REMARK  Name = 
REMARK  5 active torsions:
REMARK  status: ('A' for Active; 'I' for Inactive)
REMARK    1  A    between atoms: N_3  and  C_4
REMARK    2  A    between atoms: C_4  and  C_5
REMARK    3  A    between atoms: C_5  and  S_6
REMARK    4  A    between atoms: S_6  and  C_7
REMARK    5  A    between atoms: C_7  and  C_8
REMARK                            x       y       z     vdW  Elec       q    Type
REMARK                         _______ _______ _______ _____ _____    ______ ____
ROOT
ATOM      1  C   UNL     1       2.918   2.976  19.054  0.00  0.00    +0.000 C 
ENDROOT
BRANCH   1   4
ATOM      2  O   UNL     1       5.709   3.957  19.614  0.00  0.00    +0.000 OA
ATOM      3  C   UNL     1       5.216   3.926  18.497  0.00  0.00    +0.000 A 
ATOM      4  N   UNL     1       3.930   3.481  18.148  0.00  0.00    +0.000 N 
ATOM      5  N   UNL     1       3.737   3.569  16.781  0.00  0.00    +0.000 NA
ATOM      6  C   UNL     1       4.855   4.065  16.348  0.00  0.00    +0.000 A 
ATOM      7  C   UNL     1       5.220   4.392  14.952  0.00  0.00    +0.000 A 
ATOM      8  C   UNL     1       6.445   4.895  14.724  0.00  0.00    +0.000 A 
ATOM      9  C   UNL     1       7.387   5.112  15.809  0.00  0.00    +0.000 A 
ATOM     10  C   UNL     1       7.035   4.815  17.070  0.00  0.00    +0.000 A 
ATOM     11  N   UNL     1       5.789   4.305  17.306  0.00  0.00    +0.000 N 
ENDBRANCH   1   4
BRANCH   1  12
ATOM     12  C   UNL     1       1.585   3.702  18.885  0.00  0.00    +0.000 C 
BRANCH  12  13
ATOM     13  S   UNL     1       1.125   4.572  20.429  0.00  0.00    +0.000 S 
BRANCH  13  14
ATOM     14  C   UNL     1       2.504   5.754  20.497  0.00  0.00    +0.000 C 
BRANCH  14  15
ATOM     15  C   UNL     1       2.307   6.942  19.583  0.00  0.00    +0.000 A 
ATOM     16  C   UNL     1       2.898   6.911  18.305  0.00  0.00    +0.000 A 
ATOM     17  C   UNL     1       2.812   8.006  17.440  0.00  0.00    +0.000 A 
ATOM     18  C   UNL     1       2.127   9.151  17.834  0.00  0.00    +0.000 A 
ATOM     19  C   UNL     1       1.501   9.187  19.078  0.00  0.00    +0.000 A 
ATOM     20  C   UNL     1       1.579   8.089  19.944  0.00  0.00    +0.000 A 
ATOM     21 BR   UNL     1       0.658   8.234  21.600  0.00  0.00    +0.000 Br
ENDBRANCH  14  15
ENDBRANCH  13  14
ENDBRANCH  12  13
ENDBRANCH   1  12
TORSDOF 5
ENDMDL
MODEL 4
REMARK VINA RESULT:      -7.2      3.321      4.946
REMARK  Name = 
REMARK  5 active torsions:
REMARK  status: ('A' for Active; 'I' for Inactive)
REMARK    1  A    between atoms: N_3  and  C_4
REMARK    2  A    between atoms: C_4  and  C_5
REMARK    3  A    between atoms: C_5  and  S_6
REMARK    4  A    between atoms: S_6  and  C_7
REMARK    5  A    between atoms: C_7  and  C_8
REMARK                            x       y       z     vdW  Elec       q    Type
REMARK                         _______ _______ _______ _____ _____    ______ ____
ROOT
ATOM      1  C   UNL     1       3.048   2.565  20.040  0.00  0.00    +0.000 C 
ENDROOT
BRANCH   1   4
ATOM      2  O   UNL     1       2.364   3.145  17.165  0.00  0.00    +0.000 OA
ATOM      3  C   UNL     1       3.420   3.468  17.686  0.00  0.00    +0.000 A 
ATOM      4  N   UNL     1       3.817   3.242  19.015  0.00  0.00    +0.000 N 
ATOM      5  N   UNL     1       5.071   3.778  19.248  0.00  0.00    +0.000 NA
ATOM      6  C   UNL     1       5.406   4.277  18.098  0.00  0.00    +0.000 A 
ATOM      7  C   UNL     1       6.664   4.971  17.745  0.00  0.00    +0.000 A 
ATOM      8  C   UNL     1       6.801   5.421  16.486  0.00  0.00    +0.000 A 
ATOM      9  C   UNL     1       5.752   5.234  15.498  0.00  0.00    +0.000 A 
ATOM     10  C   UNL     1       4.620   4.596  15.836  0.00  0.00    +0.000 A 
ATOM     11  N   UNL     1       4.478   4.136  17.116  0.00  0.00    +0.000 N 
ENDBRANCH   1   4
BRANCH   1  12
ATOM     12  C   UNL     1       2.464   3.542  21.057  0.00  0.00    +0.000 C 
BRANCH  12  13
ATOM     13  S   UNL     1       1.219   4.627  20.267  0.00  0.00    +0.000 S 
BRANCH  13  14
ATOM     14  C   UNL     1       1.831   6.229  20.867  0.00  0.00    +0.000 C 
BRANCH  14  15
ATOM     15  C   UNL     1       1.919   7.272  19.776  0.00  0.00    +0.000 A 
ATOM     16  C   UNL     1       2.705   6.993  18.641  0.00  0.00    +0.000 A 
ATOM     17  C   UNL     1       2.883   7.943  17.631  0.00  0.00    +0.000 A 
ATOM     18  C   UNL     1       2.272   9.188  17.733  0.00  0.00    +0.000 A 
ATOM     19  C   UNL     1       1.458   9.471  18.827  0.00  0.00    +0.000 A 
ATOM     20  C   UNL     1       1.271   8.518  19.838  0.00  0.00    +0.000 A 
ATOM     21 BR   UNL     1       0.112   8.996  21.265  0.00  0.00    +0.000 Br
ENDBRANCH  14  15
ENDBRANCH  13  14
ENDBRANCH  12  13
ENDBRANCH   1  12
TORSDOF 5
ENDMDL
MODEL 5
REMARK VINA RESULT:      -7.2      1.284      1.378
REMARK  Name = 
REMARK  5 active torsions:
REMARK  status: ('A' for Active; 'I' for Inactive)
REMARK    1  A    between atoms: N_3  and  C_4
REMARK    2  A    between atoms: C_4  and  C_5
REMARK    3  A    between atoms: C_5  and  S_6
REMARK    4  A    between atoms: S_6  and  C_7
REMARK    5  A    between atoms: C_7  and  C_8
REMARK                            x       y       z     vdW  Elec       q    Type
REMARK                         _______ _______ _______ _____ _____    ______ ____
ROOT
ATOM      1  C   UNL     1       6.963   5.101  17.537  0.00  0.00    +0.000 C 
ENDROOT
BRANCH   1   4
ATOM      2  O   UNL     1       5.176   3.176  16.064  0.00  0.00    +0.000 OA
ATOM      3  C   UNL     1       6.008   3.880  15.513  0.00  0.00    +0.000 A 
ATOM      4  N   UNL     1       6.875   4.804  16.121  0.00  0.00    +0.000 N 
ATOM      5  N   UNL     1       7.657   5.438  15.172  0.00  0.00    +0.000 NA
ATOM      6  C   UNL     1       7.281   4.893  14.056  0.00  0.00    +0.000 A 
ATOM      7  C   UNL     1       7.790   5.173  12.695  0.00  0.00    +0.000 A 
ATOM      8  C   UNL     1       7.248   4.493  11.670  0.00  0.00    +0.000 A 
ATOM      9  C   UNL     1       6.197   3.514  11.884  0.00  0.00    +0.000 A 
ATOM     10  C   UNL     1       5.753   3.269  13.127  0.00  0.00    +0.000 A 
ATOM     11  N   UNL     1       6.302   3.958  14.173  0.00  0.00    +0.000 N 
ENDBRANCH   1   4
BRANCH   1  12
ATOM     12  C   UNL     1       6.317   6.441  17.883  0.00  0.00    +0.000 C 
BRANCH  12  13
ATOM     13  S   UNL     1       4.496   6.274  17.969  0.00  0.00    +0.000 S 
BRANCH  13  14
ATOM     14  C   UNL     1       4.379   5.355  19.532  0.00  0.00    +0.000 C 
BRANCH  14  15
ATOM     15  C   UNL     1       3.209   4.398  19.568  0.00  0.00    +0.000 A 
ATOM     16  C   UNL     1       3.407   3.077  19.119  0.00  0.00    +0.000 A 
ATOM     17  C   UNL     1       2.349   2.166  19.062  0.00  0.00    +0.000 A 
ATOM     18  C   UNL     1       1.074   2.554  19.459  0.00  0.00    +0.000 A 
ATOM     19  C   UNL     1       0.865   3.843  19.945  0.00  0.00    +0.000 A 
ATOM     20  C   UNL     1       1.924   4.758  20.011  0.00  0.00    +0.000 A 
ATOM     21 BR   UNL     1       1.533   6.476  20.722  0.00  0.00    +0.000 Br
ENDBRANCH  14  15
ENDBRANCH  13  14
ENDBRANCH  12  13
ENDBRANCH   1  12
TORSDOF 5
ENDMDL
MODEL 6
REMARK VINA RESULT:      -7.1      3.199      4.700
REMARK  Name = 
REMARK  5 active torsions:
REMARK  status: ('A' for Active; 'I' for Inactive)
REMARK    1  A    between atoms: N_3  and  C_4
REMARK    2  A    between atoms: C_4  and  C_5
REMARK    3  A    between atoms: C_5  and  S_6
REMARK    4  A    between atoms: S_6  and  C_7
REMARK    5  A    between atoms: C_7  and  C_8
REMARK                            x       y       z     vdW  Elec       q    Type
REMARK                         _______ _______ _______ _____ _____    ______ ____
ROOT
ATOM      1  C   UNL     1       2.302   2.914  18.551  0.00  0.00    +0.000 C 
ENDROOT
BRANCH   1   4
ATOM      2  O   UNL     1       5.022   3.466  19.719  0.00  0.00    +0.000 OA
ATOM      3  C   UNL     1       4.747   3.633  18.541  0.00  0.00    +0.000 A 
ATOM      4  N   UNL     1       3.511   3.397  17.915  0.00  0.00    +0.000 N 
ATOM      5  N   UNL     1       3.589   3.673  16.562  0.00  0.00    +0.000 NA
ATOM      6  C   UNL     1       4.811   4.076  16.404  0.00  0.00    +0.000 A 
ATOM      7  C   UNL     1       5.463   4.523  15.153  0.00  0.00    +0.000 A 
ATOM      8  C   UNL     1       6.753   4.894  15.215  0.00  0.00    +0.000 A 
ATOM      9  C   UNL     1       7.491   4.858  16.465  0.00  0.00    +0.000 A 
ATOM     10  C   UNL     1       6.881   4.456  17.591  0.00  0.00    +0.000 A 
ATOM     11  N   UNL     1       5.568   4.080  17.533  0.00  0.00    +0.000 N 
ENDBRANCH   1   4
BRANCH   1  12
ATOM     12  C   UNL     1       1.296   4.037  18.795  0.00  0.00    +0.000 C 
BRANCH  12  13
ATOM     13  S   UNL     1       1.354   4.586  20.541  0.00  0.00    +0.000 S 
BRANCH  13  14
ATOM     14  C   UNL     1       2.587   5.910  20.370  0.00  0.00    +0.000 C 
BRANCH  14  15
ATOM     15  C   UNL     1       1.968   7.261  20.095  0.00  0.00    +0.000 A 
ATOM     16  C   UNL     1       1.125   7.826  21.073  0.00  0.00    +0.000 A 
ATOM     17  C   UNL     1       0.468   9.039  20.850  0.00  0.00    +0.000 A 
ATOM     18  C   UNL     1       0.646   9.715  19.648  0.00  0.00    +0.000 A 
ATOM     19  C   UNL     1       1.507   9.195  18.683  0.00  0.00    +0.000 A 
ATOM     20  C   UNL     1       2.174   7.983  18.907  0.00  0.00    +0.000 A 
ATOM     21 BR   UNL     1       3.350   7.386  17.540  0.00  0.00    +0.000 Br
ENDBRANCH  14  15
ENDBRANCH  13  14
ENDBRANCH  12  13
ENDBRANCH   1  12
TORSDOF 5
ENDMDL
MODEL 7
REMARK VINA RESULT:      -7.1      3.727      5.235
REMARK  Name = 
REMARK  5 active torsions:
REMARK  status: ('A' for Active; 'I' for Inactive)
REMARK    1  A    between atoms: N_3  and  C_4
REMARK    2  A    between atoms: C_4  and  C_5
REMARK    3  A    between atoms: C_5  and  S_6
REMARK    4  A    between atoms: S_6  and  C_7
REMARK    5  A    between atoms: C_7  and  C_8
REMARK                            x       y       z     vdW  Elec       q    Type
REMARK                         _______ _______ _______ _____ _____    ______ ____
ROOT
ATOM      1  C   UNL     1       2.944   3.678  17.891  0.00  0.00    +0.000 C 
ENDROOT
BRANCH   1   4
ATOM      2  O   UNL     1       5.302   3.413  19.746  0.00  0.00    +0.000 OA
ATOM      3  C   UNL     1       5.209   4.281  18.892  0.00  0.00    +0.000 A 
ATOM      4  N   UNL     1       4.152   4.473  17.986  0.00  0.00    +0.000 N 
ATOM      5  N   UNL     1       4.415   5.542  17.149  0.00  0.00    +0.000 NA
ATOM      6  C   UNL     1       5.567   5.974  17.560  0.00  0.00    +0.000 A 
ATOM      7  C   UNL     1       6.343   7.120  17.038  0.00  0.00    +0.000 A 
ATOM      8  C   UNL     1       7.528   7.389  17.611  0.00  0.00    +0.000 A 
ATOM      9  C   UNL     1       8.038   6.585  18.708  0.00  0.00    +0.000 A 
ATOM     10  C   UNL     1       7.316   5.553  19.173  0.00  0.00    +0.000 A 
ATOM     11  N   UNL     1       6.109   5.277  18.593  0.00  0.00    +0.000 N 
ENDBRANCH   1   4
BRANCH   1  12
ATOM     12  C   UNL     1       1.693   4.500  18.193  0.00  0.00    +0.000 C 
BRANCH  12  13
ATOM     13  S   UNL     1       1.583   4.872  19.983  0.00  0.00    +0.000 S 
BRANCH  13  14
ATOM     14  C   UNL     1       2.503   6.439  19.993  0.00  0.00    +0.000 C 
BRANCH  14  15
ATOM     15  C   UNL     1       1.627   7.636  20.285  0.00  0.00    +0.000 A 
ATOM     16  C   UNL     1       0.977   7.705  21.533  0.00  0.00    +0.000 A 
ATOM     17  C   UNL     1       0.100   8.750  21.836  0.00  0.00    +0.000 A 
ATOM     18  C   UNL     1      -0.140   9.750  20.901  0.00  0.00    +0.000 A 
ATOM     19  C   UNL     1       0.523   9.723  19.675  0.00  0.00    +0.000 A 
ATOM     20  C   UNL     1       1.409   8.681  19.371  0.00  0.00    +0.000 A 
ATOM     21 BR   UNL     1       2.285   8.763  17.687  0.00  0.00    +0.000 Br
ENDBRANCH  14  15
ENDBRANCH  13  14
ENDBRANCH  12  13
ENDBRANCH   1  12
TORSDOF 5
ENDMDL
MODEL 8
REMARK VINA RESULT:      -7.0      1.776      2.341
REMARK  Name = 
REMARK  5 active torsions:
REMARK  status: ('A' for Active; 'I' for Inactive)
REMARK    1  A    between atoms: N_3  and  C_4
REMARK    2  A    between atoms: C_4  and  C_5
REMARK    3  A    between atoms: C_5  and  S_6
REMARK    4  A    between atoms: S_6  and  C_7
REMARK    5  A    between atoms: C_7  and  C_8
REMARK                            x       y       z     vdW  Elec       q    Type
REMARK                         _______ _______ _______ _____ _____    ______ ____
ROOT
ATOM      1  C   UNL     1       5.705   4.764  17.566  0.00  0.00    +0.000 C 
ENDROOT
BRANCH   1   4
ATOM      2  O   UNL     1       7.775   6.256  15.968  0.00  0.00    +0.000 OA
ATOM      3  C   UNL     1       7.054   5.392  15.496  0.00  0.00    +0.000 A 
ATOM      4  N   UNL     1       6.070   4.646  16.168  0.00  0.00    +0.000 N 
ATOM      5  N   UNL     1       5.476   3.737  15.312  0.00  0.00    +0.000 NA
ATOM      6  C   UNL     1       6.069   3.955  14.179  0.00  0.00    +0.000 A 
ATOM      7  C   UNL     1       5.828   3.278  12.886  0.00  0.00    +0.000 A 
ATOM      8  C   UNL     1       6.569   3.657  11.831  0.00  0.00    +0.000 A 
ATOM      9  C   UNL     1       7.576   4.698  11.948  0.00  0.00    +0.000 A 
ATOM     10  C   UNL     1       7.775   5.305  13.129  0.00  0.00    +0.000 A 
ATOM     11  N   UNL     1       7.023   4.923  14.204  0.00  0.00    +0.000 N 
ENDBRANCH   1   4
BRANCH   1  12
ATOM     12  C   UNL     1       5.408   6.209  17.961  0.00  0.00    +0.000 C 
BRANCH  12  13
ATOM     13  S   UNL     1       3.632   6.588  17.727  0.00  0.00    +0.000 S 
BRANCH  13  14
ATOM     14  C   UNL     1       2.995   4.887  17.666  0.00  0.00    +0.000 C 
BRANCH  14  15
ATOM     15  C   UNL     1       2.653   4.336  19.031  0.00  0.00    +0.000 A 
ATOM     16  C   UNL     1       2.137   5.217  20.002  0.00  0.00    +0.000 A 
ATOM     17  C   UNL     1       1.866   4.784  21.303  0.00  0.00    +0.000 A 
ATOM     18  C   UNL     1       2.099   3.460  21.658  0.00  0.00    +0.000 A 
ATOM     19  C   UNL     1       2.571   2.561  20.702  0.00  0.00    +0.000 A 
ATOM     20  C   UNL     1       2.836   2.990  19.395  0.00  0.00    +0.000 A 
ATOM     21 BR   UNL     1       3.441   1.674  18.165  0.00  0.00    +0.000 Br
ENDBRANCH  14  15
ENDBRANCH  13  14
ENDBRANCH  12  13
ENDBRANCH   1  12
TORSDOF 5
ENDMDL
MODEL 9
REMARK VINA RESULT:      -6.9      3.583      4.963
REMARK  Name = 
REMARK  5 active torsions:
REMARK  status: ('A' for Active; 'I' for Inactive)
REMARK    1  A    between atoms: N_3  and  C_4
REMARK    2  A    between atoms: C_4  and  C_5
REMARK    3  A    between atoms: C_5  and  S_6
REMARK    4  A    between atoms: S_6  and  C_7
REMARK    5  A    between atoms: C_7  and  C_8
REMARK                            x       y       z     vdW  Elec       q    Type
REMARK                         _______ _______ _______ _____ _____    ______ ____
ROOT
ATOM      1  C   UNL     1       3.152   3.061  20.267  0.00  0.00    +0.000 C 
ENDROOT
BRANCH   1   4
ATOM      2  O   UNL     1       2.618   3.198  17.306  0.00  0.00    +0.000 OA
ATOM      3  C   UNL     1       3.681   3.516  17.815  0.00  0.00    +0.000 A 
ATOM      4  N   UNL     1       4.011   3.488  19.181  0.00  0.00    +0.000 N 
ATOM      5  N   UNL     1       5.300   3.949  19.381  0.00  0.00    +0.000 NA
ATOM      6  C   UNL     1       5.717   4.216  18.182  0.00  0.00    +0.000 A 
ATOM      7  C   UNL     1       7.043   4.734  17.779  0.00  0.00    +0.000 A 
ATOM      8  C   UNL     1       7.261   4.949  16.471  0.00  0.00    +0.000 A 
ATOM      9  C   UNL     1       6.233   4.685  15.479  0.00  0.00    +0.000 A 
ATOM     10  C   UNL     1       5.039   4.210  15.864  0.00  0.00    +0.000 A 
ATOM     11  N   UNL     1       4.813   3.988  17.194  0.00  0.00    +0.000 N 
ENDBRANCH   1   4
BRANCH   1  12
ATOM     12  C   UNL     1       2.671   4.238  21.113  0.00  0.00    +0.000 C 
BRANCH  12  13
ATOM     13  S   UNL     1       1.438   5.231  20.194  0.00  0.00    +0.000 S 
BRANCH  13  14
ATOM     14  C   UNL     1       2.365   6.791  20.092  0.00  0.00    +0.000 C 
BRANCH  14  15
ATOM     15  C   UNL     1       1.522   8.001  20.424  0.00  0.00    +0.000 A 
ATOM     16  C   UNL     1       0.977   8.107  21.719  0.00  0.00    +0.000 A 
ATOM     17  C   UNL     1       0.133   9.165  22.066  0.00  0.00    +0.000 A 
ATOM     18  C   UNL     1      -0.178  10.143  21.128  0.00  0.00    +0.000 A 
ATOM     19  C   UNL     1       0.382  10.080  19.854  0.00  0.00    +0.000 A 
ATOM     20  C   UNL     1       1.235   9.025  19.504  0.00  0.00    +0.000 A 
ATOM     21 BR   UNL     1       1.970   9.058  17.752  0.00  0.00    +0.000 Br
ENDBRANCH  14  15
ENDBRANCH  13  14
ENDBRANCH  12  13
ENDBRANCH   1  12
TORSDOF 5
ENDMDL
