MODEL 1
REMARK VINA RESULT:      -8.0      0.000      0.000
REMARK  Name = 
REMARK  12 active torsions:
REMARK  status: ('A' for Active; 'I' for Inactive)
REMARK    1  A    between atoms: C_1  and  C_2
REMARK    2  A    between atoms: C_2  and  O_3
REMARK    3  A    between atoms: O_3  and  C_4
REMARK    4  A    between atoms: C_4  and  C_6
REMARK    5  A    between atoms: C_6  and  C_7
REMARK    6  A    between atoms: C_6  and  O_8
REMARK    7  A    between atoms: O_8  and  C_9
REMARK    8  A    between atoms: C_9  and  C_11
REMARK    9  A    between atoms: C_13  and  O_14
REMARK   10  A    between atoms: O_14  and  C_15
REMARK   11  A    between atoms: C_18  and  C_19
REMARK   12  A    between atoms: C_28  and  N_29
REMARK                            x       y       z     vdW  Elec       q    Type
REMARK                         _______ _______ _______ _____ _____    ______ ____
ROOT
ATOM      1  C   UNL     1       3.702   4.746  19.068  0.00  0.00    +0.000 A 
ATOM      2  C   UNL     1       3.474   6.028  19.603  0.00  0.00    +0.000 A 
ATOM      3  C   UNL     1       2.234   6.351  20.162  0.00  0.00    +0.000 A 
ATOM      4  C   UNL     1       1.220   5.386  20.212  0.00  0.00    +0.000 A 
ATOM      5  C   UNL     1       1.420   4.123  19.654  0.00  0.00    +0.000 A 
ATOM      6  C   UNL     1       2.669   3.812  19.099  0.00  0.00    +0.000 A 
ENDROOT
BRANCH   6   7
ATOM      7  N   UNL     1       2.889   2.444  18.676  0.00  0.00    +0.000 N 
ATOM      8  O   UNL     1       2.470   2.138  17.551  0.00  0.00    +0.000 OA
ATOM      9  O   UNL     1       3.564   1.725  19.425  0.00  0.00    +0.000 OA
ENDBRANCH   6   7
BRANCH   1  10
ATOM     10  C   UNL     1       5.004   4.432  18.444  0.00  0.00    +0.000 C 
ATOM     11  O   UNL     1       5.933   3.935  19.043  0.00  0.00    +0.000 OA
BRANCH  10  12
ATOM     12  O   UNL     1       4.969   4.813  17.147  0.00  0.00    +0.000 OA
BRANCH  12  13
ATOM     13  C   UNL     1       5.640   6.040  16.822  0.00  0.00    +0.000 C 
ATOM     14  C   UNL     1       4.809   6.735  15.757  0.00  0.00    +0.000 C 
BRANCH  13  15
ATOM     15  C   UNL     1       7.061   5.753  16.339  0.00  0.00    +0.000 C 
ATOM     16  O   UNL     1       7.452   4.678  15.900  0.00  0.00    +0.000 OA
BRANCH  15  17
ATOM     17  O   UNL     1       7.851   6.838  16.583  0.00  0.00    +0.000 OA
BRANCH  17  19
ATOM     18  C   UNL     1       8.014   8.858  17.844  0.00  0.00    +0.000 C 
ATOM     19  C   UNL     1       7.800   7.356  17.919  0.00  0.00    +0.000 C 
ENDBRANCH  17  19
ENDBRANCH  15  17
ENDBRANCH  13  15
ENDBRANCH  12  13
ENDBRANCH  10  12
ENDBRANCH   1  10
BRANCH   3  20
ATOM     20  O   UNL     1       2.128   7.626  20.682  0.00  0.00    +0.000 OA
BRANCH  20  21
ATOM     21  C   UNL     1       1.322   8.552  20.054  0.00  0.00    +0.000 A 
ATOM     22  C   UNL     1       1.473   8.866  18.699  0.00  0.00    +0.000 A 
ATOM     23  C   UNL     1       0.588   9.742  18.074  0.00  0.00    +0.000 A 
ATOM     24  C   UNL     1      -0.427  10.373  18.805  0.00  0.00    +0.000 A 
ATOM     25  C   UNL     1      -0.513  10.136  20.186  0.00  0.00    +0.000 A 
ATOM     26  C   UNL     1       0.359   9.235  20.808  0.00  0.00    +0.000 A 
ATOM     27 CL   UNL     1       0.210   8.993  22.511  0.00  0.00    +0.000 Cl
BRANCH  24  28
ATOM     28  C   UNL     1      -1.405  11.293  18.115  0.00  0.00    +0.000 C 
ATOM     29  F   UNL     1      -1.831  10.816  16.911  0.00  0.00    +0.000 F 
ATOM     30  F   UNL     1      -2.530  11.496  18.853  0.00  0.00    +0.000 F 
ATOM     31  F   UNL     1      -0.884  12.523  17.869  0.00  0.00    +0.000 F 
ENDBRANCH  24  28
ENDBRANCH  20  21
ENDBRANCH   3  20
TORSDOF 10
ENDMDL
MODEL 2
REMARK VINA RESULT:      -8.0      1.180      2.036
REMARK  Name = 
REMARK  12 active torsions:
REMARK  status: ('A' for Active; 'I' for Inactive)
REMARK    1  A    between atoms: C_1  and  C_2
REMARK    2  A    between atoms: C_2  and  O_3
REMARK    3  A    between atoms: O_3  and  C_4
REMARK    4  A    between atoms: C_4  and  C_6
REMARK    5  A    between atoms: C_6  and  C_7
REMARK    6  A    between atoms: C_6  and  O_8
REMARK    7  A    between atoms: O_8  and  C_9
REMARK    8  A    between atoms: C_9  and  C_11
REMARK    9  A    between atoms: C_13  and  O_14
REMARK   10  A    between atoms: O_14  and  C_15
REMARK   11  A    between atoms: C_18  and  C_19
REMARK   12  A    between atoms: C_28  and  N_29
REMARK                            x       y       z     vdW  Elec       q    Type
REMARK                         _______ _______ _______ _____ _____    ______ ____
ROOT
ATOM      1  C   UNL     1       3.868   4.707  18.931  0.00  0.00    +0.000 A 
ATOM      2  C   UNL     1       3.643   6.000  19.439  0.00  0.00    +0.000 A 
ATOM      3  C   UNL     1       2.405   6.337  19.995  0.00  0.00    +0.000 A 
ATOM      4  C   UNL     1       1.390   5.374  20.069  0.00  0.00    +0.000 A 
ATOM      5  C   UNL     1       1.587   4.099  19.538  0.00  0.00    +0.000 A 
ATOM      6  C   UNL     1       2.833   3.775  18.986  0.00  0.00    +0.000 A 
ENDROOT
BRANCH   6   7
ATOM      7  N   UNL     1       3.050   2.398  18.592  0.00  0.00    +0.000 N 
ATOM      8  O   UNL     1       3.653   1.679  19.400  0.00  0.00    +0.000 OA
ATOM      9  O   UNL     1       2.529   2.027  17.532  0.00  0.00    +0.000 OA
ENDBRANCH   6   7
BRANCH   1  10
ATOM     10  C   UNL     1       5.167   4.378  18.309  0.00  0.00    +0.000 C 
ATOM     11  O   UNL     1       6.141   4.025  18.938  0.00  0.00    +0.000 OA
BRANCH  10  12
ATOM     12  O   UNL     1       5.070   4.562  16.974  0.00  0.00    +0.000 OA
BRANCH  12  13
ATOM     13  C   UNL     1       5.928   5.561  16.402  0.00  0.00    +0.000 C 
ATOM     14  C   UNL     1       5.037   6.689  15.910  0.00  0.00    +0.000 C 
BRANCH  13  15
ATOM     15  C   UNL     1       6.761   4.958  15.271  0.00  0.00    +0.000 C 
ATOM     16  O   UNL     1       7.777   5.456  14.802  0.00  0.00    +0.000 OA
BRANCH  15  17
ATOM     17  O   UNL     1       6.133   3.847  14.788  0.00  0.00    +0.000 OA
BRANCH  17  19
ATOM     18  C   UNL     1       6.238   3.365  12.453  0.00  0.00    +0.000 C 
ATOM     19  C   UNL     1       5.423   4.021  13.554  0.00  0.00    +0.000 C 
ENDBRANCH  17  19
ENDBRANCH  15  17
ENDBRANCH  13  15
ENDBRANCH  12  13
ENDBRANCH  10  12
ENDBRANCH   1  10
BRANCH   3  20
ATOM     20  O   UNL     1       2.303   7.622  20.487  0.00  0.00    +0.000 OA
BRANCH  20  21
ATOM     21  C   UNL     1       1.441   8.515  19.885  0.00  0.00    +0.000 A 
ATOM     22  C   UNL     1       1.548   8.848  18.531  0.00  0.00    +0.000 A 
ATOM     23  C   UNL     1       0.611   9.688  17.933  0.00  0.00    +0.000 A 
ATOM     24  C   UNL     1      -0.417  10.263  18.690  0.00  0.00    +0.000 A 
ATOM     25  C   UNL     1      -0.464  10.010  20.071  0.00  0.00    +0.000 A 
ATOM     26  C   UNL     1       0.463   9.145  20.666  0.00  0.00    +0.000 A 
ATOM     27 CL   UNL     1       0.361   8.880  22.369  0.00  0.00    +0.000 Cl
BRANCH  24  28
ATOM     28  C   UNL     1      -1.452  11.141  18.030  0.00  0.00    +0.000 C 
ATOM     29  F   UNL     1      -1.859  10.672  16.817  0.00  0.00    +0.000 F 
ATOM     30  F   UNL     1      -2.582  11.260  18.780  0.00  0.00    +0.000 F 
ATOM     31  F   UNL     1      -1.004  12.406  17.813  0.00  0.00    +0.000 F 
ENDBRANCH  24  28
ENDBRANCH  20  21
ENDBRANCH   3  20
TORSDOF 10
ENDMDL
MODEL 3
REMARK VINA RESULT:      -8.0      1.078      1.547
REMARK  Name = 
REMARK  12 active torsions:
REMARK  status: ('A' for Active; 'I' for Inactive)
REMARK    1  A    between atoms: C_1  and  C_2
REMARK    2  A    between atoms: C_2  and  O_3
REMARK    3  A    between atoms: O_3  and  C_4
REMARK    4  A    between atoms: C_4  and  C_6
REMARK    5  A    between atoms: C_6  and  C_7
REMARK    6  A    between atoms: C_6  and  O_8
REMARK    7  A    between atoms: O_8  and  C_9
REMARK    8  A    between atoms: C_9  and  C_11
REMARK    9  A    between atoms: C_13  and  O_14
REMARK   10  A    between atoms: O_14  and  C_15
REMARK   11  A    between atoms: C_18  and  C_19
REMARK   12  A    between atoms: C_28  and  N_29
REMARK                            x       y       z     vdW  Elec       q    Type
REMARK                         _______ _______ _______ _____ _____    ______ ____
ROOT
ATOM      1  C   UNL     1       3.476   4.925  18.587  0.00  0.00    +0.000 A 
ATOM      2  C   UNL     1       3.345   6.245  19.057  0.00  0.00    +0.000 A 
ATOM      3  C   UNL     1       2.314   6.584  19.938  0.00  0.00    +0.000 A 
ATOM      4  C   UNL     1       1.419   5.598  20.374  0.00  0.00    +0.000 A 
ATOM      5  C   UNL     1       1.515   4.294  19.890  0.00  0.00    +0.000 A 
ATOM      6  C   UNL     1       2.555   3.968  19.009  0.00  0.00    +0.000 A 
ENDROOT
BRANCH   6   7
ATOM      7  N   UNL     1       2.716   2.573  18.655  0.00  0.00    +0.000 N 
ATOM      8  O   UNL     1       2.105   2.182  17.651  0.00  0.00    +0.000 OA
ATOM      9  O   UNL     1       3.528   1.914  19.318  0.00  0.00    +0.000 OA
ENDBRANCH   6   7
BRANCH   1  10
ATOM     10  C   UNL     1       4.545   4.591  17.624  0.00  0.00    +0.000 C 
ATOM     11  O   UNL     1       4.356   4.446  16.435  0.00  0.00    +0.000 OA
BRANCH  10  12
ATOM     12  O   UNL     1       5.710   4.458  18.295  0.00  0.00    +0.000 OA
BRANCH  12  13
ATOM     13  C   UNL     1       6.795   5.297  17.868  0.00  0.00    +0.000 C 
ATOM     14  C   UNL     1       7.658   4.470  16.931  0.00  0.00    +0.000 C 
BRANCH  13  15
ATOM     15  C   UNL     1       7.583   5.797  19.078  0.00  0.00    +0.000 C 
ATOM     16  O   UNL     1       7.540   5.306  20.199  0.00  0.00    +0.000 OA
BRANCH  15  17
ATOM     17  O   UNL     1       8.248   6.941  18.744  0.00  0.00    +0.000 OA
BRANCH  17  19
ATOM     18  C   UNL     1       8.152   9.165  17.884  0.00  0.00    +0.000 C 
ATOM     19  C   UNL     1       7.628   7.748  17.733  0.00  0.00    +0.000 C 
ENDBRANCH  17  19
ENDBRANCH  15  17
ENDBRANCH  13  15
ENDBRANCH  12  13
ENDBRANCH  10  12
ENDBRANCH   1  10
BRANCH   3  20
ATOM     20  O   UNL     1       2.296   7.900  20.357  0.00  0.00    +0.000 OA
BRANCH  20  21
ATOM     21  C   UNL     1       1.325   8.753  19.877  0.00  0.00    +0.000 A 
ATOM     22  C   UNL     1       1.234   9.082  18.520  0.00  0.00    +0.000 A 
ATOM     23  C   UNL     1       0.192   9.880  18.054  0.00  0.00    +0.000 A 
ATOM     24  C   UNL     1      -0.747  10.419  18.943  0.00  0.00    +0.000 A 
ATOM     25  C   UNL     1      -0.596  10.172  20.317  0.00  0.00    +0.000 A 
ATOM     26  C   UNL     1       0.436   9.349  20.782  0.00  0.00    +0.000 A 
ATOM     27 CL   UNL     1       0.577   9.091  22.483  0.00  0.00    +0.000 Cl
BRANCH  24  28
ATOM     28  C   UNL     1      -1.896  11.251  18.428  0.00  0.00    +0.000 C 
ATOM     29  F   UNL     1      -1.519  12.164  17.490  0.00  0.00    +0.000 F 
ATOM     30  F   UNL     1      -2.860  10.491  17.840  0.00  0.00    +0.000 F 
ATOM     31  F   UNL     1      -2.514  11.956  19.412  0.00  0.00    +0.000 F 
ENDBRANCH  24  28
ENDBRANCH  20  21
ENDBRANCH   3  20
TORSDOF 10
ENDMDL
MODEL 4
REMARK VINA RESULT:      -7.9      1.266      1.874
REMARK  Name = 
REMARK  12 active torsions:
REMARK  status: ('A' for Active; 'I' for Inactive)
REMARK    1  A    between atoms: C_1  and  C_2
REMARK    2  A    between atoms: C_2  and  O_3
REMARK    3  A    between atoms: O_3  and  C_4
REMARK    4  A    between atoms: C_4  and  C_6
REMARK    5  A    between atoms: C_6  and  C_7
REMARK    6  A    between atoms: C_6  and  O_8
REMARK    7  A    between atoms: O_8  and  C_9
REMARK    8  A    between atoms: C_9  and  C_11
REMARK    9  A    between atoms: C_13  and  O_14
REMARK   10  A    between atoms: O_14  and  C_15
REMARK   11  A    between atoms: C_18  and  C_19
REMARK   12  A    between atoms: C_28  and  N_29
REMARK                            x       y       z     vdW  Elec       q    Type
REMARK                         _______ _______ _______ _____ _____    ______ ____
ROOT
ATOM      1  C   UNL     1       2.692   4.647  18.399  0.00  0.00    +0.000 A 
ATOM      2  C   UNL     1       2.792   6.040  18.570  0.00  0.00    +0.000 A 
ATOM      3  C   UNL     1       2.238   6.656  19.697  0.00  0.00    +0.000 A 
ATOM      4  C   UNL     1       1.601   5.878  20.673  0.00  0.00    +0.000 A 
ATOM      5  C   UNL     1       1.464   4.501  20.499  0.00  0.00    +0.000 A 
ATOM      6  C   UNL     1       2.025   3.897  19.366  0.00  0.00    +0.000 A 
ENDROOT
BRANCH   6   7
ATOM      7  N   UNL     1       2.002   2.450  19.301  0.00  0.00    +0.000 N 
ATOM      8  O   UNL     1       3.016   1.861  19.701  0.00  0.00    +0.000 OA
ATOM      9  O   UNL     1       0.940   1.920  18.951  0.00  0.00    +0.000 OA
ENDBRANCH   6   7
BRANCH   1  10
ATOM     10  C   UNL     1       3.245   4.015  17.183  0.00  0.00    +0.000 C 
ATOM     11  O   UNL     1       2.588   3.339  16.421  0.00  0.00    +0.000 OA
BRANCH  10  12
ATOM     12  O   UNL     1       4.564   4.300  17.105  0.00  0.00    +0.000 OA
BRANCH  12  13
ATOM     13  C   UNL     1       5.068   4.647  15.806  0.00  0.00    +0.000 C 
ATOM     14  C   UNL     1       6.153   3.640  15.464  0.00  0.00    +0.000 C 
BRANCH  13  15
ATOM     15  C   UNL     1       5.600   6.079  15.811  0.00  0.00    +0.000 C 
ATOM     16  O   UNL     1       4.997   7.056  15.383  0.00  0.00    +0.000 OA
BRANCH  15  17
ATOM     17  O   UNL     1       6.890   6.082  16.255  0.00  0.00    +0.000 OA
BRANCH  17  19
ATOM     18  C   UNL     1       7.594   5.938  18.530  0.00  0.00    +0.000 C 
ATOM     19  C   UNL     1       7.144   6.875  17.423  0.00  0.00    +0.000 C 
ENDBRANCH  17  19
ENDBRANCH  15  17
ENDBRANCH  13  15
ENDBRANCH  12  13
ENDBRANCH  10  12
ENDBRANCH   1  10
BRANCH   3  20
ATOM     20  O   UNL     1       2.418   8.022  19.778  0.00  0.00    +0.000 OA
BRANCH  20  21
ATOM     21  C   UNL     1       1.370   8.866  19.474  0.00  0.00    +0.000 A 
ATOM     22  C   UNL     1       1.084   9.245  18.158  0.00  0.00    +0.000 A 
ATOM     23  C   UNL     1      -0.032  10.030  17.876  0.00  0.00    +0.000 A 
ATOM     24  C   UNL     1      -0.850  10.505  18.909  0.00  0.00    +0.000 A 
ATOM     25  C   UNL     1      -0.504  10.208  20.237  0.00  0.00    +0.000 A 
ATOM     26  C   UNL     1       0.603   9.397  20.518  0.00  0.00    +0.000 A 
ATOM     27 CL   UNL     1       0.984   9.076  22.171  0.00  0.00    +0.000 Cl
BRANCH  24  28
ATOM     28  C   UNL     1      -2.079  11.323  18.594  0.00  0.00    +0.000 C 
ATOM     29  F   UNL     1      -2.484  12.104  19.634  0.00  0.00    +0.000 F 
ATOM     30  F   UNL     1      -1.880  12.171  17.548  0.00  0.00    +0.000 F 
ATOM     31  F   UNL     1      -3.149  10.554  18.262  0.00  0.00    +0.000 F 
ENDBRANCH  24  28
ENDBRANCH  20  21
ENDBRANCH   3  20
TORSDOF 10
ENDMDL
MODEL 5
REMARK VINA RESULT:      -7.7      1.105      1.340
REMARK  Name = 
REMARK  12 active torsions:
REMARK  status: ('A' for Active; 'I' for Inactive)
REMARK    1  A    between atoms: C_1  and  C_2
REMARK    2  A    between atoms: C_2  and  O_3
REMARK    3  A    between atoms: O_3  and  C_4
REMARK    4  A    between atoms: C_4  and  C_6
REMARK    5  A    between atoms: C_6  and  C_7
REMARK    6  A    between atoms: C_6  and  O_8
REMARK    7  A    between atoms: O_8  and  C_9
REMARK    8  A    between atoms: C_9  and  C_11
REMARK    9  A    between atoms: C_13  and  O_14
REMARK   10  A    between atoms: O_14  and  C_15
REMARK   11  A    between atoms: C_18  and  C_19
REMARK   12  A    between atoms: C_28  and  N_29
REMARK                            x       y       z     vdW  Elec       q    Type
REMARK                         _______ _______ _______ _____ _____    ______ ____
ROOT
ATOM      1  C   UNL     1       2.994   4.674  18.560  0.00  0.00    +0.000 A 
ATOM      2  C   UNL     1       3.024   6.071  18.721  0.00  0.00    +0.000 A 
ATOM      3  C   UNL     1       2.327   6.678  19.770  0.00  0.00    +0.000 A 
ATOM      4  C   UNL     1       1.614   5.888  20.681  0.00  0.00    +0.000 A 
ATOM      5  C   UNL     1       1.547   4.504  20.514  0.00  0.00    +0.000 A 
ATOM      6  C   UNL     1       2.252   3.910  19.459  0.00  0.00    +0.000 A 
ENDROOT
BRANCH   6   7
ATOM      7  N   UNL     1       2.289   2.462  19.414  0.00  0.00    +0.000 N 
ATOM      8  O   UNL     1       1.317   1.900  18.891  0.00  0.00    +0.000 OA
ATOM      9  O   UNL     1       3.327   1.913  19.805  0.00  0.00    +0.000 OA
ENDBRANCH   6   7
BRANCH   1  10
ATOM     10  C   UNL     1       3.701   4.050  17.423  0.00  0.00    +0.000 C 
ATOM     11  O   UNL     1       3.140   3.622  16.437  0.00  0.00    +0.000 OA
BRANCH  10  12
ATOM     12  O   UNL     1       5.025   4.025  17.693  0.00  0.00    +0.000 OA
BRANCH  12  13
ATOM     13  C   UNL     1       5.876   4.751  16.792  0.00  0.00    +0.000 C 
ATOM     14  C   UNL     1       6.053   3.890  15.553  0.00  0.00    +0.000 C 
BRANCH  13  15
ATOM     15  C   UNL     1       7.212   5.064  17.464  0.00  0.00    +0.000 C 
ATOM     16  O   UNL     1       7.778   4.344  18.277  0.00  0.00    +0.000 OA
BRANCH  15  17
ATOM     17  O   UNL     1       7.615   6.318  17.109  0.00  0.00    +0.000 OA
BRANCH  17  19
ATOM     18  C   UNL     1       7.858   8.630  17.649  0.00  0.00    +0.000 C 
ATOM     19  C   UNL     1       7.891   7.214  18.195  0.00  0.00    +0.000 C 
ENDBRANCH  17  19
ENDBRANCH  15  17
ENDBRANCH  13  15
ENDBRANCH  12  13
ENDBRANCH  10  12
ENDBRANCH   1  10
BRANCH   3  20
ATOM     20  O   UNL     1       2.446   8.051  19.850  0.00  0.00    +0.000 OA
BRANCH  20  21
ATOM     21  C   UNL     1       1.383   8.849  19.485  0.00  0.00    +0.000 A 
ATOM     22  C   UNL     1       1.108   9.148  18.146  0.00  0.00    +0.000 A 
ATOM     23  C   UNL     1      -0.022   9.888  17.804  0.00  0.00    +0.000 A 
ATOM     24  C   UNL     1      -0.868  10.398  18.798  0.00  0.00    +0.000 A 
ATOM     25  C   UNL     1      -0.536  10.184  20.145  0.00  0.00    +0.000 A 
ATOM     26  C   UNL     1       0.586   9.418  20.487  0.00  0.00    +0.000 A 
ATOM     27 CL   UNL     1       0.949   9.198  22.160  0.00  0.00    +0.000 Cl
BRANCH  24  28
ATOM     28  C   UNL     1      -2.112  11.165  18.420  0.00  0.00    +0.000 C 
ATOM     29  F   UNL     1      -3.129  10.364  17.996  0.00  0.00    +0.000 F 
ATOM     30  F   UNL     1      -2.614  11.880  19.465  0.00  0.00    +0.000 F 
ATOM     31  F   UNL     1      -1.893  12.058  17.419  0.00  0.00    +0.000 F 
ENDBRANCH  24  28
ENDBRANCH  20  21
ENDBRANCH   3  20
TORSDOF 10
ENDMDL
MODEL 6
REMARK VINA RESULT:      -7.7      2.226      3.143
REMARK  Name = 
REMARK  12 active torsions:
REMARK  status: ('A' for Active; 'I' for Inactive)
REMARK    1  A    between atoms: C_1  and  C_2
REMARK    2  A    between atoms: C_2  and  O_3
REMARK    3  A    between atoms: O_3  and  C_4
REMARK    4  A    between atoms: C_4  and  C_6
REMARK    5  A    between atoms: C_6  and  C_7
REMARK    6  A    between atoms: C_6  and  O_8
REMARK    7  A    between atoms: O_8  and  C_9
REMARK    8  A    between atoms: C_9  and  C_11
REMARK    9  A    between atoms: C_13  and  O_14
REMARK   10  A    between atoms: O_14  and  C_15
REMARK   11  A    between atoms: C_18  and  C_19
REMARK   12  A    between atoms: C_28  and  N_29
REMARK                            x       y       z     vdW  Elec       q    Type
REMARK                         _______ _______ _______ _____ _____    ______ ____
ROOT
ATOM      1  C   UNL     1       3.180   4.949  18.792  0.00  0.00    +0.000 A 
ATOM      2  C   UNL     1       3.013   6.345  18.735  0.00  0.00    +0.000 A 
ATOM      3  C   UNL     1       2.164   6.994  19.637  0.00  0.00    +0.000 A 
ATOM      4  C   UNL     1       1.493   6.253  20.618  0.00  0.00    +0.000 A 
ATOM      5  C   UNL     1       1.621   4.865  20.664  0.00  0.00    +0.000 A 
ATOM      6  C   UNL     1       2.477   4.228  19.756  0.00  0.00    +0.000 A 
ENDROOT
BRANCH   6   7
ATOM      7  N   UNL     1       2.707   2.809  19.938  0.00  0.00    +0.000 N 
ATOM      8  O   UNL     1       1.934   2.043  19.346  0.00  0.00    +0.000 OA
ATOM      9  O   UNL     1       3.712   2.480  20.581  0.00  0.00    +0.000 OA
ENDBRANCH   6   7
BRANCH   1  10
ATOM     10  C   UNL     1       4.048   4.272  17.807  0.00  0.00    +0.000 C 
ATOM     11  O   UNL     1       3.628   3.558  16.922  0.00  0.00    +0.000 OA
BRANCH  10  12
ATOM     12  O   UNL     1       5.337   4.566  18.086  0.00  0.00    +0.000 OA
BRANCH  12  13
ATOM     13  C   UNL     1       6.262   4.498  16.990  0.00  0.00    +0.000 C 
ATOM     14  C   UNL     1       7.660   4.567  17.580  0.00  0.00    +0.000 C 
BRANCH  13  15
ATOM     15  C   UNL     1       6.000   5.638  16.007  0.00  0.00    +0.000 C 
ATOM     16  O   UNL     1       6.021   6.830  16.288  0.00  0.00    +0.000 OA
BRANCH  15  17
ATOM     17  O   UNL     1       5.626   5.120  14.802  0.00  0.00    +0.000 OA
BRANCH  17  19
ATOM     18  C   UNL     1       5.928   3.690  12.915  0.00  0.00    +0.000 C 
ATOM     19  C   UNL     1       6.523   4.156  14.232  0.00  0.00    +0.000 C 
ENDBRANCH  17  19
ENDBRANCH  15  17
ENDBRANCH  13  15
ENDBRANCH  12  13
ENDBRANCH  10  12
ENDBRANCH   1  10
BRANCH   3  20
ATOM     20  O   UNL     1       2.096   8.367  19.509  0.00  0.00    +0.000 OA
BRANCH  20  21
ATOM     21  C   UNL     1       1.203   9.079  20.281  0.00  0.00    +0.000 A 
ATOM     22  C   UNL     1       1.229   9.028  21.679  0.00  0.00    +0.000 A 
ATOM     23  C   UNL     1       0.368   9.824  22.432  0.00  0.00    +0.000 A 
ATOM     24  C   UNL     1      -0.581  10.641  21.804  0.00  0.00    +0.000 A 
ATOM     25  C   UNL     1      -0.674  10.615  20.403  0.00  0.00    +0.000 A 
ATOM     26  C   UNL     1       0.208   9.835  19.646  0.00  0.00    +0.000 A 
ATOM     27 CL   UNL     1       0.037   9.837  17.928  0.00  0.00    +0.000 Cl
BRANCH  24  28
ATOM     28  C   UNL     1      -1.484  11.530  22.624  0.00  0.00    +0.000 C 
ATOM     29  F   UNL     1      -2.483  12.099  21.892  0.00  0.00    +0.000 F 
ATOM     30  F   UNL     1      -2.101  10.851  23.630  0.00  0.00    +0.000 F 
ATOM     31  F   UNL     1      -0.816  12.557  23.211  0.00  0.00    +0.000 F 
ENDBRANCH  24  28
ENDBRANCH  20  21
ENDBRANCH   3  20
TORSDOF 10
ENDMDL
MODEL 7
REMARK VINA RESULT:      -7.6      1.471      2.137
REMARK  Name = 
REMARK  12 active torsions:
REMARK  status: ('A' for Active; 'I' for Inactive)
REMARK    1  A    between atoms: C_1  and  C_2
REMARK    2  A    between atoms: C_2  and  O_3
REMARK    3  A    between atoms: O_3  and  C_4
REMARK    4  A    between atoms: C_4  and  C_6
REMARK    5  A    between atoms: C_6  and  C_7
REMARK    6  A    between atoms: C_6  and  O_8
REMARK    7  A    between atoms: O_8  and  C_9
REMARK    8  A    between atoms: C_9  and  C_11
REMARK    9  A    between atoms: C_13  and  O_14
REMARK   10  A    between atoms: O_14  and  C_15
REMARK   11  A    between atoms: C_18  and  C_19
REMARK   12  A    between atoms: C_28  and  N_29
REMARK                            x       y       z     vdW  Elec       q    Type
REMARK                         _______ _______ _______ _____ _____    ______ ____
ROOT
ATOM      1  C   UNL     1       2.864   4.985  18.660  0.00  0.00    +0.000 A 
ATOM      2  C   UNL     1       2.831   6.343  19.026  0.00  0.00    +0.000 A 
ATOM      3  C   UNL     1       2.051   6.765  20.108  0.00  0.00    +0.000 A 
ATOM      4  C   UNL     1       1.318   5.826  20.846  0.00  0.00    +0.000 A 
ATOM      5  C   UNL     1       1.315   4.482  20.473  0.00  0.00    +0.000 A 
ATOM      6  C   UNL     1       2.102   4.073  19.388  0.00  0.00    +0.000 A 
ENDROOT
BRANCH   6   7
ATOM      7  N   UNL     1       2.197   2.651  19.132  0.00  0.00    +0.000 N 
ATOM      8  O   UNL     1       3.196   2.072  19.583  0.00  0.00    +0.000 OA
ATOM      9  O   UNL     1       1.230   2.113  18.577  0.00  0.00    +0.000 OA
ENDBRANCH   6   7
BRANCH   1  10
ATOM     10  C   UNL     1       3.659   4.560  17.490  0.00  0.00    +0.000 C 
ATOM     11  O   UNL     1       3.294   3.713  16.702  0.00  0.00    +0.000 OA
BRANCH  10  12
ATOM     12  O   UNL     1       4.825   5.243  17.483  0.00  0.00    +0.000 OA
BRANCH  12  13
ATOM     13  C   UNL     1       5.962   4.576  18.054  0.00  0.00    +0.000 C 
ATOM     14  C   UNL     1       6.365   5.360  19.291  0.00  0.00    +0.000 C 
BRANCH  13  15
ATOM     15  C   UNL     1       7.096   4.498  17.033  0.00  0.00    +0.000 C 
ATOM     16  O   UNL     1       8.255   4.195  17.290  0.00  0.00    +0.000 OA
BRANCH  15  17
ATOM     17  O   UNL     1       6.646   4.931  15.820  0.00  0.00    +0.000 OA
BRANCH  17  19
ATOM     18  C   UNL     1       5.401   4.314  13.880  0.00  0.00    +0.000 C 
ATOM     19  C   UNL     1       6.547   3.928  14.799  0.00  0.00    +0.000 C 
ENDBRANCH  17  19
ENDBRANCH  15  17
ENDBRANCH  13  15
ENDBRANCH  12  13
ENDBRANCH  10  12
ENDBRANCH   1  10
BRANCH   3  20
ATOM     20  O   UNL     1       2.113   8.113  20.397  0.00  0.00    +0.000 OA
BRANCH  20  21
ATOM     21  C   UNL     1       1.137   8.958  19.912  0.00  0.00    +0.000 A 
ATOM     22  C   UNL     1       1.070   9.314  18.561  0.00  0.00    +0.000 A 
ATOM     23  C   UNL     1       0.023  10.101  18.087  0.00  0.00    +0.000 A 
ATOM     24  C   UNL     1      -0.946  10.603  18.966  0.00  0.00    +0.000 A 
ATOM     25  C   UNL     1      -0.821  10.331  20.338  0.00  0.00    +0.000 A 
ATOM     26  C   UNL     1       0.217   9.517  20.809  0.00  0.00    +0.000 A 
ATOM     27 CL   UNL     1       0.324   9.226  22.507  0.00  0.00    +0.000 Cl
BRANCH  24  28
ATOM     28  C   UNL     1      -2.099  11.424  18.442  0.00  0.00    +0.000 C 
ATOM     29  F   UNL     1      -1.729  12.317  17.482  0.00  0.00    +0.000 F 
ATOM     30  F   UNL     1      -3.067  10.651  17.878  0.00  0.00    +0.000 F 
ATOM     31  F   UNL     1      -2.710  12.149  19.416  0.00  0.00    +0.000 F 
ENDBRANCH  24  28
ENDBRANCH  20  21
ENDBRANCH   3  20
TORSDOF 10
ENDMDL
MODEL 8
REMARK VINA RESULT:      -7.6      1.675      2.503
REMARK  Name = 
REMARK  12 active torsions:
REMARK  status: ('A' for Active; 'I' for Inactive)
REMARK    1  A    between atoms: C_1  and  C_2
REMARK    2  A    between atoms: C_2  and  O_3
REMARK    3  A    between atoms: O_3  and  C_4
REMARK    4  A    between atoms: C_4  and  C_6
REMARK    5  A    between atoms: C_6  and  C_7
REMARK    6  A    between atoms: C_6  and  O_8
REMARK    7  A    between atoms: O_8  and  C_9
REMARK    8  A    between atoms: C_9  and  C_11
REMARK    9  A    between atoms: C_13  and  O_14
REMARK   10  A    between atoms: O_14  and  C_15
REMARK   11  A    between atoms: C_18  and  C_19
REMARK   12  A    between atoms: C_28  and  N_29
REMARK                            x       y       z     vdW  Elec       q    Type
REMARK                         _______ _______ _______ _____ _____    ______ ____
ROOT
ATOM      1  C   UNL     1       3.751   4.661  18.752  0.00  0.00    +0.000 A 
ATOM      2  C   UNL     1       3.629   5.950  19.304  0.00  0.00    +0.000 A 
ATOM      3  C   UNL     1       2.440   6.345  19.925  0.00  0.00    +0.000 A 
ATOM      4  C   UNL     1       1.372   5.444  20.020  0.00  0.00    +0.000 A 
ATOM      5  C   UNL     1       1.465   4.176  19.447  0.00  0.00    +0.000 A 
ATOM      6  C   UNL     1       2.664   3.792  18.830  0.00  0.00    +0.000 A 
ENDROOT
BRANCH   6   7
ATOM      7  N   UNL     1       2.777   2.417  18.390  0.00  0.00    +0.000 N 
ATOM      8  O   UNL     1       2.315   2.153  17.272  0.00  0.00    +0.000 OA
ATOM      9  O   UNL     1       3.415   1.644  19.118  0.00  0.00    +0.000 OA
ENDBRANCH   6   7
BRANCH   1  10
ATOM     10  C   UNL     1       4.998   4.272  18.062  0.00  0.00    +0.000 C 
ATOM     11  O   UNL     1       5.959   3.800  18.630  0.00  0.00    +0.000 OA
BRANCH  10  12
ATOM     12  O   UNL     1       4.876   4.556  16.747  0.00  0.00    +0.000 OA
BRANCH  12  13
ATOM     13  C   UNL     1       5.788   5.528  16.213  0.00  0.00    +0.000 C 
ATOM     14  C   UNL     1       4.963   6.732  15.794  0.00  0.00    +0.000 C 
BRANCH  13  15
ATOM     15  C   UNL     1       6.567   4.933  15.041  0.00  0.00    +0.000 C 
ATOM     16  O   UNL     1       7.684   5.289  14.685  0.00  0.00    +0.000 OA
BRANCH  15  17
ATOM     17  O   UNL     1       5.781   4.033  14.384  0.00  0.00    +0.000 OA
BRANCH  17  19
ATOM     18  C   UNL     1       5.021   3.450  12.198  0.00  0.00    +0.000 C 
ATOM     19  C   UNL     1       6.241   3.638  13.084  0.00  0.00    +0.000 C 
ENDBRANCH  17  19
ENDBRANCH  15  17
ENDBRANCH  13  15
ENDBRANCH  12  13
ENDBRANCH  10  12
ENDBRANCH   1  10
BRANCH   3  20
ATOM     20  O   UNL     1       2.440   7.620  20.455  0.00  0.00    +0.000 OA
BRANCH  20  21
ATOM     21  C   UNL     1       1.407   8.482  20.154  0.00  0.00    +0.000 A 
ATOM     22  C   UNL     1       0.399   8.780  21.077  0.00  0.00    +0.000 A 
ATOM     23  C   UNL     1      -0.584   9.719  20.772  0.00  0.00    +0.000 A 
ATOM     24  C   UNL     1      -0.618  10.333  19.514  0.00  0.00    +0.000 A 
ATOM     25  C   UNL     1       0.333   9.958  18.552  0.00  0.00    +0.000 A 
ATOM     26  C   UNL     1       1.337   9.034  18.868  0.00  0.00    +0.000 A 
ATOM     27 CL   UNL     1       2.472   8.604  17.640  0.00  0.00    +0.000 Cl
BRANCH  24  28
ATOM     28  C   UNL     1      -1.663  11.378  19.202  0.00  0.00    +0.000 C 
ATOM     29  F   UNL     1      -2.723  10.884  18.504  0.00  0.00    +0.000 F 
ATOM     30  F   UNL     1      -2.186  11.935  20.328  0.00  0.00    +0.000 F 
ATOM     31  F   UNL     1      -1.171  12.406  18.462  0.00  0.00    +0.000 F 
ENDBRANCH  24  28
ENDBRANCH  20  21
ENDBRANCH   3  20
TORSDOF 10
ENDMDL
MODEL 9
REMARK VINA RESULT:      -7.6      2.009      2.686
REMARK  Name = 
REMARK  12 active torsions:
REMARK  status: ('A' for Active; 'I' for Inactive)
REMARK    1  A    between atoms: C_1  and  C_2
REMARK    2  A    between atoms: C_2  and  O_3
REMARK    3  A    between atoms: O_3  and  C_4
REMARK    4  A    between atoms: C_4  and  C_6
REMARK    5  A    between atoms: C_6  and  C_7
REMARK    6  A    between atoms: C_6  and  O_8
REMARK    7  A    between atoms: O_8  and  C_9
REMARK    8  A    between atoms: C_9  and  C_11
REMARK    9  A    between atoms: C_13  and  O_14
REMARK   10  A    between atoms: O_14  and  C_15
REMARK   11  A    between atoms: C_18  and  C_19
REMARK   12  A    between atoms: C_28  and  N_29
REMARK                            x       y       z     vdW  Elec       q    Type
REMARK                         _______ _______ _______ _____ _____    ______ ____
ROOT
ATOM      1  C   UNL     1       3.287   4.952  18.776  0.00  0.00    +0.000 A 
ATOM      2  C   UNL     1       3.102   6.346  18.731  0.00  0.00    +0.000 A 
ATOM      3  C   UNL     1       2.227   6.973  19.624  0.00  0.00    +0.000 A 
ATOM      4  C   UNL     1       1.548   6.211  20.584  0.00  0.00    +0.000 A 
ATOM      5  C   UNL     1       1.695   4.825  20.618  0.00  0.00    +0.000 A 
ATOM      6  C   UNL     1       2.577   4.210  19.719  0.00  0.00    +0.000 A 
ENDROOT
BRANCH   6   7
ATOM      7  N   UNL     1       2.824   2.793  19.889  0.00  0.00    +0.000 N 
ATOM      8  O   UNL     1       2.051   2.022  19.304  0.00  0.00    +0.000 OA
ATOM      9  O   UNL     1       3.840   2.470  20.517  0.00  0.00    +0.000 OA
ENDBRANCH   6   7
BRANCH   1  10
ATOM     10  C   UNL     1       4.183   4.298  17.800  0.00  0.00    +0.000 C 
ATOM     11  O   UNL     1       3.792   3.565  16.917  0.00  0.00    +0.000 OA
BRANCH  10  12
ATOM     12  O   UNL     1       5.460   4.637  18.085  0.00  0.00    +0.000 OA
BRANCH  12  13
ATOM     13  C   UNL     1       6.352   4.770  16.967  0.00  0.00    +0.000 C 
ATOM     14  C   UNL     1       7.731   4.347  17.442  0.00  0.00    +0.000 C 
BRANCH  13  15
ATOM     15  C   UNL     1       6.342   6.209  16.452  0.00  0.00    +0.000 C 
ATOM     16  O   UNL     1       5.429   6.724  15.818  0.00  0.00    +0.000 OA
BRANCH  15  17
ATOM     17  O   UNL     1       7.551   6.789  16.704  0.00  0.00    +0.000 OA
BRANCH  17  19
ATOM     18  C   UNL     1       8.022   8.900  17.712  0.00  0.00    +0.000 C 
ATOM     19  C   UNL     1       7.673   7.445  17.974  0.00  0.00    +0.000 C 
ENDBRANCH  17  19
ENDBRANCH  15  17
ENDBRANCH  13  15
ENDBRANCH  12  13
ENDBRANCH  10  12
ENDBRANCH   1  10
BRANCH   3  20
ATOM     20  O   UNL     1       2.142   8.346  19.510  0.00  0.00    +0.000 OA
BRANCH  20  21
ATOM     21  C   UNL     1       1.240   9.039  20.289  0.00  0.00    +0.000 A 
ATOM     22  C   UNL     1       1.250   8.953  21.686  0.00  0.00    +0.000 A 
ATOM     23  C   UNL     1       0.380   9.731  22.448  0.00  0.00    +0.000 A 
ATOM     24  C   UNL     1      -0.561  10.564  21.829  0.00  0.00    +0.000 A 
ATOM     25  C   UNL     1      -0.638  10.572  20.427  0.00  0.00    +0.000 A 
ATOM     26  C   UNL     1       0.253   9.811  19.662  0.00  0.00    +0.000 A 
ATOM     27 CL   UNL     1       0.102   9.855  17.942  0.00  0.00    +0.000 Cl
BRANCH  24  28
ATOM     28  C   UNL     1      -1.474  11.432  22.660  0.00  0.00    +0.000 C 
ATOM     29  F   UNL     1      -2.069  10.759  23.684  0.00  0.00    +0.000 F 
ATOM     30  F   UNL     1      -0.812  12.473  23.236  0.00  0.00    +0.000 F 
ATOM     31  F   UNL     1      -2.483  11.978  21.931  0.00  0.00    +0.000 F 
ENDBRANCH  24  28
ENDBRANCH  20  21
ENDBRANCH   3  20
TORSDOF 10
ENDMDL
