MODEL 1
REMARK VINA RESULT:      -8.3      0.000      0.000
REMARK  Name = 
REMARK  6 active torsions:
REMARK  status: ('A' for Active; 'I' for Inactive)
REMARK    1  A    between atoms: C_2  and  C_14
REMARK    2  A    between atoms: N_3  and  C_4
REMARK    3  A    between atoms: N_6  and  C_7
REMARK    4  A    between atoms: N_22  and  C_23
REMARK    5  A    between atoms: C_23  and  C_24
REMARK    6  A    between atoms: C_26  and  C_27
REMARK                            x       y       z     vdW  Elec       q    Type
REMARK                         _______ _______ _______ _____ _____    ______ ____
ROOT
ATOM      1  C   UNL     1       2.489   6.393  18.303  0.00  0.00    +0.000 A 
ATOM      2  C   UNL     1       1.579   5.359  18.177  0.00  0.00    +0.000 A 
ATOM      3  C   UNL     1       2.221   4.124  18.439  0.00  0.00    +0.000 A 
ATOM      4  C   UNL     1       1.788   2.781  18.426  0.00  0.00    +0.000 A 
ATOM      5  C   UNL     1       2.681   1.763  18.756  0.00  0.00    +0.000 A 
ATOM      6  C   UNL     1       3.989   2.067  19.118  0.00  0.00    +0.000 A 
ATOM      7  C   UNL     1       4.443   3.395  19.133  0.00  0.00    +0.000 A 
ATOM      8  C   UNL     1       3.544   4.413  18.767  0.00  0.00    +0.000 A 
ATOM      9  N   UNL     1       3.705   5.788  18.630  0.00  0.00    +0.000 N 
ENDROOT
BRANCH   1  11
ATOM     10  O   UNL     1       2.778   8.459  17.174  0.00  0.00    +0.000 OA
ATOM     11  C   UNL     1       2.310   7.829  18.118  0.00  0.00    +0.000 C 
ATOM     12  N   UNL     1       1.557   8.477  19.071  0.00  0.00    +0.000 N 
ATOM     13  H   UNL     1       1.274   7.958  19.892  0.00  0.00    +0.000 HD
BRANCH  12  14
ATOM     14  C   UNL     1       1.342   9.940  19.004  0.00  0.00    +0.000 C 
ATOM     15  C   UNL     1      -0.051  10.423  18.573  0.00  0.00    +0.000 C 
ATOM     16  N   UNL     1      -0.069  11.281  19.731  0.00  0.00    +0.000 N 
ATOM     17  C   UNL     1       1.057  10.625  20.340  0.00  0.00    +0.000 C 
BRANCH  16  18
ATOM     18  C   UNL     1      -0.337  12.671  19.737  0.00  0.00    +0.000 A 
ATOM     19  C   UNL     1      -1.358  13.216  20.519  0.00  0.00    +0.000 A 
ATOM     20  C   UNL     1      -1.600  14.582  20.451  0.00  0.00    +0.000 A 
ATOM     21  N   UNL     1      -0.903  15.434  19.673  0.00  0.00    +0.000 NA
ATOM     22  C   UNL     1       0.100  14.896  18.949  0.00  0.00    +0.000 A 
ATOM     23  C   UNL     1       0.425  13.551  18.968  0.00  0.00    +0.000 A 
ENDBRANCH  16  18
ENDBRANCH  12  14
ENDBRANCH   1  11
BRANCH   9  24
ATOM     24  C   UNL     1       5.002   6.468  18.616  0.00  0.00    +0.000 C 
BRANCH  24  25
ATOM     25  C   UNL     1       5.776   6.271  17.360  0.00  0.00    +0.000 A 
ATOM     26  C   UNL     1       5.312   5.732  16.134  0.00  0.00    +0.000 A 
ATOM     27  C   UNL     1       6.445   5.492  15.382  0.00  0.00    +0.000 A 
ATOM     28  O   UNL     1       7.512   5.987  16.086  0.00  0.00    +0.000 OA
ATOM     29  N   UNL     1       7.101   6.454  17.321  0.00  0.00    +0.000 NA
BRANCH  27  30
ATOM     30  C   UNL     1       6.587   4.811  14.124  0.00  0.00    +0.000 A 
ATOM     31  C   UNL     1       7.502   5.092  13.121  0.00  0.00    +0.000 A 
ATOM     32  C   UNL     1       7.385   4.201  12.009  0.00  0.00    +0.000 A 
ATOM     33  C   UNL     1       6.393   3.282  12.218  0.00  0.00    +0.000 A 
ATOM     34 CL   UNL     1       5.896   2.039  11.143  0.00  0.00    +0.000 Cl
ATOM     35  S   UNL     1       5.622   3.450  13.710  0.00  0.00    +0.000 S 
ENDBRANCH  27  30
ENDBRANCH  24  25
ENDBRANCH   9  24
TORSDOF 6
ENDMDL
MODEL 2
REMARK VINA RESULT:      -7.9      6.127      9.112
REMARK  Name = 
REMARK  6 active torsions:
REMARK  status: ('A' for Active; 'I' for Inactive)
REMARK    1  A    between atoms: C_2  and  C_14
REMARK    2  A    between atoms: N_3  and  C_4
REMARK    3  A    between atoms: N_6  and  C_7
REMARK    4  A    between atoms: N_22  and  C_23
REMARK    5  A    between atoms: C_23  and  C_24
REMARK    6  A    between atoms: C_26  and  C_27
REMARK                            x       y       z     vdW  Elec       q    Type
REMARK                         _______ _______ _______ _____ _____    ______ ____
ROOT
ATOM      1  C   UNL     1       0.752  10.253  21.018  0.00  0.00    +0.000 A 
ATOM      2  C   UNL     1       1.039   9.024  21.586  0.00  0.00    +0.000 A 
ATOM      3  C   UNL     1       1.513   8.138  20.589  0.00  0.00    +0.000 A 
ATOM      4  C   UNL     1       1.915   6.785  20.604  0.00  0.00    +0.000 A 
ATOM      5  C   UNL     1       2.360   6.183  19.427  0.00  0.00    +0.000 A 
ATOM      6  C   UNL     1       2.427   6.915  18.247  0.00  0.00    +0.000 A 
ATOM      7  C   UNL     1       2.027   8.260  18.208  0.00  0.00    +0.000 A 
ATOM      8  C   UNL     1       1.549   8.850  19.392  0.00  0.00    +0.000 A 
ATOM      9  N   UNL     1       1.037  10.116  19.658  0.00  0.00    +0.000 N 
ENDROOT
BRANCH   1  11
ATOM     10  O   UNL     1       0.837  12.537  21.655  0.00  0.00    +0.000 OA
ATOM     11  C   UNL     1       0.229  11.470  21.629  0.00  0.00    +0.000 C 
ATOM     12  N   UNL     1      -1.025  11.381  22.189  0.00  0.00    +0.000 N 
ATOM     13  H   UNL     1      -1.458  10.468  22.251  0.00  0.00    +0.000 HD
BRANCH  12  14
ATOM     14  C   UNL     1      -1.637  12.544  22.870  0.00  0.00    +0.000 C 
ATOM     15  C   UNL     1      -2.278  13.619  21.978  0.00  0.00    +0.000 C 
ATOM     16  N   UNL     1      -3.464  13.533  22.794  0.00  0.00    +0.000 N 
ATOM     17  C   UNL     1      -3.041  12.315  23.430  0.00  0.00    +0.000 C 
BRANCH  16  18
ATOM     18  C   UNL     1      -4.133  14.617  23.411  0.00  0.00    +0.000 A 
ATOM     19  C   UNL     1      -3.492  15.439  24.341  0.00  0.00    +0.000 A 
ATOM     20  C   UNL     1      -4.212  16.462  24.942  0.00  0.00    +0.000 A 
ATOM     21  N   UNL     1      -5.510  16.724  24.684  0.00  0.00    +0.000 NA
ATOM     22  C   UNL     1      -6.104  15.943  23.760  0.00  0.00    +0.000 A 
ATOM     23  C   UNL     1      -5.459  14.913  23.096  0.00  0.00    +0.000 A 
ENDBRANCH  16  18
ENDBRANCH  12  14
ENDBRANCH   1  11
BRANCH   9  24
ATOM     24  C   UNL     1       0.650  11.080  18.626  0.00  0.00    +0.000 C 
BRANCH  24  25
ATOM     25  C   UNL     1      -0.771  10.968  18.194  0.00  0.00    +0.000 A 
ATOM     26  C   UNL     1      -1.772  11.970  18.249  0.00  0.00    +0.000 A 
ATOM     27  C   UNL     1      -2.964  11.315  18.012  0.00  0.00    +0.000 A 
ATOM     28  O   UNL     1      -2.659  10.014  17.706  0.00  0.00    +0.000 OA
ATOM     29  N   UNL     1      -1.300   9.793  17.837  0.00  0.00    +0.000 NA
BRANCH  27  30
ATOM     30  C   UNL     1      -4.315  11.800  18.101  0.00  0.00    +0.000 A 
ATOM     31  C   UNL     1      -5.254  11.846  17.084  0.00  0.00    +0.000 A 
ATOM     32  C   UNL     1      -6.511  12.366  17.523  0.00  0.00    +0.000 A 
ATOM     33  C   UNL     1      -6.472  12.687  18.854  0.00  0.00    +0.000 A 
ATOM     34 CL   UNL     1      -7.745  13.358  19.790  0.00  0.00    +0.000 Cl
ATOM     35  S   UNL     1      -4.984  12.362  19.582  0.00  0.00    +0.000 S 
ENDBRANCH  27  30
ENDBRANCH  24  25
ENDBRANCH   9  24
TORSDOF 6
ENDMDL
MODEL 3
REMARK VINA RESULT:      -7.9      5.796      8.803
REMARK  Name = 
REMARK  6 active torsions:
REMARK  status: ('A' for Active; 'I' for Inactive)
REMARK    1  A    between atoms: C_2  and  C_14
REMARK    2  A    between atoms: N_3  and  C_4
REMARK    3  A    between atoms: N_6  and  C_7
REMARK    4  A    between atoms: N_22  and  C_23
REMARK    5  A    between atoms: C_23  and  C_24
REMARK    6  A    between atoms: C_26  and  C_27
REMARK                            x       y       z     vdW  Elec       q    Type
REMARK                         _______ _______ _______ _____ _____    ______ ____
ROOT
ATOM      1  C   UNL     1       0.958   9.737  20.964  0.00  0.00    +0.000 A 
ATOM      2  C   UNL     1       1.147   8.472  21.490  0.00  0.00    +0.000 A 
ATOM      3  C   UNL     1       1.602   7.597  20.474  0.00  0.00    +0.000 A 
ATOM      4  C   UNL     1       1.918   6.221  20.445  0.00  0.00    +0.000 A 
ATOM      5  C   UNL     1       2.368   5.640  19.260  0.00  0.00    +0.000 A 
ATOM      6  C   UNL     1       2.525   6.412  18.115  0.00  0.00    +0.000 A 
ATOM      7  C   UNL     1       2.211   7.780  18.119  0.00  0.00    +0.000 A 
ATOM      8  C   UNL     1       1.727   8.352  19.310  0.00  0.00    +0.000 A 
ATOM      9  N   UNL     1       1.284   9.636  19.610  0.00  0.00    +0.000 N 
ENDROOT
BRANCH   1  11
ATOM     10  O   UNL     1       1.116  12.016  21.603  0.00  0.00    +0.000 OA
ATOM     11  C   UNL     1       0.489  10.961  21.607  0.00  0.00    +0.000 C 
ATOM     12  N   UNL     1      -0.734  10.889  22.233  0.00  0.00    +0.000 N 
ATOM     13  H   UNL     1      -1.179   9.984  22.315  0.00  0.00    +0.000 HD
BRANCH  12  14
ATOM     14  C   UNL     1      -1.290  12.059  22.951  0.00  0.00    +0.000 C 
ATOM     15  C   UNL     1      -1.816  13.220  22.093  0.00  0.00    +0.000 C 
ATOM     16  N   UNL     1      -3.037  13.182  22.858  0.00  0.00    +0.000 N 
ATOM     17  C   UNL     1      -2.727  11.906  23.446  0.00  0.00    +0.000 C 
BRANCH  16  18
ATOM     18  C   UNL     1      -3.651  14.280  23.506  0.00  0.00    +0.000 A 
ATOM     19  C   UNL     1      -4.983  14.621  23.262  0.00  0.00    +0.000 A 
ATOM     20  C   UNL     1      -5.519  15.734  23.896  0.00  0.00    +0.000 A 
ATOM     21  N   UNL     1      -4.831  16.519  24.750  0.00  0.00    +0.000 NA
ATOM     22  C   UNL     1      -3.558  16.157  25.000  0.00  0.00    +0.000 A 
ATOM     23  C   UNL     1      -2.947  15.054  24.428  0.00  0.00    +0.000 A 
ENDBRANCH  16  18
ENDBRANCH  12  14
ENDBRANCH   1  11
BRANCH   9  24
ATOM     24  C   UNL     1       0.997  10.663  18.606  0.00  0.00    +0.000 C 
BRANCH  24  25
ATOM     25  C   UNL     1      -0.442  10.766  18.238  0.00  0.00    +0.000 A 
ATOM     26  C   UNL     1      -1.351  11.798  18.581  0.00  0.00    +0.000 A 
ATOM     27  C   UNL     1      -2.602  11.311  18.263  0.00  0.00    +0.000 A 
ATOM     28  O   UNL     1      -2.423  10.101  17.645  0.00  0.00    +0.000 OA
ATOM     29  N   UNL     1      -1.084   9.752  17.646  0.00  0.00    +0.000 NA
BRANCH  27  30
ATOM     30  C   UNL     1      -3.902  11.863  18.537  0.00  0.00    +0.000 A 
ATOM     31  C   UNL     1      -4.320  12.473  19.708  0.00  0.00    +0.000 A 
ATOM     32  C   UNL     1      -5.672  12.931  19.633  0.00  0.00    +0.000 A 
ATOM     33  C   UNL     1      -6.218  12.654  18.409  0.00  0.00    +0.000 A 
ATOM     34 CL   UNL     1      -7.816  13.008  17.889  0.00  0.00    +0.000 Cl
ATOM     35  S   UNL     1      -5.150  11.884  17.353  0.00  0.00    +0.000 S 
ENDBRANCH  27  30
ENDBRANCH  24  25
ENDBRANCH   9  24
TORSDOF 6
ENDMDL
MODEL 4
REMARK VINA RESULT:      -7.8      5.152      8.354
REMARK  Name = 
REMARK  6 active torsions:
REMARK  status: ('A' for Active; 'I' for Inactive)
REMARK    1  A    between atoms: C_2  and  C_14
REMARK    2  A    between atoms: N_3  and  C_4
REMARK    3  A    between atoms: N_6  and  C_7
REMARK    4  A    between atoms: N_22  and  C_23
REMARK    5  A    between atoms: C_23  and  C_24
REMARK    6  A    between atoms: C_26  and  C_27
REMARK                            x       y       z     vdW  Elec       q    Type
REMARK                         _______ _______ _______ _____ _____    ______ ____
ROOT
ATOM      1  C   UNL     1       5.672   5.697  17.726  0.00  0.00    +0.000 A 
ATOM      2  C   UNL     1       5.731   4.597  18.564  0.00  0.00    +0.000 A 
ATOM      3  C   UNL     1       4.437   4.042  18.712  0.00  0.00    +0.000 A 
ATOM      4  C   UNL     1       3.924   2.958  19.456  0.00  0.00    +0.000 A 
ATOM      5  C   UNL     1       2.567   2.645  19.376  0.00  0.00    +0.000 A 
ATOM      6  C   UNL     1       1.724   3.382  18.553  0.00  0.00    +0.000 A 
ATOM      7  C   UNL     1       2.211   4.468  17.809  0.00  0.00    +0.000 A 
ATOM      8  C   UNL     1       3.574   4.798  17.920  0.00  0.00    +0.000 A 
ATOM      9  N   UNL     1       4.329   5.828  17.369  0.00  0.00    +0.000 N 
ENDROOT
BRANCH   1  11
ATOM     10  O   UNL     1       7.396   6.427  16.269  0.00  0.00    +0.000 OA
ATOM     11  C   UNL     1       6.731   6.600  17.287  0.00  0.00    +0.000 C 
ATOM     12  N   UNL     1       6.960   7.702  18.078  0.00  0.00    +0.000 N 
ATOM     13  H   UNL     1       6.474   7.765  18.964  0.00  0.00    +0.000 HD
BRANCH  12  14
ATOM     14  C   UNL     1       8.035   8.664  17.749  0.00  0.00    +0.000 C 
ATOM     15  C   UNL     1       7.652  10.151  17.699  0.00  0.00    +0.000 C 
ATOM     16  N   UNL     1       8.769  10.428  18.567  0.00  0.00    +0.000 N 
ATOM     17  C   UNL     1       8.957   9.043  18.907  0.00  0.00    +0.000 C 
BRANCH  16  18
ATOM     18  C   UNL     1       9.787  11.385  18.339  0.00  0.00    +0.000 A 
ATOM     19  C   UNL     1      11.055  11.254  18.910  0.00  0.00    +0.000 A 
ATOM     20  C   UNL     1      11.999  12.246  18.681  0.00  0.00    +0.000 A 
ATOM     21  N   UNL     1      11.774  13.343  17.930  0.00  0.00    +0.000 NA
ATOM     22  C   UNL     1      10.557  13.437  17.360  0.00  0.00    +0.000 A 
ATOM     23  C   UNL     1       9.561  12.489  17.517  0.00  0.00    +0.000 A 
ENDBRANCH  16  18
ENDBRANCH  12  14
ENDBRANCH   1  11
BRANCH   9  24
ATOM     24  C   UNL     1       3.757   6.997  16.696  0.00  0.00    +0.000 C 
BRANCH  24  25
ATOM     25  C   UNL     1       3.083   7.956  17.614  0.00  0.00    +0.000 A 
ATOM     26  C   UNL     1       2.617   7.710  18.930  0.00  0.00    +0.000 A 
ATOM     27  C   UNL     1       1.828   8.795  19.252  0.00  0.00    +0.000 A 
ATOM     28  O   UNL     1       1.931   9.694  18.221  0.00  0.00    +0.000 OA
ATOM     29  N   UNL     1       2.695   9.166  17.197  0.00  0.00    +0.000 NA
BRANCH  27  30
ATOM     30  C   UNL     1       0.978   9.011  20.392  0.00  0.00    +0.000 A 
ATOM     31  C   UNL     1       0.586   8.071  21.331  0.00  0.00    +0.000 A 
ATOM     32  C   UNL     1      -0.243   8.629  22.353  0.00  0.00    +0.000 A 
ATOM     33  C   UNL     1      -0.439   9.968  22.148  0.00  0.00    +0.000 A 
ATOM     34 CL   UNL     1      -1.380  11.032  23.113  0.00  0.00    +0.000 Cl
ATOM     35  S   UNL     1       0.357  10.566  20.784  0.00  0.00    +0.000 S 
ENDBRANCH  27  30
ENDBRANCH  24  25
ENDBRANCH   9  24
TORSDOF 6
ENDMDL
MODEL 5
REMARK VINA RESULT:      -7.6      5.150      7.160
REMARK  Name = 
REMARK  6 active torsions:
REMARK  status: ('A' for Active; 'I' for Inactive)
REMARK    1  A    between atoms: C_2  and  C_14
REMARK    2  A    between atoms: N_3  and  C_4
REMARK    3  A    between atoms: N_6  and  C_7
REMARK    4  A    between atoms: N_22  and  C_23
REMARK    5  A    between atoms: C_23  and  C_24
REMARK    6  A    between atoms: C_26  and  C_27
REMARK                            x       y       z     vdW  Elec       q    Type
REMARK                         _______ _______ _______ _____ _____    ______ ____
ROOT
ATOM      1  C   UNL     1       1.600   7.619  20.764  0.00  0.00    +0.000 A 
ATOM      2  C   UNL     1       1.316   6.312  21.116  0.00  0.00    +0.000 A 
ATOM      3  C   UNL     1       1.672   5.445  20.054  0.00  0.00    +0.000 A 
ATOM      4  C   UNL     1       1.575   4.050  19.865  0.00  0.00    +0.000 A 
ATOM      5  C   UNL     1       2.042   3.479  18.682  0.00  0.00    +0.000 A 
ATOM      6  C   UNL     1       2.619   4.274  17.698  0.00  0.00    +0.000 A 
ATOM      7  C   UNL     1       2.720   5.665  17.863  0.00  0.00    +0.000 A 
ATOM      8  C   UNL     1       2.217   6.236  19.046  0.00  0.00    +0.000 A 
ATOM      9  N   UNL     1       2.120   7.558  19.470  0.00  0.00    +0.000 N 
ENDROOT
BRANCH   1  11
ATOM     10  O   UNL     1       2.246   9.355  22.247  0.00  0.00    +0.000 OA
ATOM     11  C   UNL     1       1.399   8.857  21.511  0.00  0.00    +0.000 C 
ATOM     12  N   UNL     1       0.182   9.478  21.345  0.00  0.00    +0.000 N 
ATOM     13  H   UNL     1      -0.536   8.993  20.821  0.00  0.00    +0.000 HD
BRANCH  12  14
ATOM     14  C   UNL     1      -0.145  10.718  22.083  0.00  0.00    +0.000 C 
ATOM     15  C   UNL     1      -1.171  11.665  21.441  0.00  0.00    +0.000 C 
ATOM     16  N   UNL     1      -1.881  11.684  22.695  0.00  0.00    +0.000 N 
ATOM     17  C   UNL     1      -1.152  10.561  23.222  0.00  0.00    +0.000 C 
BRANCH  16  18
ATOM     18  C   UNL     1      -2.282  12.838  23.410  0.00  0.00    +0.000 A 
ATOM     19  C   UNL     1      -1.406  13.905  23.627  0.00  0.00    +0.000 A 
ATOM     20  C   UNL     1      -1.845  14.992  24.370  0.00  0.00    +0.000 A 
ATOM     21  N   UNL     1      -3.079  15.094  24.903  0.00  0.00    +0.000 NA
ATOM     22  C   UNL     1      -3.921  14.071  24.657  0.00  0.00    +0.000 A 
ATOM     23  C   UNL     1      -3.578  12.956  23.911  0.00  0.00    +0.000 A 
ENDBRANCH  16  18
ENDBRANCH  12  14
ENDBRANCH   1  11
BRANCH   9  24
ATOM     24  C   UNL     1       2.328   8.718  18.600  0.00  0.00    +0.000 C 
BRANCH  24  25
ATOM     25  C   UNL     1       1.152   9.627  18.511  0.00  0.00    +0.000 A 
ATOM     26  C   UNL     1      -0.156   9.307  18.070  0.00  0.00    +0.000 A 
ATOM     27  C   UNL     1      -0.797  10.517  17.899  0.00  0.00    +0.000 A 
ATOM     28  O   UNL     1       0.057  11.495  18.343  0.00  0.00    +0.000 OA
ATOM     29  N   UNL     1       1.273  10.945  18.705  0.00  0.00    +0.000 NA
BRANCH  27  30
ATOM     30  C   UNL     1      -2.083  10.806  17.324  0.00  0.00    +0.000 A 
ATOM     31  C   UNL     1      -2.526  10.465  16.057  0.00  0.00    +0.000 A 
ATOM     32  C   UNL     1      -3.870  10.886  15.815  0.00  0.00    +0.000 A 
ATOM     33  C   UNL     1      -4.390  11.523  16.910  0.00  0.00    +0.000 A 
ATOM     34 CL   UNL     1      -5.958  12.207  17.058  0.00  0.00    +0.000 Cl
ATOM     35  S   UNL     1      -3.319  11.607  18.212  0.00  0.00    +0.000 S 
ENDBRANCH  27  30
ENDBRANCH  24  25
ENDBRANCH   9  24
TORSDOF 6
ENDMDL
MODEL 6
REMARK VINA RESULT:      -7.6      5.135      8.283
REMARK  Name = 
REMARK  6 active torsions:
REMARK  status: ('A' for Active; 'I' for Inactive)
REMARK    1  A    between atoms: C_2  and  C_14
REMARK    2  A    between atoms: N_3  and  C_4
REMARK    3  A    between atoms: N_6  and  C_7
REMARK    4  A    between atoms: N_22  and  C_23
REMARK    5  A    between atoms: C_23  and  C_24
REMARK    6  A    between atoms: C_26  and  C_27
REMARK                            x       y       z     vdW  Elec       q    Type
REMARK                         _______ _______ _______ _____ _____    ______ ____
ROOT
ATOM      1  C   UNL     1       5.966   5.650  17.740  0.00  0.00    +0.000 A 
ATOM      2  C   UNL     1       6.117   4.466  18.439  0.00  0.00    +0.000 A 
ATOM      3  C   UNL     1       4.850   3.864  18.636  0.00  0.00    +0.000 A 
ATOM      4  C   UNL     1       4.424   2.690  19.293  0.00  0.00    +0.000 A 
ATOM      5  C   UNL     1       3.071   2.353  19.297  0.00  0.00    +0.000 A 
ATOM      6  C   UNL     1       2.145   3.157  18.641  0.00  0.00    +0.000 A 
ATOM      7  C   UNL     1       2.546   4.332  17.986  0.00  0.00    +0.000 A 
ATOM      8  C   UNL     1       3.908   4.682  18.014  0.00  0.00    +0.000 A 
ATOM      9  N   UNL     1       4.594   5.787  17.520  0.00  0.00    +0.000 N 
ENDROOT
BRANCH   1  11
ATOM     10  O   UNL     1       7.544   6.581  16.233  0.00  0.00    +0.000 OA
ATOM     11  C   UNL     1       6.967   6.624  17.316  0.00  0.00    +0.000 C 
ATOM     12  N   UNL     1       7.244   7.639  18.202  0.00  0.00    +0.000 N 
ATOM     13  H   UNL     1       6.836   7.592  19.128  0.00  0.00    +0.000 HD
BRANCH  12  14
ATOM     14  C   UNL     1       8.270   8.660  17.892  0.00  0.00    +0.000 C 
ATOM     15  C   UNL     1       7.768  10.048  17.465  0.00  0.00    +0.000 C 
ATOM     16  N   UNL     1       8.644  10.626  18.453  0.00  0.00    +0.000 N 
ATOM     17  C   UNL     1       8.884   9.365  19.101  0.00  0.00    +0.000 C 
BRANCH  16  18
ATOM     18  C   UNL     1       9.593  11.652  18.230  0.00  0.00    +0.000 A 
ATOM     19  C   UNL     1       9.251  13.002  18.341  0.00  0.00    +0.000 A 
ATOM     20  C   UNL     1      10.215  13.964  18.070  0.00  0.00    +0.000 A 
ATOM     21  N   UNL     1      11.482  13.680  17.705  0.00  0.00    +0.000 NA
ATOM     22  C   UNL     1      11.804  12.373  17.634  0.00  0.00    +0.000 A 
ATOM     23  C   UNL     1      10.914  11.347  17.904  0.00  0.00    +0.000 A 
ENDBRANCH  16  18
ENDBRANCH  12  14
ENDBRANCH   1  11
BRANCH   9  24
ATOM     24  C   UNL     1       3.946   7.009  17.038  0.00  0.00    +0.000 C 
BRANCH  24  25
ATOM     25  C   UNL     1       2.924   7.560  17.970  0.00  0.00    +0.000 A 
ATOM     26  C   UNL     1       1.947   8.550  17.694  0.00  0.00    +0.000 A 
ATOM     27  C   UNL     1       1.440   8.922  18.923  0.00  0.00    +0.000 A 
ATOM     28  O   UNL     1       2.003   8.097  19.862  0.00  0.00    +0.000 OA
ATOM     29  N   UNL     1       2.937   7.264  19.275  0.00  0.00    +0.000 NA
BRANCH  27  30
ATOM     30  C   UNL     1       0.538   9.990  19.262  0.00  0.00    +0.000 A 
ATOM     31  C   UNL     1      -0.532  10.449  18.512  0.00  0.00    +0.000 A 
ATOM     32  C   UNL     1      -1.237  11.512  19.157  0.00  0.00    +0.000 A 
ATOM     33  C   UNL     1      -0.674  11.809  20.369  0.00  0.00    +0.000 A 
ATOM     34 CL   UNL     1      -1.180  13.026  21.471  0.00  0.00    +0.000 Cl
ATOM     35  S   UNL     1       0.653  10.839  20.753  0.00  0.00    +0.000 S 
ENDBRANCH  27  30
ENDBRANCH  24  25
ENDBRANCH   9  24
TORSDOF 6
ENDMDL
MODEL 7
REMARK VINA RESULT:      -7.6      4.682     10.165
REMARK  Name = 
REMARK  6 active torsions:
REMARK  status: ('A' for Active; 'I' for Inactive)
REMARK    1  A    between atoms: C_2  and  C_14
REMARK    2  A    between atoms: N_3  and  C_4
REMARK    3  A    between atoms: N_6  and  C_7
REMARK    4  A    between atoms: N_22  and  C_23
REMARK    5  A    between atoms: C_23  and  C_24
REMARK    6  A    between atoms: C_26  and  C_27
REMARK                            x       y       z     vdW  Elec       q    Type
REMARK                         _______ _______ _______ _____ _____    ______ ____
ROOT
ATOM      1  C   UNL     1       0.003   9.901  18.057  0.00  0.00    +0.000 A 
ATOM      2  C   UNL     1      -0.998   9.702  17.124  0.00  0.00    +0.000 A 
ATOM      3  C   UNL     1      -2.183  10.348  17.552  0.00  0.00    +0.000 A 
ATOM      4  C   UNL     1      -3.485  10.444  17.015  0.00  0.00    +0.000 A 
ATOM      5  C   UNL     1      -4.456  11.189  17.685  0.00  0.00    +0.000 A 
ATOM      6  C   UNL     1      -4.140  11.851  18.866  0.00  0.00    +0.000 A 
ATOM      7  C   UNL     1      -2.854  11.764  19.420  0.00  0.00    +0.000 A 
ATOM      8  C   UNL     1      -1.890  10.985  18.756  0.00  0.00    +0.000 A 
ATOM      9  N   UNL     1      -0.575  10.663  19.075  0.00  0.00    +0.000 N 
ENDROOT
BRANCH   1  11
ATOM     10  O   UNL     1       2.346  10.117  17.752  0.00  0.00    +0.000 OA
ATOM     11  C   UNL     1       1.383   9.426  18.070  0.00  0.00    +0.000 C 
ATOM     12  N   UNL     1       1.575   8.125  18.479  0.00  0.00    +0.000 N 
ATOM     13  H   UNL     1       0.760   7.545  18.632  0.00  0.00    +0.000 HD
BRANCH  12  14
ATOM     14  C   UNL     1       2.929   7.526  18.494  0.00  0.00    +0.000 C 
ATOM     15  C   UNL     1       3.017   5.996  18.387  0.00  0.00    +0.000 C 
ATOM     16  N   UNL     1       3.978   6.165  17.325  0.00  0.00    +0.000 N 
ATOM     17  C   UNL     1       3.680   7.563  17.164  0.00  0.00    +0.000 C 
BRANCH  16  18
ATOM     18  C   UNL     1       5.256   5.562  17.252  0.00  0.00    +0.000 A 
ATOM     19  C   UNL     1       6.161   5.635  18.313  0.00  0.00    +0.000 A 
ATOM     20  C   UNL     1       7.416   5.059  18.166  0.00  0.00    +0.000 A 
ATOM     21  N   UNL     1       7.826   4.418  17.053  0.00  0.00    +0.000 NA
ATOM     22  C   UNL     1       6.929   4.328  16.051  0.00  0.00    +0.000 A 
ATOM     23  C   UNL     1       5.651   4.855  16.116  0.00  0.00    +0.000 A 
ENDBRANCH  16  18
ENDBRANCH  12  14
ENDBRANCH   1  11
BRANCH   9  24
ATOM     24  C   UNL     1       0.036  10.903  20.384  0.00  0.00    +0.000 C 
BRANCH  24  25
ATOM     25  C   UNL     1       0.679  12.240  20.517  0.00  0.00    +0.000 A 
ATOM     26  C   UNL     1       1.359  12.975  19.514  0.00  0.00    +0.000 A 
ATOM     27  C   UNL     1       2.010  13.994  20.179  0.00  0.00    +0.000 A 
ATOM     28  O   UNL     1       1.625  13.933  21.494  0.00  0.00    +0.000 OA
ATOM     29  N   UNL     1       0.813  12.834  21.708  0.00  0.00    +0.000 NA
BRANCH  27  30
ATOM     30  C   UNL     1       2.970  14.947  19.691  0.00  0.00    +0.000 A 
ATOM     31  C   UNL     1       3.138  15.367  18.382  0.00  0.00    +0.000 A 
ATOM     32  C   UNL     1       4.170  16.346  18.249  0.00  0.00    +0.000 A 
ATOM     33  C   UNL     1       4.736  16.631  19.462  0.00  0.00    +0.000 A 
ATOM     34 CL   UNL     1       6.019  17.730  19.769  0.00  0.00    +0.000 Cl
ATOM     35  S   UNL     1       4.049  15.774  20.744  0.00  0.00    +0.000 S 
ENDBRANCH  27  30
ENDBRANCH  24  25
ENDBRANCH   9  24
TORSDOF 6
ENDMDL
MODEL 8
REMARK VINA RESULT:      -7.6      4.656      9.994
REMARK  Name = 
REMARK  6 active torsions:
REMARK  status: ('A' for Active; 'I' for Inactive)
REMARK    1  A    between atoms: C_2  and  C_14
REMARK    2  A    between atoms: N_3  and  C_4
REMARK    3  A    between atoms: N_6  and  C_7
REMARK    4  A    between atoms: N_22  and  C_23
REMARK    5  A    between atoms: C_23  and  C_24
REMARK    6  A    between atoms: C_26  and  C_27
REMARK                            x       y       z     vdW  Elec       q    Type
REMARK                         _______ _______ _______ _____ _____    ______ ____
ROOT
ATOM      1  C   UNL     1      -0.556  10.214  18.114  0.00  0.00    +0.000 A 
ATOM      2  C   UNL     1      -1.446  10.005  17.076  0.00  0.00    +0.000 A 
ATOM      3  C   UNL     1      -2.687  10.614  17.382  0.00  0.00    +0.000 A 
ATOM      4  C   UNL     1      -3.926  10.686  16.710  0.00  0.00    +0.000 A 
ATOM      5  C   UNL     1      -4.982  11.395  17.282  0.00  0.00    +0.000 A 
ATOM      6  C   UNL     1      -4.813  12.046  18.498  0.00  0.00    +0.000 A 
ATOM      7  C   UNL     1      -3.592  11.982  19.187  0.00  0.00    +0.000 A 
ATOM      8  C   UNL     1      -2.542  11.238  18.620  0.00  0.00    +0.000 A 
ATOM      9  N   UNL     1      -1.261  10.944  19.075  0.00  0.00    +0.000 N 
ENDROOT
BRANCH   1  11
ATOM     10  O   UNL     1       1.799  10.495  18.071  0.00  0.00    +0.000 OA
ATOM     11  C   UNL     1       0.826   9.773  18.270  0.00  0.00    +0.000 C 
ATOM     12  N   UNL     1       1.008   8.469  18.672  0.00  0.00    +0.000 N 
ATOM     13  H   UNL     1       0.197   7.866  18.724  0.00  0.00    +0.000 HD
BRANCH  12  14
ATOM     14  C   UNL     1       2.368   7.904  18.825  0.00  0.00    +0.000 C 
ATOM     15  C   UNL     1       2.475   6.384  19.024  0.00  0.00    +0.000 C 
ATOM     16  N   UNL     1       3.450   6.353  17.963  0.00  0.00    +0.000 N 
ATOM     17  C   UNL     1       3.140   7.687  17.524  0.00  0.00    +0.000 C 
BRANCH  16  18
ATOM     18  C   UNL     1       4.736   5.765  18.028  0.00  0.00    +0.000 A 
ATOM     19  C   UNL     1       5.357   5.237  16.894  0.00  0.00    +0.000 A 
ATOM     20  C   UNL     1       6.602   4.637  17.028  0.00  0.00    +0.000 A 
ATOM     21  N   UNL     1       7.266   4.531  18.197  0.00  0.00    +0.000 NA
ATOM     22  C   UNL     1       6.668   5.075  19.275  0.00  0.00    +0.000 A 
ATOM     23  C   UNL     1       5.437   5.708  19.232  0.00  0.00    +0.000 A 
ENDBRANCH  16  18
ENDBRANCH  12  14
ENDBRANCH   1  11
BRANCH   9  24
ATOM     24  C   UNL     1      -0.800  11.178  20.445  0.00  0.00    +0.000 C 
BRANCH  24  25
ATOM     25  C   UNL     1       0.345  12.125  20.546  0.00  0.00    +0.000 A 
ATOM     26  C   UNL     1       0.616  13.244  19.721  0.00  0.00    +0.000 A 
ATOM     27  C   UNL     1       1.908  13.623  20.023  0.00  0.00    +0.000 A 
ATOM     28  O   UNL     1       2.327  12.840  21.068  0.00  0.00    +0.000 OA
ATOM     29  N   UNL     1       1.365  11.898  21.381  0.00  0.00    +0.000 NA
BRANCH  27  30
ATOM     30  C   UNL     1       2.755  14.595  19.387  0.00  0.00    +0.000 A 
ATOM     31  C   UNL     1       2.573  15.176  18.143  0.00  0.00    +0.000 A 
ATOM     32  C   UNL     1       3.594  16.125  17.826  0.00  0.00    +0.000 A 
ATOM     33  C   UNL     1       4.502  16.227  18.845  0.00  0.00    +0.000 A 
ATOM     34 CL   UNL     1       5.898  17.227  18.886  0.00  0.00    +0.000 Cl
ATOM     35  S   UNL     1       4.149  15.235  20.165  0.00  0.00    +0.000 S 
ENDBRANCH  27  30
ENDBRANCH  24  25
ENDBRANCH   9  24
TORSDOF 6
ENDMDL
MODEL 9
REMARK VINA RESULT:      -7.5      4.128      7.635
REMARK  Name = 
REMARK  6 active torsions:
REMARK  status: ('A' for Active; 'I' for Inactive)
REMARK    1  A    between atoms: C_2  and  C_14
REMARK    2  A    between atoms: N_3  and  C_4
REMARK    3  A    between atoms: N_6  and  C_7
REMARK    4  A    between atoms: N_22  and  C_23
REMARK    5  A    between atoms: C_23  and  C_24
REMARK    6  A    between atoms: C_26  and  C_27
REMARK                            x       y       z     vdW  Elec       q    Type
REMARK                         _______ _______ _______ _____ _____    ______ ____
ROOT
ATOM      1  C   UNL     1      -0.170  12.530  19.487  0.00  0.00    +0.000 A 
ATOM      2  C   UNL     1      -1.509  12.876  19.501  0.00  0.00    +0.000 A 
ATOM      3  C   UNL     1      -2.264  11.887  18.824  0.00  0.00    +0.000 A 
ATOM      4  C   UNL     1      -3.635  11.750  18.521  0.00  0.00    +0.000 A 
ATOM      5  C   UNL     1      -4.082  10.620  17.837  0.00  0.00    +0.000 A 
ATOM      6  C   UNL     1      -3.187   9.621  17.472  0.00  0.00    +0.000 A 
ATOM      7  C   UNL     1      -1.818   9.739  17.758  0.00  0.00    +0.000 A 
ATOM      8  C   UNL     1      -1.371  10.897  18.419  0.00  0.00    +0.000 A 
ATOM      9  N   UNL     1      -0.098  11.325  18.784  0.00  0.00    +0.000 N 
ENDROOT
BRANCH   1  11
ATOM     10  O   UNL     1       1.590  12.868  21.042  0.00  0.00    +0.000 OA
ATOM     11  C   UNL     1       0.987  13.230  20.036  0.00  0.00    +0.000 C 
ATOM     12  N   UNL     1       1.402  14.350  19.352  0.00  0.00    +0.000 N 
ATOM     13  H   UNL     1       0.825  14.688  18.592  0.00  0.00    +0.000 HD
BRANCH  12  14
ATOM     14  C   UNL     1       2.540  15.160  19.840  0.00  0.00    +0.000 C 
ATOM     15  C   UNL     1       3.948  14.716  19.413  0.00  0.00    +0.000 C 
ATOM     16  N   UNL     1       4.204  16.070  18.990  0.00  0.00    +0.000 N 
ATOM     17  C   UNL     1       2.817  16.444  19.060  0.00  0.00    +0.000 C 
BRANCH  16  18
ATOM     18  C   UNL     1       5.311  16.867  19.367  0.00  0.00    +0.000 A 
ATOM     19  C   UNL     1       6.534  16.784  18.697  0.00  0.00    +0.000 A 
ATOM     20  C   UNL     1       7.596  17.563  19.139  0.00  0.00    +0.000 A 
ATOM     21  N   UNL     1       7.525  18.411  20.185  0.00  0.00    +0.000 NA
ATOM     22  C   UNL     1       6.329  18.503  20.799  0.00  0.00    +0.000 A 
ATOM     23  C   UNL     1       5.212  17.780  20.417  0.00  0.00    +0.000 A 
ENDBRANCH  16  18
ENDBRANCH  12  14
ENDBRANCH   1  11
BRANCH   9  24
ATOM     24  C   UNL     1       1.144  10.713  18.307  0.00  0.00    +0.000 C 
BRANCH  24  25
ATOM     25  C   UNL     1       1.540   9.486  19.052  0.00  0.00    +0.000 A 
ATOM     26  C   UNL     1       2.153   8.319  18.532  0.00  0.00    +0.000 A 
ATOM     27  C   UNL     1       2.059   7.374  19.533  0.00  0.00    +0.000 A 
ATOM     28  O   UNL     1       1.528   7.997  20.632  0.00  0.00    +0.000 OA
ATOM     29  N   UNL     1       1.189   9.303  20.330  0.00  0.00    +0.000 NA
BRANCH  27  30
ATOM     30  C   UNL     1       2.373   5.970  19.506  0.00  0.00    +0.000 A 
ATOM     31  C   UNL     1       2.205   5.058  20.535  0.00  0.00    +0.000 A 
ATOM     32  C   UNL     1       2.598   3.735  20.162  0.00  0.00    +0.000 A 
ATOM     33  C   UNL     1       3.040   3.700  18.867  0.00  0.00    +0.000 A 
ATOM     34 CL   UNL     1       3.623   2.329  18.013  0.00  0.00    +0.000 Cl
ATOM     35  S   UNL     1       2.976   5.199  18.093  0.00  0.00    +0.000 S 
ENDBRANCH  27  30
ENDBRANCH  24  25
ENDBRANCH   9  24
TORSDOF 6
ENDMDL
