MODEL 1
REMARK VINA RESULT:      -7.2      0.000      0.000
REMARK  Name = 
REMARK  6 active torsions:
REMARK  status: ('A' for Active; 'I' for Inactive)
REMARK    1  A    between atoms: C_1  and  O_2
REMARK    2  A    between atoms: O_2  and  C_3
REMARK    3  A    between atoms: C_7  and  C_8
REMARK    4  A    between atoms: C_16  and  O_17
REMARK    5  A    between atoms: C_20  and  O_21
REMARK    6  A    between atoms: O_21  and  C_22
REMARK                            x       y       z     vdW  Elec       q    Type
REMARK                         _______ _______ _______ _____ _____    ______ ____
ROOT
ATOM      1  C   UNL     1       0.988   9.643  19.238  0.00  0.00    +0.000 A 
ATOM      2  C   UNL     1       1.904   9.037  18.365  0.00  0.00    +0.000 A 
ATOM      3  C   UNL     1       2.495   7.816  18.654  0.00  0.00    +0.000 A 
ATOM      4  N   UNL     1       3.360   7.280  17.781  0.00  0.00    +0.000 NA
ATOM      5  C   UNL     1       3.923   6.098  18.101  0.00  0.00    +0.000 A 
ATOM      6  N   UNL     1       3.648   5.404  19.216  0.00  0.00    +0.000 NA
ATOM      7  C   UNL     1       2.781   5.979  20.050  0.00  0.00    +0.000 A 
ATOM      8  C   UNL     1       2.155   7.195  19.853  0.00  0.00    +0.000 A 
ATOM      9  C   UNL     1       1.255   7.796  20.760  0.00  0.00    +0.000 A 
ATOM     10  C   UNL     1       0.689   9.034  20.468  0.00  0.00    +0.000 A 
ENDROOT
BRANCH   5  11
ATOM     11  C   UNL     1       4.881   5.518  17.150  0.00  0.00    +0.000 A 
ATOM     12  C   UNL     1       4.607   4.312  16.474  0.00  0.00    +0.000 A 
ATOM     13  C   UNL     1       5.536   3.744  15.592  0.00  0.00    +0.000 A 
ATOM     14  C   UNL     1       6.754   4.376  15.360  0.00  0.00    +0.000 A 
ATOM     15  C   UNL     1       7.038   5.578  16.000  0.00  0.00    +0.000 A 
ATOM     16  C   UNL     1       6.110   6.136  16.880  0.00  0.00    +0.000 A 
ATOM     17  F   UNL     1       6.429   7.311  17.446  0.00  0.00    +0.000 F 
ENDBRANCH   5  11
BRANCH   1  19
ATOM     18  C   UNL     1       1.276  11.971  18.931  0.00  0.00    +0.000 C 
ATOM     19  O   UNL     1       0.393  10.853  18.975  0.00  0.00    +0.000 OA
ENDBRANCH   1  19
BRANCH   7  20
ATOM     20  O   UNL     1       2.564   5.240  21.171  0.00  0.00    +0.000 OA
ATOM     21  H   UNL     1       2.794   5.897  21.854  0.00  0.00    +0.000 HD
ENDBRANCH   7  20
BRANCH  10  22
ATOM     22  O   UNL     1      -0.191   9.683  21.295  0.00  0.00    +0.000 OA
ATOM     23  C   UNL     1       0.050   9.552  22.693  0.00  0.00    +0.000 C 
ENDBRANCH  10  22
TORSDOF 4
ENDMDL
MODEL 2
REMARK VINA RESULT:      -7.2      1.016      1.442
REMARK  Name = 
REMARK  6 active torsions:
REMARK  status: ('A' for Active; 'I' for Inactive)
REMARK    1  A    between atoms: C_1  and  O_2
REMARK    2  A    between atoms: O_2  and  C_3
REMARK    3  A    between atoms: C_7  and  C_8
REMARK    4  A    between atoms: C_16  and  O_17
REMARK    5  A    between atoms: C_20  and  O_21
REMARK    6  A    between atoms: O_21  and  C_22
REMARK                            x       y       z     vdW  Elec       q    Type
REMARK                         _______ _______ _______ _____ _____    ______ ____
ROOT
ATOM      1  C   UNL     1       0.903   9.718  19.214  0.00  0.00    +0.000 A 
ATOM      2  C   UNL     1       1.836   9.102  18.366  0.00  0.00    +0.000 A 
ATOM      3  C   UNL     1       2.428   7.890  18.686  0.00  0.00    +0.000 A 
ATOM      4  N   UNL     1       3.310   7.343  17.836  0.00  0.00    +0.000 NA
ATOM      5  C   UNL     1       3.873   6.169  18.184  0.00  0.00    +0.000 A 
ATOM      6  N   UNL     1       3.584   5.493  19.306  0.00  0.00    +0.000 NA
ATOM      7  C   UNL     1       2.701   6.077  20.117  0.00  0.00    +0.000 A 
ATOM      8  C   UNL     1       2.072   7.287  19.888  0.00  0.00    +0.000 A 
ATOM      9  C   UNL     1       1.154   7.898  20.771  0.00  0.00    +0.000 A 
ATOM     10  C   UNL     1       0.587   9.128  20.448  0.00  0.00    +0.000 A 
ENDROOT
BRANCH   5  11
ATOM     11  C   UNL     1       4.850   5.579  17.260  0.00  0.00    +0.000 A 
ATOM     12  C   UNL     1       6.111   6.169  17.047  0.00  0.00    +0.000 A 
ATOM     13  C   UNL     1       7.028   5.622  16.141  0.00  0.00    +0.000 A 
ATOM     14  C   UNL     1       6.707   4.465  15.436  0.00  0.00    +0.000 A 
ATOM     15  C   UNL     1       5.476   3.853  15.645  0.00  0.00    +0.000 A 
ATOM     16  C   UNL     1       4.566   4.406  16.546  0.00  0.00    +0.000 A 
ATOM     17  F   UNL     1       3.406   3.753  16.726  0.00  0.00    +0.000 F 
ENDBRANCH   5  11
BRANCH   1  19
ATOM     18  C   UNL     1       1.180  12.046  18.898  0.00  0.00    +0.000 C 
ATOM     19  O   UNL     1       0.306  10.920  18.921  0.00  0.00    +0.000 OA
ENDBRANCH   1  19
BRANCH   7  20
ATOM     20  O   UNL     1       2.469   5.356  21.246  0.00  0.00    +0.000 OA
ATOM     21  H   UNL     1       3.381   5.266  21.580  0.00  0.00    +0.000 HD
ENDBRANCH   7  20
BRANCH  10  22
ATOM     22  O   UNL     1      -0.310   9.787  21.250  0.00  0.00    +0.000 OA
ATOM     23  C   UNL     1      -0.121   9.639  22.654  0.00  0.00    +0.000 C 
ENDBRANCH  10  22
TORSDOF 4
ENDMDL
MODEL 3
REMARK VINA RESULT:      -7.1      2.839      3.745
REMARK  Name = 
REMARK  6 active torsions:
REMARK  status: ('A' for Active; 'I' for Inactive)
REMARK    1  A    between atoms: C_1  and  O_2
REMARK    2  A    between atoms: O_2  and  C_3
REMARK    3  A    between atoms: C_7  and  C_8
REMARK    4  A    between atoms: C_16  and  O_17
REMARK    5  A    between atoms: C_20  and  O_21
REMARK    6  A    between atoms: O_21  and  C_22
REMARK                            x       y       z     vdW  Elec       q    Type
REMARK                         _______ _______ _______ _____ _____    ______ ____
ROOT
ATOM      1  C   UNL     1       0.640   9.917  21.933  0.00  0.00    +0.000 A 
ATOM      2  C   UNL     1       1.097   8.620  21.655  0.00  0.00    +0.000 A 
ATOM      3  C   UNL     1       1.547   8.255  20.395  0.00  0.00    +0.000 A 
ATOM      4  N   UNL     1       1.978   7.003  20.187  0.00  0.00    +0.000 NA
ATOM      5  C   UNL     1       2.398   6.681  18.947  0.00  0.00    +0.000 A 
ATOM      6  N   UNL     1       2.449   7.540  17.918  0.00  0.00    +0.000 NA
ATOM      7  C   UNL     1       2.011   8.772  18.176  0.00  0.00    +0.000 A 
ATOM      8  C   UNL     1       1.533   9.221  19.393  0.00  0.00    +0.000 A 
ATOM      9  C   UNL     1       1.054  10.527  19.640  0.00  0.00    +0.000 A 
ATOM     10  C   UNL     1       0.582  10.871  20.904  0.00  0.00    +0.000 A 
ENDROOT
BRANCH   5  11
ATOM     11  C   UNL     1       2.856   5.305  18.717  0.00  0.00    +0.000 A 
ATOM     12  C   UNL     1       4.028   4.809  19.322  0.00  0.00    +0.000 A 
ATOM     13  C   UNL     1       4.481   3.507  19.075  0.00  0.00    +0.000 A 
ATOM     14  C   UNL     1       3.765   2.669  18.226  0.00  0.00    +0.000 A 
ATOM     15  C   UNL     1       2.594   3.129  17.632  0.00  0.00    +0.000 A 
ATOM     16  C   UNL     1       2.151   4.429  17.880  0.00  0.00    +0.000 A 
ATOM     17  F   UNL     1       0.999   4.805  17.301  0.00  0.00    +0.000 F 
ENDBRANCH   5  11
BRANCH   1  19
ATOM     18  C   UNL     1      -1.223  10.487  23.274  0.00  0.00    +0.000 C 
ATOM     19  O   UNL     1       0.186  10.301  23.171  0.00  0.00    +0.000 OA
ENDBRANCH   1  19
BRANCH   7  20
ATOM     20  O   UNL     1       2.064   9.586  17.088  0.00  0.00    +0.000 OA
ATOM     21  H   UNL     1       2.262   8.930  16.395  0.00  0.00    +0.000 HD
ENDBRANCH   7  20
BRANCH  10  22
ATOM     22  O   UNL     1       0.101  12.115  21.224  0.00  0.00    +0.000 OA
ATOM     23  C   UNL     1       0.826  13.221  20.696  0.00  0.00    +0.000 C 
ENDBRANCH  10  22
TORSDOF 4
ENDMDL
MODEL 4
REMARK VINA RESULT:      -7.0      2.580      3.497
REMARK  Name = 
REMARK  6 active torsions:
REMARK  status: ('A' for Active; 'I' for Inactive)
REMARK    1  A    between atoms: C_1  and  O_2
REMARK    2  A    between atoms: O_2  and  C_3
REMARK    3  A    between atoms: C_7  and  C_8
REMARK    4  A    between atoms: C_16  and  O_17
REMARK    5  A    between atoms: C_20  and  O_21
REMARK    6  A    between atoms: O_21  and  C_22
REMARK                            x       y       z     vdW  Elec       q    Type
REMARK                         _______ _______ _______ _____ _____    ______ ____
ROOT
ATOM      1  C   UNL     1       0.661   9.883  21.947  0.00  0.00    +0.000 A 
ATOM      2  C   UNL     1       1.090   8.587  21.623  0.00  0.00    +0.000 A 
ATOM      3  C   UNL     1       1.536   8.259  20.352  0.00  0.00    +0.000 A 
ATOM      4  N   UNL     1       1.939   7.005  20.099  0.00  0.00    +0.000 NA
ATOM      5  C   UNL     1       2.357   6.720  18.849  0.00  0.00    +0.000 A 
ATOM      6  N   UNL     1       2.431   7.615  17.853  0.00  0.00    +0.000 NA
ATOM      7  C   UNL     1       2.021   8.846  18.155  0.00  0.00    +0.000 A 
ATOM      8  C   UNL     1       1.548   9.261  19.387  0.00  0.00    +0.000 A 
ATOM      9  C   UNL     1       1.099  10.567  19.680  0.00  0.00    +0.000 A 
ATOM     10  C   UNL     1       0.630  10.875  20.955  0.00  0.00    +0.000 A 
ENDROOT
BRANCH   5  11
ATOM     11  C   UNL     1       2.784   5.343  18.569  0.00  0.00    +0.000 A 
ATOM     12  C   UNL     1       1.985   4.465  17.810  0.00  0.00    +0.000 A 
ATOM     13  C   UNL     1       2.380   3.143  17.571  0.00  0.00    +0.000 A 
ATOM     14  C   UNL     1       3.589   2.674  18.077  0.00  0.00    +0.000 A 
ATOM     15  C   UNL     1       4.405   3.528  18.811  0.00  0.00    +0.000 A 
ATOM     16  C   UNL     1       4.003   4.843  19.049  0.00  0.00    +0.000 A 
ATOM     17  F   UNL     1       4.846   5.627  19.739  0.00  0.00    +0.000 F 
ENDBRANCH   5  11
BRANCH   1  19
ATOM     18  C   UNL     1      -1.201  10.367  23.322  0.00  0.00    +0.000 C 
ATOM     19  O   UNL     1       0.212  10.230  23.198  0.00  0.00    +0.000 OA
ENDBRANCH   1  19
BRANCH   7  20
ATOM     20  O   UNL     1       2.097   9.699  17.098  0.00  0.00    +0.000 OA
ATOM     21  H   UNL     1       1.767  10.516  17.516  0.00  0.00    +0.000 HD
ENDBRANCH   7  20
BRANCH  10  22
ATOM     22  O   UNL     1       0.176  12.117  21.319  0.00  0.00    +0.000 OA
ATOM     23  C   UNL     1       0.821  13.226  20.699  0.00  0.00    +0.000 C 
ENDBRANCH  10  22
TORSDOF 4
ENDMDL
MODEL 5
REMARK VINA RESULT:      -7.0      2.647      7.385
REMARK  Name = 
REMARK  6 active torsions:
REMARK  status: ('A' for Active; 'I' for Inactive)
REMARK    1  A    between atoms: C_1  and  O_2
REMARK    2  A    between atoms: O_2  and  C_3
REMARK    3  A    between atoms: C_7  and  C_8
REMARK    4  A    between atoms: C_16  and  O_17
REMARK    5  A    between atoms: C_20  and  O_21
REMARK    6  A    between atoms: O_21  and  C_22
REMARK                            x       y       z     vdW  Elec       q    Type
REMARK                         _______ _______ _______ _____ _____    ______ ____
ROOT
ATOM      1  C   UNL     1       2.943   4.335  19.911  0.00  0.00    +0.000 A 
ATOM      2  C   UNL     1       2.269   5.312  20.659  0.00  0.00    +0.000 A 
ATOM      3  C   UNL     1       2.029   6.582  20.157  0.00  0.00    +0.000 A 
ATOM      4  N   UNL     1       1.375   7.475  20.914  0.00  0.00    +0.000 NA
ATOM      5  C   UNL     1       1.168   8.703  20.397  0.00  0.00    +0.000 A 
ATOM      6  N   UNL     1       1.539   9.079  19.164  0.00  0.00    +0.000 NA
ATOM      7  C   UNL     1       2.184   8.155  18.452  0.00  0.00    +0.000 A 
ATOM      8  C   UNL     1       2.480   6.872  18.873  0.00  0.00    +0.000 A 
ATOM      9  C   UNL     1       3.183   5.914  18.109  0.00  0.00    +0.000 A 
ATOM     10  C   UNL     1       3.439   4.651  18.636  0.00  0.00    +0.000 A 
ENDROOT
BRANCH   5  11
ATOM     11  C   UNL     1       0.465   9.686  21.232  0.00  0.00    +0.000 A 
ATOM     12  C   UNL     1      -0.233   9.299  22.394  0.00  0.00    +0.000 A 
ATOM     13  C   UNL     1      -0.930  10.234  23.170  0.00  0.00    +0.000 A 
ATOM     14  C   UNL     1      -0.935  11.577  22.807  0.00  0.00    +0.000 A 
ATOM     15  C   UNL     1      -0.236  11.987  21.676  0.00  0.00    +0.000 A 
ATOM     16  C   UNL     1       0.453  11.050  20.905  0.00  0.00    +0.000 A 
ATOM     17  F   UNL     1       1.132  11.509  19.842  0.00  0.00    +0.000 F 
ENDBRANCH   5  11
BRANCH   1  19
ATOM     18  C   UNL     1       2.456   2.696  21.546  0.00  0.00    +0.000 C 
ATOM     19  O   UNL     1       3.197   3.072  20.388  0.00  0.00    +0.000 OA
ENDBRANCH   1  19
BRANCH   7  20
ATOM     20  O   UNL     1       2.555   8.605  17.223  0.00  0.00    +0.000 OA
ATOM     21  H   UNL     1       3.110   9.364  17.481  0.00  0.00    +0.000 HD
ENDBRANCH   7  20
BRANCH  10  22
ATOM     22  O   UNL     1       4.114   3.667  17.960  0.00  0.00    +0.000 OA
ATOM     23  C   UNL     1       4.672   4.041  16.704  0.00  0.00    +0.000 C 
ENDBRANCH  10  22
TORSDOF 4
ENDMDL
MODEL 6
REMARK VINA RESULT:      -7.0      4.452      7.598
REMARK  Name = 
REMARK  6 active torsions:
REMARK  status: ('A' for Active; 'I' for Inactive)
REMARK    1  A    between atoms: C_1  and  O_2
REMARK    2  A    between atoms: O_2  and  C_3
REMARK    3  A    between atoms: C_7  and  C_8
REMARK    4  A    between atoms: C_16  and  O_17
REMARK    5  A    between atoms: C_20  and  O_21
REMARK    6  A    between atoms: O_21  and  C_22
REMARK                            x       y       z     vdW  Elec       q    Type
REMARK                         _______ _______ _______ _____ _____    ______ ____
ROOT
ATOM      1  C   UNL     1       6.288   4.039  14.134  0.00  0.00    +0.000 A 
ATOM      2  C   UNL     1       5.287   3.679  15.049  0.00  0.00    +0.000 A 
ATOM      3  C   UNL     1       5.276   4.160  16.350  0.00  0.00    +0.000 A 
ATOM      4  N   UNL     1       4.293   3.787  17.181  0.00  0.00    +0.000 NA
ATOM      5  C   UNL     1       4.320   4.267  18.441  0.00  0.00    +0.000 A 
ATOM      6  N   UNL     1       5.244   5.121  18.907  0.00  0.00    +0.000 NA
ATOM      7  C   UNL     1       6.198   5.462  18.042  0.00  0.00    +0.000 A 
ATOM      8  C   UNL     1       6.298   5.022  16.735  0.00  0.00    +0.000 A 
ATOM      9  C   UNL     1       7.331   5.381  15.840  0.00  0.00    +0.000 A 
ATOM     10  C   UNL     1       7.343   4.869  14.545  0.00  0.00    +0.000 A 
ENDROOT
BRANCH   5  11
ATOM     11  C   UNL     1       3.250   3.846  19.355  0.00  0.00    +0.000 A 
ATOM     12  C   UNL     1       1.955   4.395  19.273  0.00  0.00    +0.000 A 
ATOM     13  C   UNL     1       0.945   4.016  20.167  0.00  0.00    +0.000 A 
ATOM     14  C   UNL     1       1.207   3.072  21.156  0.00  0.00    +0.000 A 
ATOM     15  C   UNL     1       2.472   2.501  21.244  0.00  0.00    +0.000 A 
ATOM     16  C   UNL     1       3.474   2.886  20.352  0.00  0.00    +0.000 A 
ATOM     17  F   UNL     1       4.666   2.279  20.469  0.00  0.00    +0.000 F 
ENDBRANCH   5  11
BRANCH   1  19
ATOM     18  C   UNL     1       5.051   3.404  12.220  0.00  0.00    +0.000 C 
ATOM     19  O   UNL     1       6.322   3.572  12.842  0.00  0.00    +0.000 OA
ENDBRANCH   1  19
BRANCH   7  20
ATOM     20  O   UNL     1       7.117   6.308  18.580  0.00  0.00    +0.000 OA
ATOM     21  H   UNL     1       6.811   7.153  18.202  0.00  0.00    +0.000 HD
ENDBRANCH   7  20
BRANCH  10  22
ATOM     22  O   UNL     1       8.308   5.167  13.617  0.00  0.00    +0.000 OA
ATOM     23  C   UNL     1       7.872   5.888  12.469  0.00  0.00    +0.000 C 
ENDBRANCH  10  22
TORSDOF 4
ENDMDL
MODEL 7
REMARK VINA RESULT:      -7.0      4.261      5.057
REMARK  Name = 
REMARK  6 active torsions:
REMARK  status: ('A' for Active; 'I' for Inactive)
REMARK    1  A    between atoms: C_1  and  O_2
REMARK    2  A    between atoms: O_2  and  C_3
REMARK    3  A    between atoms: C_7  and  C_8
REMARK    4  A    between atoms: C_16  and  O_17
REMARK    5  A    between atoms: C_20  and  O_21
REMARK    6  A    between atoms: O_21  and  C_22
REMARK                            x       y       z     vdW  Elec       q    Type
REMARK                         _______ _______ _______ _____ _____    ______ ____
ROOT
ATOM      1  C   UNL     1       2.191   3.819  18.780  0.00  0.00    +0.000 A 
ATOM      2  C   UNL     1       2.715   3.825  17.478  0.00  0.00    +0.000 A 
ATOM      3  C   UNL     1       4.058   4.064  17.230  0.00  0.00    +0.000 A 
ATOM      4  N   UNL     1       4.506   4.053  15.966  0.00  0.00    +0.000 NA
ATOM      5  C   UNL     1       5.816   4.300  15.762  0.00  0.00    +0.000 A 
ATOM      6  N   UNL     1       6.707   4.519  16.740  0.00  0.00    +0.000 NA
ATOM      7  C   UNL     1       6.213   4.518  17.978  0.00  0.00    +0.000 A 
ATOM      8  C   UNL     1       4.890   4.304  18.319  0.00  0.00    +0.000 A 
ATOM      9  C   UNL     1       4.383   4.329  19.637  0.00  0.00    +0.000 A 
ATOM     10  C   UNL     1       3.027   4.112  19.869  0.00  0.00    +0.000 A 
ENDROOT
BRANCH   5  11
ATOM     11  C   UNL     1       6.303   4.301  14.377  0.00  0.00    +0.000 A 
ATOM     12  C   UNL     1       5.705   3.497  13.386  0.00  0.00    +0.000 A 
ATOM     13  C   UNL     1       6.192   3.476  12.073  0.00  0.00    +0.000 A 
ATOM     14  C   UNL     1       7.281   4.268  11.720  0.00  0.00    +0.000 A 
ATOM     15  C   UNL     1       7.875   5.085  12.675  0.00  0.00    +0.000 A 
ATOM     16  C   UNL     1       7.387   5.099  13.983  0.00  0.00    +0.000 A 
ATOM     17  F   UNL     1       7.983   5.929  14.852  0.00  0.00    +0.000 F 
ENDBRANCH   5  11
BRANCH   1  19
ATOM     18  C   UNL     1       0.417   2.255  18.824  0.00  0.00    +0.000 C 
ATOM     19  O   UNL     1       0.864   3.589  19.050  0.00  0.00    +0.000 OA
ENDBRANCH   1  19
BRANCH   7  20
ATOM     20  O   UNL     1       7.159   4.771  18.921  0.00  0.00    +0.000 OA
ATOM     21  H   UNL     1       7.966   4.618  18.396  0.00  0.00    +0.000 HD
ENDBRANCH   7  20
BRANCH  10  22
ATOM     22  O   UNL     1       2.457   4.120  21.117  0.00  0.00    +0.000 OA
ATOM     23  C   UNL     1       2.450   2.875  21.809  0.00  0.00    +0.000 C 
ENDBRANCH  10  22
TORSDOF 4
ENDMDL
MODEL 8
REMARK VINA RESULT:      -6.9      3.016      4.159
REMARK  Name = 
REMARK  6 active torsions:
REMARK  status: ('A' for Active; 'I' for Inactive)
REMARK    1  A    between atoms: C_1  and  O_2
REMARK    2  A    between atoms: O_2  and  C_3
REMARK    3  A    between atoms: C_7  and  C_8
REMARK    4  A    between atoms: C_16  and  O_17
REMARK    5  A    between atoms: C_20  and  O_21
REMARK    6  A    between atoms: O_21  and  C_22
REMARK                            x       y       z     vdW  Elec       q    Type
REMARK                         _______ _______ _______ _____ _____    ______ ____
ROOT
ATOM      1  C   UNL     1       0.460  10.433  21.717  0.00  0.00    +0.000 A 
ATOM      2  C   UNL     1       0.889   9.098  21.757  0.00  0.00    +0.000 A 
ATOM      3  C   UNL     1       1.394   8.456  20.636  0.00  0.00    +0.000 A 
ATOM      4  N   UNL     1       1.794   7.180  20.732  0.00  0.00    +0.000 NA
ATOM      5  C   UNL     1       2.270   6.586  19.620  0.00  0.00    +0.000 A 
ATOM      6  N   UNL     1       2.404   7.196  18.433  0.00  0.00    +0.000 NA
ATOM      7  C   UNL     1       1.993   8.464  18.389  0.00  0.00    +0.000 A 
ATOM      8  C   UNL     1       1.465   9.178  19.448  0.00  0.00    +0.000 A 
ATOM      9  C   UNL     1       1.017  10.516  19.375  0.00  0.00    +0.000 A 
ATOM     10  C   UNL     1       0.489  11.139  20.503  0.00  0.00    +0.000 A 
ENDROOT
BRANCH   5  11
ATOM     11  C   UNL     1       2.695   5.184  19.723  0.00  0.00    +0.000 A 
ATOM     12  C   UNL     1       4.015   4.792  19.426  0.00  0.00    +0.000 A 
ATOM     13  C   UNL     1       4.410   3.450  19.494  0.00  0.00    +0.000 A 
ATOM     14  C   UNL     1       3.495   2.472  19.870  0.00  0.00    +0.000 A 
ATOM     15  C   UNL     1       2.190   2.836  20.188  0.00  0.00    +0.000 A 
ATOM     16  C   UNL     1       1.803   4.175  20.115  0.00  0.00    +0.000 A 
ATOM     17  F   UNL     1       0.539   4.468  20.460  0.00  0.00    +0.000 F 
ENDBRANCH   5  11
BRANCH   1  19
ATOM     18  C   UNL     1      -1.385  10.746  23.164  0.00  0.00    +0.000 C 
ATOM     19  O   UNL     1      -0.046  11.089  22.813  0.00  0.00    +0.000 OA
ENDBRANCH   1  19
BRANCH   7  20
ATOM     20  O   UNL     1       2.131   9.017  17.155  0.00  0.00    +0.000 OA
ATOM     21  H   UNL     1       1.665   8.351  16.617  0.00  0.00    +0.000 HD
ENDBRANCH   7  20
BRANCH  10  22
ATOM     22  O   UNL     1       0.033  12.432  20.515  0.00  0.00    +0.000 OA
ATOM     23  C   UNL     1      -1.106  12.701  19.703  0.00  0.00    +0.000 C 
ENDBRANCH  10  22
TORSDOF 4
ENDMDL
MODEL 9
REMARK VINA RESULT:      -6.9      2.902      7.532
REMARK  Name = 
REMARK  6 active torsions:
REMARK  status: ('A' for Active; 'I' for Inactive)
REMARK    1  A    between atoms: C_1  and  O_2
REMARK    2  A    between atoms: O_2  and  C_3
REMARK    3  A    between atoms: C_7  and  C_8
REMARK    4  A    between atoms: C_16  and  O_17
REMARK    5  A    between atoms: C_20  and  O_21
REMARK    6  A    between atoms: O_21  and  C_22
REMARK                            x       y       z     vdW  Elec       q    Type
REMARK                         _______ _______ _______ _____ _____    ______ ____
ROOT
ATOM      1  C   UNL     1       2.696   4.570  20.095  0.00  0.00    +0.000 A 
ATOM      2  C   UNL     1       2.045   5.596  20.797  0.00  0.00    +0.000 A 
ATOM      3  C   UNL     1       1.849   6.852  20.245  0.00  0.00    +0.000 A 
ATOM      4  N   UNL     1       1.215   7.794  20.960  0.00  0.00    +0.000 NA
ATOM      5  C   UNL     1       1.052   9.007  20.394  0.00  0.00    +0.000 A 
ATOM      6  N   UNL     1       1.447   9.323  19.152  0.00  0.00    +0.000 NA
ATOM      7  C   UNL     1       2.069   8.353  18.483  0.00  0.00    +0.000 A 
ATOM      8  C   UNL     1       2.322   7.079  18.956  0.00  0.00    +0.000 A 
ATOM      9  C   UNL     1       3.002   6.071  18.237  0.00  0.00    +0.000 A 
ATOM     10  C   UNL     1       3.214   4.822  18.815  0.00  0.00    +0.000 A 
ENDROOT
BRANCH   5  11
ATOM     11  C   UNL     1       0.371  10.042  21.183  0.00  0.00    +0.000 A 
ATOM     12  C   UNL     1       0.556  11.412  20.912  0.00  0.00    +0.000 A 
ATOM     13  C   UNL     1      -0.070  12.398  21.686  0.00  0.00    +0.000 A 
ATOM     14  C   UNL     1      -0.902  12.034  22.740  0.00  0.00    +0.000 A 
ATOM     15  C   UNL     1      -1.117  10.688  23.013  0.00  0.00    +0.000 A 
ATOM     16  C   UNL     1      -0.487   9.710  22.241  0.00  0.00    +0.000 A 
ATOM     17  F   UNL     1      -0.756   8.428  22.535  0.00  0.00    +0.000 F 
ENDBRANCH   5  11
BRANCH   1  19
ATOM     18  C   UNL     1       1.901   2.861  21.524  0.00  0.00    +0.000 C 
ATOM     19  O   UNL     1       2.905   3.319  20.623  0.00  0.00    +0.000 OA
ENDBRANCH   1  19
BRANCH   7  20
ATOM     20  O   UNL     1       2.467   8.743  17.242  0.00  0.00    +0.000 OA
ATOM     21  H   UNL     1       2.122   8.000  16.712  0.00  0.00    +0.000 HD
ENDBRANCH   7  20
BRANCH  10  22
ATOM     22  O   UNL     1       3.865   3.792  18.184  0.00  0.00    +0.000 OA
ATOM     23  C   UNL     1       4.472   4.108  16.935  0.00  0.00    +0.000 C 
ENDBRANCH  10  22
TORSDOF 4
ENDMDL
