MODEL 1
REMARK VINA RESULT:      -7.4      0.000      0.000
REMARK  Name = 
REMARK  5 active torsions:
REMARK  status: ('A' for Active; 'I' for Inactive)
REMARK    1  A    between atoms: C_2  and  C_3
REMARK    2  A    between atoms: C_3  and  C_4
REMARK    3  A    between atoms: N_10  and  C_11
REMARK    4  A    between atoms: C_11  and  C_12
REMARK    5  A    between atoms: C_14  and  N_15
REMARK                            x       y       z     vdW  Elec       q    Type
REMARK                         _______ _______ _______ _____ _____    ______ ____
ROOT
ATOM      1  C   UNL     1       7.810   7.265  18.101  0.00  0.00    +0.000 C 
ENDROOT
BRANCH   1   2
ATOM      2  C   UNL     1       6.907   6.410  17.243  0.00  0.00    +0.000 A 
ATOM      3  C   UNL     1       5.657   6.043  17.703  0.00  0.00    +0.000 A 
ATOM      4  C   UNL     1       4.892   5.183  16.928  0.00  0.00    +0.000 A 
ATOM      5  N   UNL     1       5.355   4.733  15.751  0.00  0.00    +0.000 NA
ATOM      6  C   UNL     1       6.561   5.183  15.360  0.00  0.00    +0.000 A 
ATOM      7  N   UNL     1       7.371   6.008  16.043  0.00  0.00    +0.000 NA
BRANCH   4   8
ATOM      8  N   UNL     1       3.678   4.730  17.411  0.00  0.00    +0.000 N 
ATOM      9  C   UNL     1       2.773   5.636  18.129  0.00  0.00    +0.000 C 
ATOM     10  C   UNL     1       2.664   5.278  19.618  0.00  0.00    +0.000 C 
ATOM     11  O   UNL     1       2.359   3.887  19.812  0.00  0.00    +0.000 OA
ATOM     12  C   UNL     1       3.393   3.073  19.229  0.00  0.00    +0.000 C 
ATOM     13  C   UNL     1       3.502   3.304  17.714  0.00  0.00    +0.000 C 
ENDBRANCH   4   8
ENDBRANCH   1   2
BRANCH   1  16
ATOM     14  O   UNL     1       9.165   9.387  19.398  0.00  0.00    +0.000 OA
ATOM     15  C   UNL     1       8.566   9.609  18.345  0.00  0.00    +0.000 C 
ATOM     16  N   UNL     1       7.886   8.640  17.647  0.00  0.00    +0.000 N 
ATOM     17  H   UNL     1       7.231   8.917  16.929  0.00  0.00    +0.000 HD
BRANCH  15  18
ATOM     18  C   UNL     1       8.536  10.989  17.704  0.00  0.00    +0.000 C 
BRANCH  18  19
ATOM     19  C   UNL     1       9.634  11.896  18.181  0.00  0.00    +0.000 A 
ATOM     20  C   UNL     1      10.946  11.760  17.717  0.00  0.00    +0.000 A 
ATOM     21  C   UNL     1      11.942  12.607  18.195  0.00  0.00    +0.000 A 
ATOM     22  C   UNL     1      11.593  13.564  19.133  0.00  0.00    +0.000 A 
ATOM     23  N   UNL     1      10.342  13.720  19.614  0.00  0.00    +0.000 NA
ATOM     24  C   UNL     1       9.394  12.882  19.134  0.00  0.00    +0.000 A 
ENDBRANCH  18  19
ENDBRANCH  15  18
ENDBRANCH   1  16
TORSDOF 5
ENDMDL
MODEL 2
REMARK VINA RESULT:      -7.4      0.770      1.340
REMARK  Name = 
REMARK  5 active torsions:
REMARK  status: ('A' for Active; 'I' for Inactive)
REMARK    1  A    between atoms: C_2  and  C_3
REMARK    2  A    between atoms: C_3  and  C_4
REMARK    3  A    between atoms: N_10  and  C_11
REMARK    4  A    between atoms: C_11  and  C_12
REMARK    5  A    between atoms: C_14  and  N_15
REMARK                            x       y       z     vdW  Elec       q    Type
REMARK                         _______ _______ _______ _____ _____    ______ ____
ROOT
ATOM      1  C   UNL     1       7.937   7.285  18.215  0.00  0.00    +0.000 C 
ENDROOT
BRANCH   1   2
ATOM      2  C   UNL     1       6.925   6.412  17.510  0.00  0.00    +0.000 A 
ATOM      3  C   UNL     1       5.873   5.859  18.217  0.00  0.00    +0.000 A 
ATOM      4  C   UNL     1       5.016   4.991  17.557  0.00  0.00    +0.000 A 
ATOM      5  N   UNL     1       5.200   4.709  16.258  0.00  0.00    +0.000 NA
ATOM      6  C   UNL     1       6.218   5.332  15.638  0.00  0.00    +0.000 A 
ATOM      7  N   UNL     1       7.099   6.179  16.194  0.00  0.00    +0.000 NA
BRANCH   4   8
ATOM      8  N   UNL     1       4.013   4.356  18.266  0.00  0.00    +0.000 N 
ATOM      9  C   UNL     1       3.935   2.891  18.302  0.00  0.00    +0.000 C 
ATOM     10  C   UNL     1       2.717   2.360  17.533  0.00  0.00    +0.000 C 
ATOM     11  O   UNL     1       1.502   3.012  17.941  0.00  0.00    +0.000 OA
ATOM     12  C   UNL     1       1.602   4.427  17.703  0.00  0.00    +0.000 C 
ATOM     13  C   UNL     1       2.746   5.054  18.517  0.00  0.00    +0.000 C 
ENDBRANCH   4   8
ENDBRANCH   1   2
BRANCH   1  16
ATOM     14  O   UNL     1       9.286   9.481  19.388  0.00  0.00    +0.000 OA
ATOM     15  C   UNL     1       8.634   9.655  18.358  0.00  0.00    +0.000 C 
ATOM     16  N   UNL     1       7.953   8.647  17.719  0.00  0.00    +0.000 N 
ATOM     17  H   UNL     1       7.259   8.884  17.024  0.00  0.00    +0.000 HD
BRANCH  15  18
ATOM     18  C   UNL     1       8.535  11.013  17.680  0.00  0.00    +0.000 C 
BRANCH  18  19
ATOM     19  C   UNL     1       9.571  11.995  18.149  0.00  0.00    +0.000 A 
ATOM     20  C   UNL     1      10.865  12.000  17.619  0.00  0.00    +0.000 A 
ATOM     21  C   UNL     1      11.804  12.912  18.091  0.00  0.00    +0.000 A 
ATOM     22  C   UNL     1      11.419  13.791  19.090  0.00  0.00    +0.000 A 
ATOM     23  N   UNL     1      10.185  13.810  19.636  0.00  0.00    +0.000 NA
ATOM     24  C   UNL     1       9.292  12.911  19.159  0.00  0.00    +0.000 A 
ENDBRANCH  18  19
ENDBRANCH  15  18
ENDBRANCH   1  16
TORSDOF 5
ENDMDL
MODEL 3
REMARK VINA RESULT:      -7.3      1.033      1.454
REMARK  Name = 
REMARK  5 active torsions:
REMARK  status: ('A' for Active; 'I' for Inactive)
REMARK    1  A    between atoms: C_2  and  C_3
REMARK    2  A    between atoms: C_3  and  C_4
REMARK    3  A    between atoms: N_10  and  C_11
REMARK    4  A    between atoms: C_11  and  C_12
REMARK    5  A    between atoms: C_14  and  N_15
REMARK                            x       y       z     vdW  Elec       q    Type
REMARK                         _______ _______ _______ _____ _____    ______ ____
ROOT
ATOM      1  C   UNL     1       7.998   7.297  18.201  0.00  0.00    +0.000 C 
ENDROOT
BRANCH   1   2
ATOM      2  C   UNL     1       7.032   6.401  17.462  0.00  0.00    +0.000 A 
ATOM      3  C   UNL     1       5.911   5.911  18.104  0.00  0.00    +0.000 A 
ATOM      4  C   UNL     1       5.094   5.019  17.424  0.00  0.00    +0.000 A 
ATOM      5  N   UNL     1       5.384   4.656  16.164  0.00  0.00    +0.000 NA
ATOM      6  C   UNL     1       6.466   5.223  15.601  0.00  0.00    +0.000 A 
ATOM      7  N   UNL     1       7.314   6.086  16.182  0.00  0.00    +0.000 NA
BRANCH   4   8
ATOM      8  N   UNL     1       4.019   4.446  18.077  0.00  0.00    +0.000 N 
ATOM      9  C   UNL     1       4.086   4.154  19.514  0.00  0.00    +0.000 C 
ATOM     10  C   UNL     1       4.119   2.644  19.794  0.00  0.00    +0.000 C 
ATOM     11  O   UNL     1       3.057   1.953  19.114  0.00  0.00    +0.000 OA
ATOM     12  C   UNL     1       3.175   2.149  17.694  0.00  0.00    +0.000 C 
ATOM     13  C   UNL     1       3.056   3.635  17.321  0.00  0.00    +0.000 C 
ENDBRANCH   4   8
ENDBRANCH   1   2
BRANCH   1  16
ATOM     14  O   UNL     1       9.225   9.529  19.439  0.00  0.00    +0.000 OA
ATOM     15  C   UNL     1       8.615   9.687  18.381  0.00  0.00    +0.000 C 
ATOM     16  N   UNL     1       7.995   8.661  17.709  0.00  0.00    +0.000 N 
ATOM     17  H   UNL     1       7.326   8.879  16.984  0.00  0.00    +0.000 HD
BRANCH  15  18
ATOM     18  C   UNL     1       8.505  11.044  17.703  0.00  0.00    +0.000 C 
BRANCH  18  19
ATOM     19  C   UNL     1       9.614  11.989  18.068  0.00  0.00    +0.000 A 
ATOM     20  C   UNL     1       9.376  13.131  18.838  0.00  0.00    +0.000 A 
ATOM     21  C   UNL     1      10.425  13.995  19.142  0.00  0.00    +0.000 A 
ATOM     22  C   UNL     1      11.686  13.689  18.656  0.00  0.00    +0.000 A 
ATOM     23  N   UNL     1      11.955  12.603  17.901  0.00  0.00    +0.000 NA
ATOM     24  C   UNL     1      10.916  11.783  17.619  0.00  0.00    +0.000 A 
ENDBRANCH  18  19
ENDBRANCH  15  18
ENDBRANCH   1  16
TORSDOF 5
ENDMDL
MODEL 4
REMARK VINA RESULT:      -7.3      0.978      1.603
REMARK  Name = 
REMARK  5 active torsions:
REMARK  status: ('A' for Active; 'I' for Inactive)
REMARK    1  A    between atoms: C_2  and  C_3
REMARK    2  A    between atoms: C_3  and  C_4
REMARK    3  A    between atoms: N_10  and  C_11
REMARK    4  A    between atoms: C_11  and  C_12
REMARK    5  A    between atoms: C_14  and  N_15
REMARK                            x       y       z     vdW  Elec       q    Type
REMARK                         _______ _______ _______ _____ _____    ______ ____
ROOT
ATOM      1  C   UNL     1       8.143   7.430  18.444  0.00  0.00    +0.000 C 
ENDROOT
BRANCH   1   2
ATOM      2  C   UNL     1       7.253   6.453  17.712  0.00  0.00    +0.000 A 
ATOM      3  C   UNL     1       6.234   5.805  18.384  0.00  0.00    +0.000 A 
ATOM      4  C   UNL     1       5.495   4.849  17.703  0.00  0.00    +0.000 A 
ATOM      5  N   UNL     1       5.759   4.574  16.415  0.00  0.00    +0.000 NA
ATOM      6  C   UNL     1       6.735   5.290  15.828  0.00  0.00    +0.000 A 
ATOM      7  N   UNL     1       7.503   6.227  16.407  0.00  0.00    +0.000 NA
BRANCH   4   8
ATOM      8  N   UNL     1       4.532   4.124  18.380  0.00  0.00    +0.000 N 
ATOM      9  C   UNL     1       3.825   3.020  17.720  0.00  0.00    +0.000 C 
ATOM     10  C   UNL     1       2.347   3.351  17.469  0.00  0.00    +0.000 C 
ATOM     11  O   UNL     1       1.695   3.821  18.661  0.00  0.00    +0.000 OA
ATOM     12  C   UNL     1       2.348   5.012  19.138  0.00  0.00    +0.000 C 
ATOM     13  C   UNL     1       3.815   4.739  19.505  0.00  0.00    +0.000 C 
ENDBRANCH   4   8
ENDBRANCH   1   2
BRANCH   1  16
ATOM     14  O   UNL     1       9.300   9.760  19.564  0.00  0.00    +0.000 OA
ATOM     15  C   UNL     1       8.696   9.842  18.494  0.00  0.00    +0.000 C 
ATOM     16  N   UNL     1       8.108   8.764  17.877  0.00  0.00    +0.000 N 
ATOM     17  H   UNL     1       7.440   8.923  17.136  0.00  0.00    +0.000 HD
BRANCH  15  18
ATOM     18  C   UNL     1       8.556  11.156  17.740  0.00  0.00    +0.000 C 
BRANCH  18  19
ATOM     19  C   UNL     1       9.650  12.140  18.041  0.00  0.00    +0.000 A 
ATOM     20  C   UNL     1       9.395  13.321  18.746  0.00  0.00    +0.000 A 
ATOM     21  C   UNL     1      10.430  14.219  18.991  0.00  0.00    +0.000 A 
ATOM     22  C   UNL     1      11.693  13.908  18.514  0.00  0.00    +0.000 A 
ATOM     23  N   UNL     1      11.977  12.786  17.821  0.00  0.00    +0.000 NA
ATOM     24  C   UNL     1      10.952  11.932  17.595  0.00  0.00    +0.000 A 
ENDBRANCH  18  19
ENDBRANCH  15  18
ENDBRANCH   1  16
TORSDOF 5
ENDMDL
MODEL 5
REMARK VINA RESULT:      -7.3      4.460      7.401
REMARK  Name = 
REMARK  5 active torsions:
REMARK  status: ('A' for Active; 'I' for Inactive)
REMARK    1  A    between atoms: C_2  and  C_3
REMARK    2  A    between atoms: C_3  and  C_4
REMARK    3  A    between atoms: N_10  and  C_11
REMARK    4  A    between atoms: C_11  and  C_12
REMARK    5  A    between atoms: C_14  and  N_15
REMARK                            x       y       z     vdW  Elec       q    Type
REMARK                         _______ _______ _______ _____ _____    ______ ____
ROOT
ATOM      1  C   UNL     1       2.260   6.052  20.254  0.00  0.00    +0.000 C 
ENDROOT
BRANCH   1   2
ATOM      2  C   UNL     1       3.291   4.992  19.942  0.00  0.00    +0.000 A 
ATOM      3  C   UNL     1       4.472   5.338  19.311  0.00  0.00    +0.000 A 
ATOM      4  C   UNL     1       5.355   4.328  18.959  0.00  0.00    +0.000 A 
ATOM      5  N   UNL     1       5.070   3.046  19.240  0.00  0.00    +0.000 NA
ATOM      6  C   UNL     1       3.923   2.809  19.902  0.00  0.00    +0.000 A 
ATOM      7  N   UNL     1       3.009   3.718  20.276  0.00  0.00    +0.000 NA
BRANCH   4   8
ATOM      8  N   UNL     1       6.497   4.640  18.247  0.00  0.00    +0.000 N 
ATOM      9  C   UNL     1       7.382   5.724  18.690  0.00  0.00    +0.000 C 
ATOM     10  C   UNL     1       7.344   6.925  17.735  0.00  0.00    +0.000 C 
ATOM     11  O   UNL     1       7.559   6.529  16.370  0.00  0.00    +0.000 OA
ATOM     12  C   UNL     1       6.539   5.600  15.964  0.00  0.00    +0.000 C 
ATOM     13  C   UNL     1       6.573   4.321  16.815  0.00  0.00    +0.000 C 
ENDBRANCH   4   8
ENDBRANCH   1   2
BRANCH   1  16
ATOM     14  O   UNL     1       1.273   8.677  20.652  0.00  0.00    +0.000 OA
ATOM     15  C   UNL     1       1.721   8.362  19.548  0.00  0.00    +0.000 C 
ATOM     16  N   UNL     1       2.223   7.114  19.267  0.00  0.00    +0.000 N 
ATOM     17  H   UNL     1       2.360   6.842  18.304  0.00  0.00    +0.000 HD
BRANCH  15  18
ATOM     18  C   UNL     1       1.775   9.341  18.385  0.00  0.00    +0.000 C 
BRANCH  18  19
ATOM     19  C   UNL     1       0.669  10.358  18.406  0.00  0.00    +0.000 A 
ATOM     20  C   UNL     1      -0.631  10.030  18.006  0.00  0.00    +0.000 A 
ATOM     21  C   UNL     1      -1.627  11.003  18.020  0.00  0.00    +0.000 A 
ATOM     22  C   UNL     1      -1.287  12.282  18.429  0.00  0.00    +0.000 A 
ATOM     23  N   UNL     1      -0.043  12.641  18.811  0.00  0.00    +0.000 NA
ATOM     24  C   UNL     1       0.906  11.676  18.786  0.00  0.00    +0.000 A 
ENDBRANCH  18  19
ENDBRANCH  15  18
ENDBRANCH   1  16
TORSDOF 5
ENDMDL
MODEL 6
REMARK VINA RESULT:      -7.2      5.036      7.944
REMARK  Name = 
REMARK  5 active torsions:
REMARK  status: ('A' for Active; 'I' for Inactive)
REMARK    1  A    between atoms: C_2  and  C_3
REMARK    2  A    between atoms: C_3  and  C_4
REMARK    3  A    between atoms: N_10  and  C_11
REMARK    4  A    between atoms: C_11  and  C_12
REMARK    5  A    between atoms: C_14  and  N_15
REMARK                            x       y       z     vdW  Elec       q    Type
REMARK                         _______ _______ _______ _____ _____    ______ ____
ROOT
ATOM      1  C   UNL     1       1.800   6.305  20.778  0.00  0.00    +0.000 C 
ENDROOT
BRANCH   1   2
ATOM      2  C   UNL     1       2.382   5.505  19.636  0.00  0.00    +0.000 A 
ATOM      3  C   UNL     1       3.578   5.889  19.060  0.00  0.00    +0.000 A 
ATOM      4  C   UNL     1       4.037   5.185  17.955  0.00  0.00    +0.000 A 
ATOM      5  N   UNL     1       3.337   4.146  17.471  0.00  0.00    +0.000 NA
ATOM      6  C   UNL     1       2.211   3.813  18.128  0.00  0.00    +0.000 A 
ATOM      7  N   UNL     1       1.689   4.436  19.196  0.00  0.00    +0.000 NA
BRANCH   4   8
ATOM      8  N   UNL     1       5.182   5.608  17.307  0.00  0.00    +0.000 N 
ATOM      9  C   UNL     1       5.356   5.378  15.868  0.00  0.00    +0.000 C 
ATOM     10  C   UNL     1       6.456   4.347  15.579  0.00  0.00    +0.000 C 
ATOM     11  O   UNL     1       7.680   4.667  16.262  0.00  0.00    +0.000 OA
ATOM     12  C   UNL     1       7.454   4.695  17.683  0.00  0.00    +0.000 C 
ATOM     13  C   UNL     1       6.429   5.774  18.067  0.00  0.00    +0.000 C 
ENDBRANCH   4   8
ENDBRANCH   1   2
BRANCH   1  16
ATOM     14  O   UNL     1      -0.195   8.132  21.618  0.00  0.00    +0.000 OA
ATOM     15  C   UNL     1       0.762   8.544  20.962  0.00  0.00    +0.000 C 
ATOM     16  N   UNL     1       1.777   7.731  20.517  0.00  0.00    +0.000 N 
ATOM     17  H   UNL     1       2.403   8.070  19.801  0.00  0.00    +0.000 HD
BRANCH  15  18
ATOM     18  C   UNL     1       0.921  10.011  20.593  0.00  0.00    +0.000 C 
BRANCH  18  19
ATOM     19  C   UNL     1      -0.234  10.559  19.802  0.00  0.00    +0.000 A 
ATOM     20  C   UNL     1      -0.512  10.106  18.508  0.00  0.00    +0.000 A 
ATOM     21  C   UNL     1      -1.579  10.649  17.798  0.00  0.00    +0.000 A 
ATOM     22  C   UNL     1      -2.334  11.640  18.406  0.00  0.00    +0.000 A 
ATOM     23  N   UNL     1      -2.090  12.112  19.646  0.00  0.00    +0.000 NA
ATOM     24  C   UNL     1      -1.046  11.567  20.313  0.00  0.00    +0.000 A 
ENDBRANCH  18  19
ENDBRANCH  15  18
ENDBRANCH   1  16
TORSDOF 5
ENDMDL
MODEL 7
REMARK VINA RESULT:      -7.2      5.466      7.843
REMARK  Name = 
REMARK  5 active torsions:
REMARK  status: ('A' for Active; 'I' for Inactive)
REMARK    1  A    between atoms: C_2  and  C_3
REMARK    2  A    between atoms: C_3  and  C_4
REMARK    3  A    between atoms: N_10  and  C_11
REMARK    4  A    between atoms: C_11  and  C_12
REMARK    5  A    between atoms: C_14  and  N_15
REMARK                            x       y       z     vdW  Elec       q    Type
REMARK                         _______ _______ _______ _____ _____    ______ ____
ROOT
ATOM      1  C   UNL     1       3.108   6.180  19.590  0.00  0.00    +0.000 C 
ENDROOT
BRANCH   1   2
ATOM      2  C   UNL     1       2.383   7.475  19.311  0.00  0.00    +0.000 A 
ATOM      3  C   UNL     1       1.473   7.972  20.226  0.00  0.00    +0.000 A 
ATOM      4  C   UNL     1       0.760   9.115  19.897  0.00  0.00    +0.000 A 
ATOM      5  N   UNL     1       0.963   9.729  18.720  0.00  0.00    +0.000 NA
ATOM      6  C   UNL     1       1.903   9.204  17.915  0.00  0.00    +0.000 A 
ATOM      7  N   UNL     1       2.636   8.104  18.146  0.00  0.00    +0.000 NA
BRANCH   4   8
ATOM      8  N   UNL     1      -0.219   9.577  20.757  0.00  0.00    +0.000 N 
ATOM      9  C   UNL     1      -0.625  10.988  20.741  0.00  0.00    +0.000 C 
ATOM     10  C   UNL     1      -0.191  11.725  22.016  0.00  0.00    +0.000 C 
ATOM     11  O   UNL     1      -0.597  11.023  23.203  0.00  0.00    +0.000 OA
ATOM     12  C   UNL     1      -0.008   9.711  23.221  0.00  0.00    +0.000 C 
ATOM     13  C   UNL     1      -0.470   8.871  22.020  0.00  0.00    +0.000 C 
ENDBRANCH   4   8
ENDBRANCH   1   2
BRANCH   1  16
ATOM     14  O   UNL     1       4.273   3.601  19.479  0.00  0.00    +0.000 OA
ATOM     15  C   UNL     1       3.927   4.150  18.433  0.00  0.00    +0.000 C 
ATOM     16  N   UNL     1       3.350   5.397  18.393  0.00  0.00    +0.000 N 
ATOM     17  H   UNL     1       3.300   5.890  17.512  0.00  0.00    +0.000 HD
BRANCH  15  18
ATOM     18  C   UNL     1       4.091   3.486  17.075  0.00  0.00    +0.000 C 
BRANCH  18  19
ATOM     19  C   UNL     1       5.251   4.020  16.283  0.00  0.00    +0.000 A 
ATOM     20  C   UNL     1       5.195   4.130  14.890  0.00  0.00    +0.000 A 
ATOM     21  C   UNL     1       6.296   4.612  14.188  0.00  0.00    +0.000 A 
ATOM     22  C   UNL     1       7.428   4.964  14.905  0.00  0.00    +0.000 A 
ATOM     23  N   UNL     1       7.525   4.863  16.247  0.00  0.00    +0.000 NA
ATOM     24  C   UNL     1       6.441   4.390  16.904  0.00  0.00    +0.000 A 
ENDBRANCH  18  19
ENDBRANCH  15  18
ENDBRANCH   1  16
TORSDOF 5
ENDMDL
MODEL 8
REMARK VINA RESULT:      -7.1      4.588      7.814
REMARK  Name = 
REMARK  5 active torsions:
REMARK  status: ('A' for Active; 'I' for Inactive)
REMARK    1  A    between atoms: C_2  and  C_3
REMARK    2  A    between atoms: C_3  and  C_4
REMARK    3  A    between atoms: N_10  and  C_11
REMARK    4  A    between atoms: C_11  and  C_12
REMARK    5  A    between atoms: C_14  and  N_15
REMARK                            x       y       z     vdW  Elec       q    Type
REMARK                         _______ _______ _______ _____ _____    ______ ____
ROOT
ATOM      1  C   UNL     1       2.046   6.211  19.514  0.00  0.00    +0.000 C 
ENDROOT
BRANCH   1   2
ATOM      2  C   UNL     1       3.186   5.220  19.542  0.00  0.00    +0.000 A 
ATOM      3  C   UNL     1       4.401   5.544  18.967  0.00  0.00    +0.000 A 
ATOM      4  C   UNL     1       5.396   4.578  18.931  0.00  0.00    +0.000 A 
ATOM      5  N   UNL     1       5.182   3.361  19.457  0.00  0.00    +0.000 NA
ATOM      6  C   UNL     1       3.988   3.152  20.041  0.00  0.00    +0.000 A 
ATOM      7  N   UNL     1       2.969   4.021  20.118  0.00  0.00    +0.000 NA
BRANCH   4   8
ATOM      8  N   UNL     1       6.585   4.849  18.280  0.00  0.00    +0.000 N 
ATOM      9  C   UNL     1       7.392   6.017  18.653  0.00  0.00    +0.000 C 
ATOM     10  C   UNL     1       7.397   7.088  17.553  0.00  0.00    +0.000 C 
ATOM     11  O   UNL     1       7.743   6.535  16.271  0.00  0.00    +0.000 OA
ATOM     12  C   UNL     1       6.792   5.519  15.905  0.00  0.00    +0.000 C 
ATOM     13  C   UNL     1       6.794   4.358  16.912  0.00  0.00    +0.000 C 
ENDBRANCH   4   8
ENDBRANCH   1   2
BRANCH   1  16
ATOM     14  O   UNL     1       1.016   8.839  19.742  0.00  0.00    +0.000 OA
ATOM     15  C   UNL     1       1.433   8.267  20.749  0.00  0.00    +0.000 C 
ATOM     16  N   UNL     1       1.945   6.991  20.732  0.00  0.00    +0.000 N 
ATOM     17  H   UNL     1       2.476   6.663  21.526  0.00  0.00    +0.000 HD
BRANCH  15  18
ATOM     18  C   UNL     1       1.404   8.918  22.123  0.00  0.00    +0.000 C 
BRANCH  18  19
ATOM     19  C   UNL     1       0.465  10.087  22.213  0.00  0.00    +0.000 A 
ATOM     20  C   UNL     1      -0.649  10.064  23.058  0.00  0.00    +0.000 A 
ATOM     21  C   UNL     1      -1.509  11.159  23.102  0.00  0.00    +0.000 A 
ATOM     22  C   UNL     1      -1.228  12.245  22.289  0.00  0.00    +0.000 A 
ATOM     23  N   UNL     1      -0.171  12.300  21.452  0.00  0.00    +0.000 NA
ATOM     24  C   UNL     1       0.647  11.222  21.428  0.00  0.00    +0.000 A 
ENDBRANCH  18  19
ENDBRANCH  15  18
ENDBRANCH   1  16
TORSDOF 5
ENDMDL
MODEL 9
REMARK VINA RESULT:      -7.1      1.585      2.013
REMARK  Name = 
REMARK  5 active torsions:
REMARK  status: ('A' for Active; 'I' for Inactive)
REMARK    1  A    between atoms: C_2  and  C_3
REMARK    2  A    between atoms: C_3  and  C_4
REMARK    3  A    between atoms: N_10  and  C_11
REMARK    4  A    between atoms: C_11  and  C_12
REMARK    5  A    between atoms: C_14  and  N_15
REMARK                            x       y       z     vdW  Elec       q    Type
REMARK                         _______ _______ _______ _____ _____    ______ ____
ROOT
ATOM      1  C   UNL     1       7.810   8.452  17.519  0.00  0.00    +0.000 C 
ENDROOT
BRANCH   1   2
ATOM      2  C   UNL     1       7.289   7.096  17.936  0.00  0.00    +0.000 A 
ATOM      3  C   UNL     1       6.113   6.609  17.396  0.00  0.00    +0.000 A 
ATOM      4  C   UNL     1       5.618   5.403  17.868  0.00  0.00    +0.000 A 
ATOM      5  N   UNL     1       6.278   4.721  18.818  0.00  0.00    +0.000 NA
ATOM      6  C   UNL     1       7.440   5.245  19.248  0.00  0.00    +0.000 A 
ATOM      7  N   UNL     1       7.991   6.404  18.855  0.00  0.00    +0.000 NA
BRANCH   4   8
ATOM      8  N   UNL     1       4.398   4.942  17.409  0.00  0.00    +0.000 N 
ATOM      9  C   UNL     1       3.145   5.526  17.899  0.00  0.00    +0.000 C 
ATOM     10  C   UNL     1       2.356   4.544  18.776  0.00  0.00    +0.000 C 
ATOM     11  O   UNL     1       2.183   3.271  18.130  0.00  0.00    +0.000 OA
ATOM     12  C   UNL     1       3.468   2.688  17.846  0.00  0.00    +0.000 C 
ATOM     13  C   UNL     1       4.286   3.572  16.891  0.00  0.00    +0.000 C 
ENDBRANCH   4   8
ENDBRANCH   1   2
BRANCH   1  16
ATOM     14  O   UNL     1       8.389  11.210  17.804  0.00  0.00    +0.000 OA
ATOM     15  C   UNL     1       8.918  10.402  18.568  0.00  0.00    +0.000 C 
ATOM     16  N   UNL     1       8.691   9.047  18.505  0.00  0.00    +0.000 N 
ATOM     17  H   UNL     1       9.316   8.419  18.992  0.00  0.00    +0.000 HD
BRANCH  15  18
ATOM     18  C   UNL     1       9.869  10.833  19.674  0.00  0.00    +0.000 C 
BRANCH  18  19
ATOM     19  C   UNL     1      10.742  11.994  19.295  0.00  0.00    +0.000 A 
ATOM     20  C   UNL     1      10.786  13.158  20.069  0.00  0.00    +0.000 A 
ATOM     21  C   UNL     1      11.593  14.222  19.676  0.00  0.00    +0.000 A 
ATOM     22  C   UNL     1      12.331  14.089  18.511  0.00  0.00    +0.000 A 
ATOM     23  N   UNL     1      12.307  12.989  17.731  0.00  0.00    +0.000 NA
ATOM     24  C   UNL     1      11.513  11.971  18.135  0.00  0.00    +0.000 A 
ENDBRANCH  18  19
ENDBRANCH  15  18
ENDBRANCH   1  16
TORSDOF 5
ENDMDL
