MODEL 1
REMARK VINA RESULT:      -6.8      0.000      0.000
REMARK  Name = 
REMARK  4 active torsions:
REMARK  status: ('A' for Active; 'I' for Inactive)
REMARK    1  A    between atoms: C_2  and  C_12
REMARK    2  A    between atoms: N_3  and  C_4
REMARK    3  A    between atoms: C_8  and  C_9
REMARK    4  A    between atoms: C_9  and  O_10
REMARK                            x       y       z     vdW  Elec       q    Type
REMARK                         _______ _______ _______ _____ _____    ______ ____
ROOT
ATOM      1  O   UNL     1       7.249   5.030  16.718  0.00  0.00    +0.000 OA
ATOM      2  C   UNL     1       6.363   4.852  15.887  0.00  0.00    +0.000 C 
ATOM      3  N   UNL     1       5.007   4.741  16.140  0.00  0.00    +0.000 N 
ATOM      4  H   UNL     1       4.429   4.495  15.347  0.00  0.00    +0.000 HD
ENDROOT
BRANCH   3   5
ATOM      5  C   UNL     1       4.397   4.801  17.414  0.00  0.00    +0.000 A 
ATOM      6  C   UNL     1       3.810   5.964  17.919  0.00  0.00    +0.000 A 
ATOM      7  C   UNL     1       3.269   5.996  19.205  0.00  0.00    +0.000 A 
ATOM      8  C   UNL     1       3.309   4.860  20.005  0.00  0.00    +0.000 A 
ATOM      9  C   UNL     1       3.862   3.668  19.516  0.00  0.00    +0.000 A 
ATOM     10  C   UNL     1       4.400   3.648  18.214  0.00  0.00    +0.000 A 
BRANCH   9  11
ATOM     11  C   UNL     1       3.961   2.479  20.437  0.00  0.00    +0.000 C 
BRANCH  11  12
ATOM     12  O   UNL     1       5.095   1.677  20.142  0.00  0.00    +0.000 OA
ATOM     13  H   UNL     1       4.977   1.357  19.229  0.00  0.00    +0.000 HD
ENDBRANCH  11  12
ENDBRANCH   9  11
ENDBRANCH   3   5
BRANCH   2  14
ATOM     14  C   UNL     1       6.710   4.669  14.431  0.00  0.00    +0.000 C 
ATOM     15  C   UNL     1       5.935   3.841  13.706  0.00  0.00    +0.000 C 
ATOM     16  C   UNL     1       6.177   3.546  12.265  0.00  0.00    +0.000 C 
ATOM     17  C   UNL     1       7.524   4.093  11.815  0.00  0.00    +0.000 C 
ATOM     18  C   UNL     1       7.781   5.443  12.473  0.00  0.00    +0.000 C 
ATOM     19  O   UNL     1       7.785   5.366  13.907  0.00  0.00    +0.000 OA
ENDBRANCH   2  14
TORSDOF 4
ENDMDL
MODEL 2
REMARK VINA RESULT:      -6.6      1.150      1.150
REMARK  Name = 
REMARK  4 active torsions:
REMARK  status: ('A' for Active; 'I' for Inactive)
REMARK    1  A    between atoms: C_2  and  C_12
REMARK    2  A    between atoms: N_3  and  C_4
REMARK    3  A    between atoms: C_8  and  C_9
REMARK    4  A    between atoms: C_9  and  O_10
REMARK                            x       y       z     vdW  Elec       q    Type
REMARK                         _______ _______ _______ _____ _____    ______ ____
ROOT
ATOM      1  O   UNL     1       6.804   4.422  17.026  0.00  0.00    +0.000 OA
ATOM      2  C   UNL     1       6.006   4.594  16.109  0.00  0.00    +0.000 C 
ATOM      3  N   UNL     1       4.647   4.824  16.233  0.00  0.00    +0.000 N 
ATOM      4  H   UNL     1       4.122   4.844  15.368  0.00  0.00    +0.000 HD
ENDROOT
BRANCH   3   5
ATOM      5  C   UNL     1       3.928   4.890  17.448  0.00  0.00    +0.000 A 
ATOM      6  C   UNL     1       3.863   6.047  18.230  0.00  0.00    +0.000 A 
ATOM      7  C   UNL     1       3.189   6.052  19.452  0.00  0.00    +0.000 A 
ATOM      8  C   UNL     1       2.570   4.895  19.909  0.00  0.00    +0.000 A 
ATOM      9  C   UNL     1       2.589   3.726  19.135  0.00  0.00    +0.000 A 
ATOM     10  C   UNL     1       3.269   3.736  17.901  0.00  0.00    +0.000 A 
BRANCH   9  11
ATOM     11  C   UNL     1       1.977   2.470  19.697  0.00  0.00    +0.000 C 
BRANCH  11  12
ATOM     12  O   UNL     1       1.928   1.430  18.731  0.00  0.00    +0.000 OA
ATOM     13  H   UNL     1       1.482   0.677  19.160  0.00  0.00    +0.000 HD
ENDBRANCH  11  12
ENDBRANCH   9  11
ENDBRANCH   3   5
BRANCH   2  14
ATOM     14  C   UNL     1       6.462   4.505  14.674  0.00  0.00    +0.000 C 
ATOM     15  C   UNL     1       5.697   3.799  13.821  0.00  0.00    +0.000 C 
ATOM     16  C   UNL     1       6.040   3.605  12.383  0.00  0.00    +0.000 C 
ATOM     17  C   UNL     1       7.455   4.085  12.091  0.00  0.00    +0.000 C 
ATOM     18  C   UNL     1       7.746   5.353  12.883  0.00  0.00    +0.000 C 
ATOM     19  O   UNL     1       7.623   5.160  14.300  0.00  0.00    +0.000 OA
ENDBRANCH   2  14
TORSDOF 4
ENDMDL
MODEL 3
REMARK VINA RESULT:      -6.5      1.900      6.733
REMARK  Name = 
REMARK  4 active torsions:
REMARK  status: ('A' for Active; 'I' for Inactive)
REMARK    1  A    between atoms: C_2  and  C_12
REMARK    2  A    between atoms: N_3  and  C_4
REMARK    3  A    between atoms: C_8  and  C_9
REMARK    4  A    between atoms: C_9  and  O_10
REMARK                            x       y       z     vdW  Elec       q    Type
REMARK                         _______ _______ _______ _____ _____    ______ ____
ROOT
ATOM      1  O   UNL     1       3.412   5.641  17.433  0.00  0.00    +0.000 OA
ATOM      2  C   UNL     1       3.839   4.616  17.957  0.00  0.00    +0.000 C 
ATOM      3  N   UNL     1       4.923   3.866  17.534  0.00  0.00    +0.000 N 
ATOM      4  H   UNL     1       5.074   2.994  18.025  0.00  0.00    +0.000 HD
ENDROOT
BRANCH   3   5
ATOM      5  C   UNL     1       5.729   4.142  16.407  0.00  0.00    +0.000 A 
ATOM      6  C   UNL     1       6.894   4.910  16.477  0.00  0.00    +0.000 A 
ATOM      7  C   UNL     1       7.631   5.208  15.330  0.00  0.00    +0.000 A 
ATOM      8  C   UNL     1       7.208   4.737  14.092  0.00  0.00    +0.000 A 
ATOM      9  C   UNL     1       6.062   3.937  13.990  0.00  0.00    +0.000 A 
ATOM     10  C   UNL     1       5.330   3.641  15.158  0.00  0.00    +0.000 A 
BRANCH   9  11
ATOM     11  C   UNL     1       5.589   3.510  12.625  0.00  0.00    +0.000 C 
BRANCH  11  12
ATOM     12  O   UNL     1       6.418   2.498  12.072  0.00  0.00    +0.000 OA
ATOM     13  H   UNL     1       5.984   1.648  12.269  0.00  0.00    +0.000 HD
ENDBRANCH  11  12
ENDBRANCH   9  11
ENDBRANCH   3   5
BRANCH   2  14
ATOM     14  C   UNL     1       3.136   4.019  19.150  0.00  0.00    +0.000 C 
ATOM     15  C   UNL     1       1.813   4.236  19.265  0.00  0.00    +0.000 C 
ATOM     16  C   UNL     1       0.997   3.729  20.406  0.00  0.00    +0.000 C 
ATOM     17  C   UNL     1       1.887   3.172  21.508  0.00  0.00    +0.000 C 
ATOM     18  C   UNL     1       3.067   2.429  20.894  0.00  0.00    +0.000 C 
ATOM     19  O   UNL     1       3.871   3.268  20.051  0.00  0.00    +0.000 OA
ENDBRANCH   2  14
TORSDOF 4
ENDMDL
MODEL 4
REMARK VINA RESULT:      -6.3      1.974      6.644
REMARK  Name = 
REMARK  4 active torsions:
REMARK  status: ('A' for Active; 'I' for Inactive)
REMARK    1  A    between atoms: C_2  and  C_12
REMARK    2  A    between atoms: N_3  and  C_4
REMARK    3  A    between atoms: C_8  and  C_9
REMARK    4  A    between atoms: C_9  and  O_10
REMARK                            x       y       z     vdW  Elec       q    Type
REMARK                         _______ _______ _______ _____ _____    ______ ____
ROOT
ATOM      1  O   UNL     1       5.604   3.901  18.948  0.00  0.00    +0.000 OA
ATOM      2  C   UNL     1       4.561   3.698  18.334  0.00  0.00    +0.000 C 
ATOM      3  N   UNL     1       4.385   3.774  16.963  0.00  0.00    +0.000 N 
ATOM      4  H   UNL     1       3.433   3.674  16.634  0.00  0.00    +0.000 HD
ENDROOT
BRANCH   3   5
ATOM      5  C   UNL     1       5.382   4.113  16.020  0.00  0.00    +0.000 A 
ATOM      6  C   UNL     1       6.457   4.953  16.320  0.00  0.00    +0.000 A 
ATOM      7  C   UNL     1       7.387   5.309  15.343  0.00  0.00    +0.000 A 
ATOM      8  C   UNL     1       7.252   4.827  14.047  0.00  0.00    +0.000 A 
ATOM      9  C   UNL     1       6.203   3.957  13.719  0.00  0.00    +0.000 A 
ATOM     10  C   UNL     1       5.273   3.602  14.717  0.00  0.00    +0.000 A 
BRANCH   9  11
ATOM     11  C   UNL     1       6.041   3.516  12.287  0.00  0.00    +0.000 C 
BRANCH  11  12
ATOM     12  O   UNL     1       6.068   2.102  12.165  0.00  0.00    +0.000 OA
ATOM     13  H   UNL     1       5.965   1.906  11.215  0.00  0.00    +0.000 HD
ENDBRANCH  11  12
ENDBRANCH   9  11
ENDBRANCH   3   5
BRANCH   2  14
ATOM     14  C   UNL     1       3.286   3.386  19.076  0.00  0.00    +0.000 C 
ATOM     15  C   UNL     1       2.247   2.918  18.360  0.00  0.00    +0.000 C 
ATOM     16  C   UNL     1       0.921   2.595  18.959  0.00  0.00    +0.000 C 
ATOM     17  C   UNL     1       0.834   3.092  20.395  0.00  0.00    +0.000 C 
ATOM     18  C   UNL     1       2.170   2.884  21.096  0.00  0.00    +0.000 C 
ATOM     19  O   UNL     1       3.248   3.575  20.447  0.00  0.00    +0.000 OA
ENDBRANCH   2  14
TORSDOF 4
ENDMDL
MODEL 5
REMARK VINA RESULT:      -6.3      1.629      2.503
REMARK  Name = 
REMARK  4 active torsions:
REMARK  status: ('A' for Active; 'I' for Inactive)
REMARK    1  A    between atoms: C_2  and  C_12
REMARK    2  A    between atoms: N_3  and  C_4
REMARK    3  A    between atoms: C_8  and  C_9
REMARK    4  A    between atoms: C_9  and  O_10
REMARK                            x       y       z     vdW  Elec       q    Type
REMARK                         _______ _______ _______ _____ _____    ______ ____
ROOT
ATOM      1  O   UNL     1       7.131   4.444  16.970  0.00  0.00    +0.000 OA
ATOM      2  C   UNL     1       6.267   4.586  16.109  0.00  0.00    +0.000 C 
ATOM      3  N   UNL     1       4.911   4.763  16.324  0.00  0.00    +0.000 N 
ATOM      4  H   UNL     1       4.329   4.763  15.496  0.00  0.00    +0.000 HD
ENDROOT
BRANCH   3   5
ATOM      5  C   UNL     1       4.273   4.801  17.585  0.00  0.00    +0.000 A 
ATOM      6  C   UNL     1       4.161   3.680  18.412  0.00  0.00    +0.000 A 
ATOM      7  C   UNL     1       3.472   3.747  19.624  0.00  0.00    +0.000 A 
ATOM      8  C   UNL     1       2.884   4.941  20.024  0.00  0.00    +0.000 A 
ATOM      9  C   UNL     1       3.005   6.092  19.233  0.00  0.00    +0.000 A 
ATOM     10  C   UNL     1       3.708   6.011  18.014  0.00  0.00    +0.000 A 
BRANCH   9  11
ATOM     11  C   UNL     1       2.289   7.348  19.658  0.00  0.00    +0.000 C 
BRANCH  11  12
ATOM     12  O   UNL     1       2.055   8.218  18.560  0.00  0.00    +0.000 OA
ATOM     13  H   UNL     1       1.111   8.127  18.334  0.00  0.00    +0.000 HD
ENDBRANCH  11  12
ENDBRANCH   9  11
ENDBRANCH   3   5
BRANCH   2  14
ATOM     14  C   UNL     1       6.629   4.516  14.646  0.00  0.00    +0.000 C 
ATOM     15  C   UNL     1       5.842   3.773  13.846  0.00  0.00    +0.000 C 
ATOM     16  C   UNL     1       6.096   3.593  12.388  0.00  0.00    +0.000 C 
ATOM     17  C   UNL     1       7.464   4.137  12.001  0.00  0.00    +0.000 C 
ATOM     18  C   UNL     1       7.748   5.419  12.774  0.00  0.00    +0.000 C 
ATOM     19  O   UNL     1       7.730   5.223  14.196  0.00  0.00    +0.000 OA
ENDBRANCH   2  14
TORSDOF 4
ENDMDL
MODEL 6
REMARK VINA RESULT:      -6.2      4.115      7.563
REMARK  Name = 
REMARK  4 active torsions:
REMARK  status: ('A' for Active; 'I' for Inactive)
REMARK    1  A    between atoms: C_2  and  C_12
REMARK    2  A    between atoms: N_3  and  C_4
REMARK    3  A    between atoms: C_8  and  C_9
REMARK    4  A    between atoms: C_9  and  O_10
REMARK                            x       y       z     vdW  Elec       q    Type
REMARK                         _______ _______ _______ _____ _____    ______ ____
ROOT
ATOM      1  O   UNL     1       2.031   8.565  17.729  0.00  0.00    +0.000 OA
ATOM      2  C   UNL     1       1.952   8.141  18.878  0.00  0.00    +0.000 C 
ATOM      3  N   UNL     1       2.314   6.878  19.316  0.00  0.00    +0.000 N 
ATOM      4  H   UNL     1       2.087   6.664  20.279  0.00  0.00    +0.000 HD
ENDROOT
BRANCH   3   5
ATOM      5  C   UNL     1       2.833   5.841  18.509  0.00  0.00    +0.000 A 
ATOM      6  C   UNL     1       2.053   4.780  18.043  0.00  0.00    +0.000 A 
ATOM      7  C   UNL     1       2.618   3.745  17.296  0.00  0.00    +0.000 A 
ATOM      8  C   UNL     1       3.977   3.760  17.006  0.00  0.00    +0.000 A 
ATOM      9  C   UNL     1       4.782   4.826  17.431  0.00  0.00    +0.000 A 
ATOM     10  C   UNL     1       4.197   5.867  18.180  0.00  0.00    +0.000 A 
BRANCH   9  11
ATOM     11  C   UNL     1       6.264   4.771  17.166  0.00  0.00    +0.000 C 
BRANCH  11  12
ATOM     12  O   UNL     1       6.969   4.168  18.241  0.00  0.00    +0.000 OA
ATOM     13  H   UNL     1       6.784   4.709  19.030  0.00  0.00    +0.000 HD
ENDBRANCH  11  12
ENDBRANCH   9  11
ENDBRANCH   3   5
BRANCH   2  14
ATOM     14  C   UNL     1       1.359   8.997  19.969  0.00  0.00    +0.000 C 
ATOM     15  C   UNL     1       1.253   8.456  21.197  0.00  0.00    +0.000 C 
ATOM     16  C   UNL     1       0.662   9.177  22.360  0.00  0.00    +0.000 C 
ATOM     17  C   UNL     1      -0.012  10.468  21.917  0.00  0.00    +0.000 C 
ATOM     18  C   UNL     1       0.811  11.131  20.819  0.00  0.00    +0.000 C 
ATOM     19  O   UNL     1       0.971  10.291  19.666  0.00  0.00    +0.000 OA
ENDBRANCH   2  14
TORSDOF 4
ENDMDL
MODEL 7
REMARK VINA RESULT:      -6.2      1.934      6.743
REMARK  Name = 
REMARK  4 active torsions:
REMARK  status: ('A' for Active; 'I' for Inactive)
REMARK    1  A    between atoms: C_2  and  C_12
REMARK    2  A    between atoms: N_3  and  C_4
REMARK    3  A    between atoms: C_8  and  C_9
REMARK    4  A    between atoms: C_9  and  O_10
REMARK                            x       y       z     vdW  Elec       q    Type
REMARK                         _______ _______ _______ _____ _____    ______ ____
ROOT
ATOM      1  O   UNL     1       5.584   3.862  18.934  0.00  0.00    +0.000 OA
ATOM      2  C   UNL     1       4.510   3.806  18.342  0.00  0.00    +0.000 C 
ATOM      3  N   UNL     1       4.312   3.971  16.982  0.00  0.00    +0.000 N 
ATOM      4  H   UNL     1       3.347   3.993  16.676  0.00  0.00    +0.000 HD
ENDROOT
BRANCH   3   5
ATOM      5  C   UNL     1       5.317   4.246  16.027  0.00  0.00    +0.000 A 
ATOM      6  C   UNL     1       6.377   5.122  16.272  0.00  0.00    +0.000 A 
ATOM      7  C   UNL     1       7.317   5.409  15.281  0.00  0.00    +0.000 A 
ATOM      8  C   UNL     1       7.205   4.821  14.027  0.00  0.00    +0.000 A 
ATOM      9  C   UNL     1       6.172   3.913  13.758  0.00  0.00    +0.000 A 
ATOM     10  C   UNL     1       5.233   3.628  14.770  0.00  0.00    +0.000 A 
BRANCH   9  11
ATOM     11  C   UNL     1       6.036   3.355  12.365  0.00  0.00    +0.000 C 
BRANCH  11  12
ATOM     12  O   UNL     1       4.692   3.401  11.908  0.00  0.00    +0.000 OA
ATOM     13  H   UNL     1       4.131   3.225  12.686  0.00  0.00    +0.000 HD
ENDBRANCH  11  12
ENDBRANCH   9  11
ENDBRANCH   3   5
BRANCH   2  14
ATOM     14  C   UNL     1       3.227   3.599  19.105  0.00  0.00    +0.000 C 
ATOM     15  C   UNL     1       2.933   4.481  20.080  0.00  0.00    +0.000 C 
ATOM     16  C   UNL     1       1.714   4.382  20.931  0.00  0.00    +0.000 C 
ATOM     17  C   UNL     1       1.007   3.050  20.721  0.00  0.00    +0.000 C 
ATOM     18  C   UNL     1       1.065   2.660  19.250  0.00  0.00    +0.000 C 
ATOM     19  O   UNL     1       2.410   2.535  18.763  0.00  0.00    +0.000 OA
ENDBRANCH   2  14
TORSDOF 4
ENDMDL
MODEL 8
REMARK VINA RESULT:      -6.2      2.085      6.748
REMARK  Name = 
REMARK  4 active torsions:
REMARK  status: ('A' for Active; 'I' for Inactive)
REMARK    1  A    between atoms: C_2  and  C_12
REMARK    2  A    between atoms: N_3  and  C_4
REMARK    3  A    between atoms: C_8  and  C_9
REMARK    4  A    between atoms: C_9  and  O_10
REMARK                            x       y       z     vdW  Elec       q    Type
REMARK                         _______ _______ _______ _____ _____    ______ ____
ROOT
ATOM      1  O   UNL     1       3.456   5.798  17.457  0.00  0.00    +0.000 OA
ATOM      2  C   UNL     1       3.770   4.707  17.923  0.00  0.00    +0.000 C 
ATOM      3  N   UNL     1       4.787   3.882  17.475  0.00  0.00    +0.000 N 
ATOM      4  H   UNL     1       4.843   2.971  17.912  0.00  0.00    +0.000 HD
ENDROOT
BRANCH   3   5
ATOM      5  C   UNL     1       5.646   4.148  16.384  0.00  0.00    +0.000 A 
ATOM      6  C   UNL     1       6.801   4.926  16.499  0.00  0.00    +0.000 A 
ATOM      7  C   UNL     1       7.590   5.212  15.384  0.00  0.00    +0.000 A 
ATOM      8  C   UNL     1       7.231   4.721  14.135  0.00  0.00    +0.000 A 
ATOM      9  C   UNL     1       6.096   3.911  13.990  0.00  0.00    +0.000 A 
ATOM     10  C   UNL     1       5.311   3.626  15.125  0.00  0.00    +0.000 A 
BRANCH   9  11
ATOM     11  C   UNL     1       5.693   3.461  12.609  0.00  0.00    +0.000 C 
BRANCH  11  12
ATOM     12  O   UNL     1       6.641   2.563  12.050  0.00  0.00    +0.000 OA
ATOM     13  H   UNL     1       6.135   1.797  11.723  0.00  0.00    +0.000 HD
ENDBRANCH  11  12
ENDBRANCH   9  11
ENDBRANCH   3   5
BRANCH   2  14
ATOM     14  C   UNL     1       2.982   4.107  19.061  0.00  0.00    +0.000 C 
ATOM     15  C   UNL     1       3.585   3.162  19.805  0.00  0.00    +0.000 C 
ATOM     16  C   UNL     1       2.916   2.466  20.942  0.00  0.00    +0.000 C 
ATOM     17  C   UNL     1       1.428   2.782  20.975  0.00  0.00    +0.000 C 
ATOM     18  C   UNL     1       1.200   4.242  20.605  0.00  0.00    +0.000 C 
ATOM     19  O   UNL     1       1.696   4.564  19.297  0.00  0.00    +0.000 OA
ENDBRANCH   2  14
TORSDOF 4
ENDMDL
MODEL 9
REMARK VINA RESULT:      -6.2      1.886      6.667
REMARK  Name = 
REMARK  4 active torsions:
REMARK  status: ('A' for Active; 'I' for Inactive)
REMARK    1  A    between atoms: C_2  and  C_12
REMARK    2  A    between atoms: N_3  and  C_4
REMARK    3  A    between atoms: C_8  and  C_9
REMARK    4  A    between atoms: C_9  and  O_10
REMARK                            x       y       z     vdW  Elec       q    Type
REMARK                         _______ _______ _______ _____ _____    ______ ____
ROOT
ATOM      1  O   UNL     1       5.953   4.046  18.947  0.00  0.00    +0.000 OA
ATOM      2  C   UNL     1       4.825   4.120  18.470  0.00  0.00    +0.000 C 
ATOM      3  N   UNL     1       4.506   4.306  17.136  0.00  0.00    +0.000 N 
ATOM      4  H   UNL     1       3.525   4.445  16.932  0.00  0.00    +0.000 HD
ENDROOT
BRANCH   3   5
ATOM      5  C   UNL     1       5.432   4.455  16.078  0.00  0.00    +0.000 A 
ATOM      6  C   UNL     1       6.596   5.219  16.191  0.00  0.00    +0.000 A 
ATOM      7  C   UNL     1       7.454   5.388  15.104  0.00  0.00    +0.000 A 
ATOM      8  C   UNL     1       7.156   4.791  13.885  0.00  0.00    +0.000 A 
ATOM      9  C   UNL     1       6.013   3.992  13.746  0.00  0.00    +0.000 A 
ATOM     10  C   UNL     1       5.158   3.826  14.854  0.00  0.00    +0.000 A 
BRANCH   9  11
ATOM     11  C   UNL     1       5.679   3.425  12.391  0.00  0.00    +0.000 C 
BRANCH  11  12
ATOM     12  O   UNL     1       6.457   2.274  12.095  0.00  0.00    +0.000 OA
ATOM     13  H   UNL     1       7.370   2.586  11.956  0.00  0.00    +0.000 HD
ENDBRANCH  11  12
ENDBRANCH   9  11
ENDBRANCH   3   5
BRANCH   2  14
ATOM     14  C   UNL     1       3.613   4.072  19.366  0.00  0.00    +0.000 C 
ATOM     15  C   UNL     1       3.406   2.945  20.073  0.00  0.00    +0.000 C 
ATOM     16  C   UNL     1       2.236   2.749  20.976  0.00  0.00    +0.000 C 
ATOM     17  C   UNL     1       1.212   3.862  20.792  0.00  0.00    +0.000 C 
ATOM     18  C   UNL     1       1.926   5.191  20.582  0.00  0.00    +0.000 C 
ATOM     19  O   UNL     1       2.787   5.181  19.433  0.00  0.00    +0.000 OA
ENDBRANCH   2  14
TORSDOF 4
ENDMDL
