MODEL 1
REMARK VINA RESULT:      -6.7      0.000      0.000
REMARK  Name = 
REMARK  7 active torsions:
REMARK  status: ('A' for Active; 'I' for Inactive)
REMARK    1  A    between atoms: C_1  and  C_2
REMARK    2  A    between atoms: C_2  and  S_3
REMARK    3  A    between atoms: S_3  and  N_6
REMARK    4  A    between atoms: N_6  and  C_7
REMARK    5  A    between atoms: C_11  and  C_12
REMARK    6  A    between atoms: C_13  and  C_14
REMARK    7  A    between atoms: N_22  and  C_23
REMARK                            x       y       z     vdW  Elec       q    Type
REMARK                         _______ _______ _______ _____ _____    ______ ____
ROOT
ATOM      1  C   UNL     1       5.016   5.245  17.041  0.00  0.00    +0.000 A 
ATOM      2  C   UNL     1       4.335   4.155  16.520  0.00  0.00    +0.000 A 
ATOM      3  N   UNL     1       3.027   3.917  16.755  0.00  0.00    +0.000 NA
ATOM      4  C   UNL     1       2.390   4.781  17.586  0.00  0.00    +0.000 A 
ATOM      5  C   UNL     1       2.961   5.919  18.161  0.00  0.00    +0.000 A 
ATOM      6  C   UNL     1       4.315   6.134  17.857  0.00  0.00    +0.000 A 
ENDROOT
BRANCH   5   7
ATOM      7  C   UNL     1       2.234   6.846  19.068  0.00  0.00    +0.000 A 
ATOM      8  C   UNL     1       1.770   6.617  20.363  0.00  0.00    +0.000 A 
ATOM      9  C   UNL     1       1.228   7.820  20.892  0.00  0.00    +0.000 A 
ATOM     10  C   UNL     1       0.674   8.178  22.142  0.00  0.00    +0.000 A 
ATOM     11  C   UNL     1       0.225   9.483  22.356  0.00  0.00    +0.000 A 
ATOM     12  C   UNL     1       0.312  10.428  21.342  0.00  0.00    +0.000 A 
ATOM     13  C   UNL     1       0.852  10.097  20.095  0.00  0.00    +0.000 A 
ATOM     14  C   UNL     1       1.314   8.782  19.889  0.00  0.00    +0.000 A 
ATOM     15  N   UNL     1       1.905   8.178  18.787  0.00  0.00    +0.000 N 
ATOM     16  C   UNL     1       2.169   8.886  17.549  0.00  0.00    +0.000 C 
BRANCH   8  17
ATOM     17  C   UNL     1       1.835   5.382  21.095  0.00  0.00    +0.000 C 
ATOM     18  N   UNL     1       1.914   4.393  21.697  0.00  0.00    +0.000 NA
ENDBRANCH   8  17
ENDBRANCH   5   7
BRANCH   1  19
ATOM     19  N   UNL     1       6.418   5.437  16.837  0.00  0.00    +0.000 N 
ATOM     20  H   UNL     1       6.800   4.992  15.998  0.00  0.00    +0.000 HD
BRANCH  19  21
ATOM     21  S   UNL     1       7.439   5.046  18.140  0.00  0.00    +0.000 S 
ATOM     22  O   UNL     1       8.486   4.239  17.551  0.00  0.00    +0.000 OA
ATOM     23  O   UNL     1       6.643   4.554  19.241  0.00  0.00    +0.000 OA
BRANCH  21  25
ATOM     24  C   UNL     1       7.684   7.712  17.566  0.00  0.00    +0.000 C 
ATOM     25  C   UNL     1       8.125   6.646  18.550  0.00  0.00    +0.000 C 
ENDBRANCH  21  25
ENDBRANCH  19  21
ENDBRANCH   1  19
TORSDOF 5
ENDMDL
MODEL 2
REMARK VINA RESULT:      -6.2      1.528      2.181
REMARK  Name = 
REMARK  7 active torsions:
REMARK  status: ('A' for Active; 'I' for Inactive)
REMARK    1  A    between atoms: C_1  and  C_2
REMARK    2  A    between atoms: C_2  and  S_3
REMARK    3  A    between atoms: S_3  and  N_6
REMARK    4  A    between atoms: N_6  and  C_7
REMARK    5  A    between atoms: C_11  and  C_12
REMARK    6  A    between atoms: C_13  and  C_14
REMARK    7  A    between atoms: N_22  and  C_23
REMARK                            x       y       z     vdW  Elec       q    Type
REMARK                         _______ _______ _______ _____ _____    ______ ____
ROOT
ATOM      1  C   UNL     1       4.965   5.617  16.399  0.00  0.00    +0.000 A 
ATOM      2  C   UNL     1       4.625   4.273  16.358  0.00  0.00    +0.000 A 
ATOM      3  N   UNL     1       3.609   3.743  17.073  0.00  0.00    +0.000 NA
ATOM      4  C   UNL     1       2.939   4.587  17.898  0.00  0.00    +0.000 A 
ATOM      5  C   UNL     1       3.176   5.959  18.017  0.00  0.00    +0.000 A 
ATOM      6  C   UNL     1       4.224   6.461  17.227  0.00  0.00    +0.000 A 
ENDROOT
BRANCH   5   7
ATOM      7  C   UNL     1       2.423   6.857  18.931  0.00  0.00    +0.000 A 
ATOM      8  C   UNL     1       1.950   6.597  20.217  0.00  0.00    +0.000 A 
ATOM      9  C   UNL     1       1.379   7.781  20.759  0.00  0.00    +0.000 A 
ATOM     10  C   UNL     1       0.805   8.108  22.009  0.00  0.00    +0.000 A 
ATOM     11  C   UNL     1       0.330   9.401  22.239  0.00  0.00    +0.000 A 
ATOM     12  C   UNL     1       0.409  10.364  21.242  0.00  0.00    +0.000 A 
ATOM     13  C   UNL     1       0.968  10.064  19.996  0.00  0.00    +0.000 A 
ATOM     14  C   UNL     1       1.458   8.761  19.773  0.00  0.00    +0.000 A 
ATOM     15  N   UNL     1       2.072   8.186  18.669  0.00  0.00    +0.000 N 
ATOM     16  C   UNL     1       2.335   8.920  17.444  0.00  0.00    +0.000 C 
BRANCH   8  17
ATOM     17  C   UNL     1       2.030   5.352  20.929  0.00  0.00    +0.000 C 
ATOM     18  N   UNL     1       2.125   4.351  21.508  0.00  0.00    +0.000 NA
ENDBRANCH   8  17
ENDBRANCH   5   7
BRANCH   1  19
ATOM     19  N   UNL     1       6.089   6.141  15.688  0.00  0.00    +0.000 N 
ATOM     20  H   UNL     1       5.860   6.764  14.910  0.00  0.00    +0.000 HD
BRANCH  19  21
ATOM     21  S   UNL     1       7.229   5.011  15.126  0.00  0.00    +0.000 S 
ATOM     22  O   UNL     1       7.757   4.400  16.327  0.00  0.00    +0.000 OA
ATOM     23  O   UNL     1       8.101   5.647  14.165  0.00  0.00    +0.000 OA
BRANCH  21  25
ATOM     24  C   UNL     1       6.413   3.811  12.805  0.00  0.00    +0.000 C 
ATOM     25  C   UNL     1       6.179   3.821  14.303  0.00  0.00    +0.000 C 
ENDBRANCH  21  25
ENDBRANCH  19  21
ENDBRANCH   1  19
TORSDOF 5
ENDMDL
MODEL 3
REMARK VINA RESULT:      -6.2      6.892     10.631
REMARK  Name = 
REMARK  7 active torsions:
REMARK  status: ('A' for Active; 'I' for Inactive)
REMARK    1  A    between atoms: C_1  and  C_2
REMARK    2  A    between atoms: C_2  and  S_3
REMARK    3  A    between atoms: S_3  and  N_6
REMARK    4  A    between atoms: N_6  and  C_7
REMARK    5  A    between atoms: C_11  and  C_12
REMARK    6  A    between atoms: C_13  and  C_14
REMARK    7  A    between atoms: N_22  and  C_23
REMARK                            x       y       z     vdW  Elec       q    Type
REMARK                         _______ _______ _______ _____ _____    ______ ____
ROOT
ATOM      1  C   UNL     1      -3.369  12.869  22.938  0.00  0.00    +0.000 A 
ATOM      2  C   UNL     1      -2.674  13.920  23.519  0.00  0.00    +0.000 A 
ATOM      3  N   UNL     1      -1.347  14.109  23.358  0.00  0.00    +0.000 NA
ATOM      4  C   UNL     1      -0.682  13.180  22.626  0.00  0.00    +0.000 A 
ATOM      5  C   UNL     1      -1.269  12.088  21.982  0.00  0.00    +0.000 A 
ATOM      6  C   UNL     1      -2.656  11.958  22.158  0.00  0.00    +0.000 A 
ENDROOT
BRANCH   5   7
ATOM      7  C   UNL     1      -0.511  11.086  21.186  0.00  0.00    +0.000 A 
ATOM      8  C   UNL     1      -0.158  11.127  19.838  0.00  0.00    +0.000 A 
ATOM      9  C   UNL     1       0.657  10.005  19.528  0.00  0.00    +0.000 A 
ATOM     10  C   UNL     1       1.324   9.571  18.359  0.00  0.00    +0.000 A 
ATOM     11  C   UNL     1       2.074   8.394  18.382  0.00  0.00    +0.000 A 
ATOM     12  C   UNL     1       2.161   7.642  19.546  0.00  0.00    +0.000 A 
ATOM     13  C   UNL     1       1.507   8.047  20.714  0.00  0.00    +0.000 A 
ATOM     14  C   UNL     1       0.761   9.242  20.689  0.00  0.00    +0.000 A 
ATOM     15  N   UNL     1       0.036   9.895  21.677  0.00  0.00    +0.000 N 
ATOM     16  C   UNL     1      -0.071   9.394  23.034  0.00  0.00    +0.000 C 
BRANCH   8  17
ATOM     17  C   UNL     1      -0.519  12.139  18.883  0.00  0.00    +0.000 C 
ATOM     18  N   UNL     1      -0.840  12.946  18.115  0.00  0.00    +0.000 NA
ENDBRANCH   8  17
ENDBRANCH   5   7
BRANCH   1  19
ATOM     19  N   UNL     1      -4.760  12.648  23.181  0.00  0.00    +0.000 N 
ATOM     20  H   UNL     1      -4.998  11.715  23.527  0.00  0.00    +0.000 HD
BRANCH  19  21
ATOM     21  S   UNL     1      -5.823  13.013  21.904  0.00  0.00    +0.000 S 
ATOM     22  O   UNL     1      -6.243  11.722  21.402  0.00  0.00    +0.000 OA
ATOM     23  O   UNL     1      -5.211  13.992  21.035  0.00  0.00    +0.000 OA
BRANCH  21  25
ATOM     24  C   UNL     1      -7.307  13.217  24.196  0.00  0.00    +0.000 C 
ATOM     25  C   UNL     1      -7.196  13.750  22.781  0.00  0.00    +0.000 C 
ENDBRANCH  21  25
ENDBRANCH  19  21
ENDBRANCH   1  19
TORSDOF 5
ENDMDL
MODEL 4
REMARK VINA RESULT:      -6.1      7.010     10.698
REMARK  Name = 
REMARK  7 active torsions:
REMARK  status: ('A' for Active; 'I' for Inactive)
REMARK    1  A    between atoms: C_1  and  C_2
REMARK    2  A    between atoms: C_2  and  S_3
REMARK    3  A    between atoms: S_3  and  N_6
REMARK    4  A    between atoms: N_6  and  C_7
REMARK    5  A    between atoms: C_11  and  C_12
REMARK    6  A    between atoms: C_13  and  C_14
REMARK    7  A    between atoms: N_22  and  C_23
REMARK                            x       y       z     vdW  Elec       q    Type
REMARK                         _______ _______ _______ _____ _____    ______ ____
ROOT
ATOM      1  C   UNL     1      -3.239  12.694  23.702  0.00  0.00    +0.000 A 
ATOM      2  C   UNL     1      -2.623  13.897  24.014  0.00  0.00    +0.000 A 
ATOM      3  N   UNL     1      -1.411  14.254  23.538  0.00  0.00    +0.000 NA
ATOM      4  C   UNL     1      -0.771  13.347  22.757  0.00  0.00    +0.000 A 
ATOM      5  C   UNL     1      -1.291  12.112  22.362  0.00  0.00    +0.000 A 
ATOM      6  C   UNL     1      -2.567  11.806  22.861  0.00  0.00    +0.000 A 
ENDROOT
BRANCH   5   7
ATOM      7  C   UNL     1      -0.562  11.139  21.504  0.00  0.00    +0.000 A 
ATOM      8  C   UNL     1      -0.259  11.229  20.146  0.00  0.00    +0.000 A 
ATOM      9  C   UNL     1       0.544  10.119  19.767  0.00  0.00    +0.000 A 
ATOM     10  C   UNL     1       1.168   9.727  18.560  0.00  0.00    +0.000 A 
ATOM     11  C   UNL     1       1.918   8.551  18.513  0.00  0.00    +0.000 A 
ATOM     12  C   UNL     1       2.045   7.757  19.646  0.00  0.00    +0.000 A 
ATOM     13  C   UNL     1       1.434   8.120  20.850  0.00  0.00    +0.000 A 
ATOM     14  C   UNL     1       0.689   9.315  20.895  0.00  0.00    +0.000 A 
ATOM     15  N   UNL     1       0.001   9.931  21.931  0.00  0.00    +0.000 N 
ATOM     16  C   UNL     1      -0.058   9.382  23.273  0.00  0.00    +0.000 C 
BRANCH   8  17
ATOM     17  C   UNL     1      -0.652  12.274  19.242  0.00  0.00    +0.000 C 
ATOM     18  N   UNL     1      -0.999  13.116  18.524  0.00  0.00    +0.000 NA
ENDBRANCH   8  17
ENDBRANCH   5   7
BRANCH   1  19
ATOM     19  N   UNL     1      -4.490  12.307  24.275  0.00  0.00    +0.000 N 
ATOM     20  H   UNL     1      -4.551  11.329  24.567  0.00  0.00    +0.000 HD
BRANCH  19  21
ATOM     21  S   UNL     1      -5.885  12.665  23.371  0.00  0.00    +0.000 S 
ATOM     22  O   UNL     1      -6.973  12.103  24.144  0.00  0.00    +0.000 OA
ATOM     23  O   UNL     1      -5.674  12.287  21.993  0.00  0.00    +0.000 OA
BRANCH  21  25
ATOM     24  C   UNL     1      -5.963  15.114  22.149  0.00  0.00    +0.000 C 
ATOM     25  C   UNL     1      -5.957  14.446  23.511  0.00  0.00    +0.000 C 
ENDBRANCH  21  25
ENDBRANCH  19  21
ENDBRANCH   1  19
TORSDOF 5
ENDMDL
MODEL 5
REMARK VINA RESULT:      -6.1      2.828      4.612
REMARK  Name = 
REMARK  7 active torsions:
REMARK  status: ('A' for Active; 'I' for Inactive)
REMARK    1  A    between atoms: C_1  and  C_2
REMARK    2  A    between atoms: C_2  and  S_3
REMARK    3  A    between atoms: S_3  and  N_6
REMARK    4  A    between atoms: N_6  and  C_7
REMARK    5  A    between atoms: C_11  and  C_12
REMARK    6  A    between atoms: C_13  and  C_14
REMARK    7  A    between atoms: N_22  and  C_23
REMARK                            x       y       z     vdW  Elec       q    Type
REMARK                         _______ _______ _______ _____ _____    ______ ____
ROOT
ATOM      1  C   UNL     1       2.646   6.462  19.305  0.00  0.00    +0.000 A 
ATOM      2  C   UNL     1       3.334   6.812  18.152  0.00  0.00    +0.000 A 
ATOM      3  N   UNL     1       3.181   8.000  17.529  0.00  0.00    +0.000 NA
ATOM      4  C   UNL     1       2.266   8.852  18.057  0.00  0.00    +0.000 A 
ATOM      5  C   UNL     1       1.523   8.622  19.217  0.00  0.00    +0.000 A 
ATOM      6  C   UNL     1       1.745   7.383  19.841  0.00  0.00    +0.000 A 
ENDROOT
BRANCH   5   7
ATOM      7  C   UNL     1       0.527   9.578  19.770  0.00  0.00    +0.000 A 
ATOM      8  C   UNL     1       0.409  10.061  21.073  0.00  0.00    +0.000 A 
ATOM      9  C   UNL     1      -0.623  11.038  21.123  0.00  0.00    +0.000 A 
ATOM     10  C   UNL     1      -1.133  11.871  22.145  0.00  0.00    +0.000 A 
ATOM     11  C   UNL     1      -2.176  12.756  21.864  0.00  0.00    +0.000 A 
ATOM     12  C   UNL     1      -2.721  12.814  20.588  0.00  0.00    +0.000 A 
ATOM     13  C   UNL     1      -2.237  11.997  19.562  0.00  0.00    +0.000 A 
ATOM     14  C   UNL     1      -1.176  11.114  19.847  0.00  0.00    +0.000 A 
ATOM     15  N   UNL     1      -0.487  10.215  19.045  0.00  0.00    +0.000 N 
ATOM     16  C   UNL     1      -0.784  10.030  17.636  0.00  0.00    +0.000 C 
BRANCH   8  17
ATOM     17  C   UNL     1       1.202   9.679  22.208  0.00  0.00    +0.000 C 
ATOM     18  N   UNL     1       1.817   9.374  23.143  0.00  0.00    +0.000 NA
ENDBRANCH   8  17
ENDBRANCH   5   7
BRANCH   1  19
ATOM     19  N   UNL     1       2.771   5.171  19.906  0.00  0.00    +0.000 N 
ATOM     20  H   UNL     1       3.716   4.923  20.208  0.00  0.00    +0.000 HD
BRANCH  19  21
ATOM     21  S   UNL     1       2.147   3.858  19.025  0.00  0.00    +0.000 S 
ATOM     22  O   UNL     1       3.295   3.014  18.769  0.00  0.00    +0.000 OA
ATOM     23  O   UNL     1       1.326   4.352  17.943  0.00  0.00    +0.000 OA
BRANCH  21  25
ATOM     24  C   UNL     1       1.833   2.944  21.587  0.00  0.00    +0.000 C 
ATOM     25  C   UNL     1       1.122   3.057  20.252  0.00  0.00    +0.000 C 
ENDBRANCH  21  25
ENDBRANCH  19  21
ENDBRANCH   1  19
TORSDOF 5
ENDMDL
MODEL 6
REMARK VINA RESULT:      -6.0      7.331     10.751
REMARK  Name = 
REMARK  7 active torsions:
REMARK  status: ('A' for Active; 'I' for Inactive)
REMARK    1  A    between atoms: C_1  and  C_2
REMARK    2  A    between atoms: C_2  and  S_3
REMARK    3  A    between atoms: S_3  and  N_6
REMARK    4  A    between atoms: N_6  and  C_7
REMARK    5  A    between atoms: C_11  and  C_12
REMARK    6  A    between atoms: C_13  and  C_14
REMARK    7  A    between atoms: N_22  and  C_23
REMARK                            x       y       z     vdW  Elec       q    Type
REMARK                         _______ _______ _______ _____ _____    ______ ____
ROOT
ATOM      1  C   UNL     1      -3.298  12.762  23.771  0.00  0.00    +0.000 A 
ATOM      2  C   UNL     1      -2.689  13.978  24.044  0.00  0.00    +0.000 A 
ATOM      3  N   UNL     1      -1.485  14.333  23.548  0.00  0.00    +0.000 NA
ATOM      4  C   UNL     1      -0.844  13.410  22.787  0.00  0.00    +0.000 A 
ATOM      5  C   UNL     1      -1.355  12.160  22.430  0.00  0.00    +0.000 A 
ATOM      6  C   UNL     1      -2.625  11.857  22.949  0.00  0.00    +0.000 A 
ENDROOT
BRANCH   5   7
ATOM      7  C   UNL     1      -0.626  11.171  21.593  0.00  0.00    +0.000 A 
ATOM      8  C   UNL     1      -0.330  11.227  20.232  0.00  0.00    +0.000 A 
ATOM      9  C   UNL     1       0.478  10.113  19.876  0.00  0.00    +0.000 A 
ATOM     10  C   UNL     1       1.097   9.695  18.676  0.00  0.00    +0.000 A 
ATOM     11  C   UNL     1       1.854   8.522  18.655  0.00  0.00    +0.000 A 
ATOM     12  C   UNL     1       1.993   7.758  19.807  0.00  0.00    +0.000 A 
ATOM     13  C   UNL     1       1.386   8.148  21.005  0.00  0.00    +0.000 A 
ATOM     14  C   UNL     1       0.633   9.339  21.024  0.00  0.00    +0.000 A 
ATOM     15  N   UNL     1      -0.053   9.977  22.048  0.00  0.00    +0.000 N 
ATOM     16  C   UNL     1      -0.101   9.461  23.403  0.00  0.00    +0.000 C 
BRANCH   8  17
ATOM     17  C   UNL     1      -0.735  12.247  19.304  0.00  0.00    +0.000 C 
ATOM     18  N   UNL     1      -1.063  13.091  18.578  0.00  0.00    +0.000 NA
ENDBRANCH   8  17
ENDBRANCH   5   7
BRANCH   1  19
ATOM     19  N   UNL     1      -4.540  12.381  24.366  0.00  0.00    +0.000 N 
ATOM     20  H   UNL     1      -4.673  11.373  24.487  0.00  0.00    +0.000 HD
BRANCH  19  21
ATOM     21  S   UNL     1      -5.951  13.006  23.651  0.00  0.00    +0.000 S 
ATOM     22  O   UNL     1      -5.875  14.432  23.885  0.00  0.00    +0.000 OA
ATOM     23  O   UNL     1      -7.093  12.235  24.087  0.00  0.00    +0.000 OA
BRANCH  21  25
ATOM     24  C   UNL     1      -6.925  12.463  21.150  0.00  0.00    +0.000 C 
ATOM     25  C   UNL     1      -5.638  12.704  21.916  0.00  0.00    +0.000 C 
ENDBRANCH  21  25
ENDBRANCH  19  21
ENDBRANCH   1  19
TORSDOF 5
ENDMDL
MODEL 7
REMARK VINA RESULT:      -6.0      1.702      2.037
REMARK  Name = 
REMARK  7 active torsions:
REMARK  status: ('A' for Active; 'I' for Inactive)
REMARK    1  A    between atoms: C_1  and  C_2
REMARK    2  A    between atoms: C_2  and  S_3
REMARK    3  A    between atoms: S_3  and  N_6
REMARK    4  A    between atoms: N_6  and  C_7
REMARK    5  A    between atoms: C_11  and  C_12
REMARK    6  A    between atoms: C_13  and  C_14
REMARK    7  A    between atoms: N_22  and  C_23
REMARK                            x       y       z     vdW  Elec       q    Type
REMARK                         _______ _______ _______ _____ _____    ______ ____
ROOT
ATOM      1  C   UNL     1       4.735   4.477  16.940  0.00  0.00    +0.000 A 
ATOM      2  C   UNL     1       3.930   3.418  16.545  0.00  0.00    +0.000 A 
ATOM      3  N   UNL     1       2.627   3.313  16.880  0.00  0.00    +0.000 NA
ATOM      4  C   UNL     1       2.124   4.284  17.684  0.00  0.00    +0.000 A 
ATOM      5  C   UNL     1       2.826   5.403  18.136  0.00  0.00    +0.000 A 
ATOM      6  C   UNL     1       4.169   5.477  17.731  0.00  0.00    +0.000 A 
ENDROOT
BRANCH   5   7
ATOM      7  C   UNL     1       2.245   6.450  19.017  0.00  0.00    +0.000 A 
ATOM      8  C   UNL     1       1.873   6.356  20.358  0.00  0.00    +0.000 A 
ATOM      9  C   UNL     1       1.464   7.634  20.827  0.00  0.00    +0.000 A 
ATOM     10  C   UNL     1       1.040   8.128  22.082  0.00  0.00    +0.000 A 
ATOM     11  C   UNL     1       0.706   9.476  22.222  0.00  0.00    +0.000 A 
ATOM     12  C   UNL     1       0.777  10.333  21.131  0.00  0.00    +0.000 A 
ATOM     13  C   UNL     1       1.188   9.867  19.878  0.00  0.00    +0.000 A 
ATOM     14  C   UNL     1       1.537   8.508  19.745  0.00  0.00    +0.000 A 
ATOM     15  N   UNL     1       1.991   7.778  18.655  0.00  0.00    +0.000 N 
ATOM     16  C   UNL     1       2.203   8.368  17.346  0.00  0.00    +0.000 C 
BRANCH   8  17
ATOM     17  C   UNL     1       1.908   5.179  21.181  0.00  0.00    +0.000 C 
ATOM     18  N   UNL     1       1.945   4.211  21.820  0.00  0.00    +0.000 NA
ENDBRANCH   8  17
ENDBRANCH   5   7
BRANCH   1  19
ATOM     19  N   UNL     1       6.130   4.530  16.633  0.00  0.00    +0.000 N 
ATOM     20  H   UNL     1       6.752   4.577  17.444  0.00  0.00    +0.000 HD
BRANCH  19  21
ATOM     21  S   UNL     1       6.623   5.729  15.533  0.00  0.00    +0.000 S 
ATOM     22  O   UNL     1       7.746   6.374  16.178  0.00  0.00    +0.000 OA
ATOM     23  O   UNL     1       5.471   6.488  15.102  0.00  0.00    +0.000 OA
BRANCH  21  25
ATOM     24  C   UNL     1       6.151   3.886  13.563  0.00  0.00    +0.000 C 
ATOM     25  C   UNL     1       7.243   4.741  14.178  0.00  0.00    +0.000 C 
ENDBRANCH  21  25
ENDBRANCH  19  21
ENDBRANCH   1  19
TORSDOF 5
ENDMDL
MODEL 8
REMARK VINA RESULT:      -6.0      3.020      5.013
REMARK  Name = 
REMARK  7 active torsions:
REMARK  status: ('A' for Active; 'I' for Inactive)
REMARK    1  A    between atoms: C_1  and  C_2
REMARK    2  A    between atoms: C_2  and  S_3
REMARK    3  A    between atoms: S_3  and  N_6
REMARK    4  A    between atoms: N_6  and  C_7
REMARK    5  A    between atoms: C_11  and  C_12
REMARK    6  A    between atoms: C_13  and  C_14
REMARK    7  A    between atoms: N_22  and  C_23
REMARK                            x       y       z     vdW  Elec       q    Type
REMARK                         _______ _______ _______ _____ _____    ______ ____
ROOT
ATOM      1  C   UNL     1       2.244   7.554  19.444  0.00  0.00    +0.000 A 
ATOM      2  C   UNL     1       2.687   7.937  18.187  0.00  0.00    +0.000 A 
ATOM      3  N   UNL     1       2.274   9.063  17.567  0.00  0.00    +0.000 NA
ATOM      4  C   UNL     1       1.343   9.809  18.214  0.00  0.00    +0.000 A 
ATOM      5  C   UNL     1       0.830   9.536  19.484  0.00  0.00    +0.000 A 
ATOM      6  C   UNL     1       1.318   8.370  20.094  0.00  0.00    +0.000 A 
ENDROOT
BRANCH   5   7
ATOM      7  C   UNL     1      -0.192  10.375  20.165  0.00  0.00    +0.000 A 
ATOM      8  C   UNL     1      -0.378  10.588  21.531  0.00  0.00    +0.000 A 
ATOM      9  C   UNL     1      -1.408  11.548  21.724  0.00  0.00    +0.000 A 
ATOM     10  C   UNL     1      -1.971  12.166  22.865  0.00  0.00    +0.000 A 
ATOM     11  C   UNL     1      -2.995  13.103  22.715  0.00  0.00    +0.000 A 
ATOM     12  C   UNL     1      -3.471  13.423  21.450  0.00  0.00    +0.000 A 
ATOM     13  C   UNL     1      -2.935  12.822  20.307  0.00  0.00    +0.000 A 
ATOM     14  C   UNL     1      -1.893  11.887  20.463  0.00  0.00    +0.000 A 
ATOM     15  N   UNL     1      -1.165  11.158  19.532  0.00  0.00    +0.000 N 
ATOM     16  C   UNL     1      -1.386  11.264  18.102  0.00  0.00    +0.000 C 
BRANCH   8  17
ATOM     17  C   UNL     1       0.352   9.974  22.606  0.00  0.00    +0.000 C 
ATOM     18  N   UNL     1       0.915   9.467  23.484  0.00  0.00    +0.000 NA
ENDBRANCH   8  17
ENDBRANCH   5   7
BRANCH   1  19
ATOM     19  N   UNL     1       2.641   6.321  20.049  0.00  0.00    +0.000 N 
ATOM     20  H   UNL     1       3.473   6.376  20.642  0.00  0.00    +0.000 HD
BRANCH  19  21
ATOM     21  S   UNL     1       2.833   4.989  19.009  0.00  0.00    +0.000 S 
ATOM     22  O   UNL     1       4.232   5.017  18.638  0.00  0.00    +0.000 OA
ATOM     23  O   UNL     1       1.792   5.008  18.007  0.00  0.00    +0.000 OA
BRANCH  21  25
ATOM     24  C   UNL     1       1.196   3.664  20.758  0.00  0.00    +0.000 C 
ATOM     25  C   UNL     1       2.575   3.619  20.130  0.00  0.00    +0.000 C 
ENDBRANCH  21  25
ENDBRANCH  19  21
ENDBRANCH   1  19
TORSDOF 5
ENDMDL
MODEL 9
REMARK VINA RESULT:      -6.0      1.133      1.268
REMARK  Name = 
REMARK  7 active torsions:
REMARK  status: ('A' for Active; 'I' for Inactive)
REMARK    1  A    between atoms: C_1  and  C_2
REMARK    2  A    between atoms: C_2  and  S_3
REMARK    3  A    between atoms: S_3  and  N_6
REMARK    4  A    between atoms: N_6  and  C_7
REMARK    5  A    between atoms: C_11  and  C_12
REMARK    6  A    between atoms: C_13  and  C_14
REMARK    7  A    between atoms: N_22  and  C_23
REMARK                            x       y       z     vdW  Elec       q    Type
REMARK                         _______ _______ _______ _____ _____    ______ ____
ROOT
ATOM      1  C   UNL     1       4.651   5.763  16.504  0.00  0.00    +0.000 A 
ATOM      2  C   UNL     1       4.197   4.460  16.367  0.00  0.00    +0.000 A 
ATOM      3  N   UNL     1       3.123   3.976  17.026  0.00  0.00    +0.000 NA
ATOM      4  C   UNL     1       2.510   4.820  17.895  0.00  0.00    +0.000 A 
ATOM      5  C   UNL     1       2.862   6.154  18.110  0.00  0.00    +0.000 A 
ATOM      6  C   UNL     1       3.967   6.612  17.375  0.00  0.00    +0.000 A 
ENDROOT
BRANCH   5   7
ATOM      7  C   UNL     1       2.169   7.053  19.070  0.00  0.00    +0.000 A 
ATOM      8  C   UNL     1       1.779   6.795  20.384  0.00  0.00    +0.000 A 
ATOM      9  C   UNL     1       1.245   7.979  20.961  0.00  0.00    +0.000 A 
ATOM     10  C   UNL     1       0.751   8.307  22.244  0.00  0.00    +0.000 A 
ATOM     11  C   UNL     1       0.291   9.600  22.503  0.00  0.00    +0.000 A 
ATOM     12  C   UNL     1       0.307  10.562  21.502  0.00  0.00    +0.000 A 
ATOM     13  C   UNL     1       0.785  10.261  20.223  0.00  0.00    +0.000 A 
ATOM     14  C   UNL     1       1.260   8.958  19.970  0.00  0.00    +0.000 A 
ATOM     15  N   UNL     1       1.801   8.382  18.829  0.00  0.00    +0.000 N 
ATOM     16  C   UNL     1       1.986   9.115  17.590  0.00  0.00    +0.000 C 
BRANCH   8  17
ATOM     17  C   UNL     1       1.905   5.550  21.091  0.00  0.00    +0.000 C 
ATOM     18  N   UNL     1       2.022   4.533  21.637  0.00  0.00    +0.000 NA
ENDBRANCH   8  17
ENDBRANCH   5   7
BRANCH   1  19
ATOM     19  N   UNL     1       5.833   6.232  15.850  0.00  0.00    +0.000 N 
ATOM     20  H   UNL     1       5.887   6.025  14.849  0.00  0.00    +0.000 HD
BRANCH  19  21
ATOM     21  S   UNL     1       7.318   5.789  16.551  0.00  0.00    +0.000 S 
ATOM     22  O   UNL     1       8.065   7.026  16.628  0.00  0.00    +0.000 OA
ATOM     23  O   UNL     1       7.849   4.635  15.862  0.00  0.00    +0.000 OA
BRANCH  21  25
ATOM     24  C   UNL     1       7.747   5.906  19.253  0.00  0.00    +0.000 C 
ATOM     25  C   UNL     1       6.812   5.333  18.204  0.00  0.00    +0.000 C 
ENDBRANCH  21  25
ENDBRANCH  19  21
ENDBRANCH   1  19
TORSDOF 5
ENDMDL
