MODEL 1
REMARK VINA RESULT:      -8.2      0.000      0.000
REMARK  Name = 
REMARK  11 active torsions:
REMARK  status: ('A' for Active; 'I' for Inactive)
REMARK    1  A    between atoms: C_1  and  C_2
REMARK    2  A    between atoms: C_2  and  O_3
REMARK    3  A    between atoms: O_3  and  C_4
REMARK    4  A    between atoms: C_7  and  C_8
REMARK    5  A    between atoms: C_8  and  N_9
REMARK    6  A    between atoms: C_12  and  C_13
REMARK    7  A    between atoms: N_15  and  O_16
REMARK    8  A    between atoms: C_20  and  C_21
REMARK    9  A    between atoms: C_24  and  C_25
REMARK   10  A    between atoms: C_25  and  C_26
REMARK   11  A    between atoms: N_28  and  C_29
REMARK                            x       y       z     vdW  Elec       q    Type
REMARK                         _______ _______ _______ _____ _____    ______ ____
ROOT
ATOM      1  C   UNL     1       0.534   9.202  20.255  0.00  0.00    +0.000 A 
ATOM      2  C   UNL     1       1.652   8.419  20.596  0.00  0.00    +0.000 A 
ATOM      3  C   UNL     1       2.493   7.882  19.623  0.00  0.00    +0.000 A 
ATOM      4  C   UNL     1       2.250   8.119  18.274  0.00  0.00    +0.000 A 
ATOM      5  C   UNL     1       1.153   8.912  17.921  0.00  0.00    +0.000 A 
ATOM      6  C   UNL     1       0.273   9.445  18.888  0.00  0.00    +0.000 A 
ENDROOT
BRANCH   6   7
ATOM      7  C   UNL     1      -0.933  10.161  18.333  0.00  0.00    +0.000 A 
ATOM      8  N   UNL     1      -1.323   9.897  17.112  0.00  0.00    +0.000 NA
ATOM      9  C   UNL     1      -2.510  10.518  16.734  0.00  0.00    +0.000 A 
ATOM     10  C   UNL     1      -3.212  10.455  15.518  0.00  0.00    +0.000 A 
ATOM     11  N   UNL     1      -4.353  11.167  15.600  0.00  0.00    +0.000 NA
ATOM     12  N   UNL     1      -4.329  11.687  16.855  0.00  0.00    +0.000 N 
ATOM     13  C   UNL     1      -5.417  12.519  17.307  0.00  0.00    +0.000 C 
ATOM     14  C   UNL     1      -3.221  11.333  17.560  0.00  0.00    +0.000 A 
ATOM     15  C   UNL     1      -2.785  11.663  18.869  0.00  0.00    +0.000 A 
ATOM     16  O   UNL     1      -3.374  12.402  19.654  0.00  0.00    +0.000 OA
ATOM     17  N   UNL     1      -1.598  11.039  19.181  0.00  0.00    +0.000 N 
ATOM     18  H   UNL     1      -1.226  11.216  20.107  0.00  0.00    +0.000 HD
BRANCH  10  19
ATOM     19  C   UNL     1      -2.822   9.785  14.244  0.00  0.00    +0.000 C 
ATOM     20  C   UNL     1      -3.872   9.881  13.149  0.00  0.00    +0.000 C 
ENDBRANCH  10  19
ENDBRANCH   6   7
BRANCH   1  21
ATOM     21  O   UNL     1      -0.316   9.728  21.205  0.00  0.00    +0.000 OA
BRANCH  21  23
ATOM     22  C   UNL     1       0.000   9.549  23.606  0.00  0.00    +0.000 C 
ATOM     23  C   UNL     1      -0.559   8.898  22.355  0.00  0.00    +0.000 C 
ENDBRANCH  21  23
ENDBRANCH   1  21
BRANCH   4  24
ATOM     24  C   UNL     1       3.145   7.516  17.217  0.00  0.00    +0.000 C 
BRANCH  24  25
ATOM     25  N   UNL     1       4.155   6.582  17.766  0.00  0.00    +0.000 NA
ATOM     26  C   UNL     1       3.910   5.213  17.287  0.00  0.00    +0.000 C 
ATOM     27  C   UNL     1       5.015   4.230  17.680  0.00  0.00    +0.000 C 
ATOM     28  C   UNL     1       6.403   4.717  17.266  0.00  0.00    +0.000 C 
ATOM     29  C   UNL     1       6.617   6.133  17.799  0.00  0.00    +0.000 C 
ATOM     30  C   UNL     1       5.488   7.081  17.396  0.00  0.00    +0.000 C 
BRANCH  28  31
ATOM     31  C   UNL     1       6.641   4.633  15.758  0.00  0.00    +0.000 C 
ATOM     32  O   UNL     1       6.023   3.887  14.999  0.00  0.00    +0.000 OA
ATOM     33  N   UNL     1       7.586   5.506  15.278  0.00  0.00    +0.000 N 
ATOM     34  H   UNL     1       8.269   5.990  15.846  0.00  0.00    +0.000 HD
BRANCH  33  35
ATOM     35  O   UNL     1       7.851   5.427  13.891  0.00  0.00    +0.000 OA
ATOM     36  H   UNL     1       7.793   6.367  13.612  0.00  0.00    +0.000 HD
ENDBRANCH  33  35
ENDBRANCH  28  31
ENDBRANCH  24  25
ENDBRANCH   4  24
TORSDOF 8
ENDMDL
MODEL 2
REMARK VINA RESULT:      -7.9      2.870      4.526
REMARK  Name = 
REMARK  11 active torsions:
REMARK  status: ('A' for Active; 'I' for Inactive)
REMARK    1  A    between atoms: C_1  and  C_2
REMARK    2  A    between atoms: C_2  and  O_3
REMARK    3  A    between atoms: O_3  and  C_4
REMARK    4  A    between atoms: C_7  and  C_8
REMARK    5  A    between atoms: C_8  and  N_9
REMARK    6  A    between atoms: C_12  and  C_13
REMARK    7  A    between atoms: N_15  and  O_16
REMARK    8  A    between atoms: C_20  and  C_21
REMARK    9  A    between atoms: C_24  and  C_25
REMARK   10  A    between atoms: C_25  and  C_26
REMARK   11  A    between atoms: N_28  and  C_29
REMARK                            x       y       z     vdW  Elec       q    Type
REMARK                         _______ _______ _______ _____ _____    ______ ____
ROOT
ATOM      1  C   UNL     1       2.233   5.851  19.844  0.00  0.00    +0.000 A 
ATOM      2  C   UNL     1       2.901   4.913  19.036  0.00  0.00    +0.000 A 
ATOM      3  C   UNL     1       3.553   5.290  17.863  0.00  0.00    +0.000 A 
ATOM      4  C   UNL     1       3.567   6.622  17.463  0.00  0.00    +0.000 A 
ATOM      5  C   UNL     1       2.923   7.569  18.267  0.00  0.00    +0.000 A 
ATOM      6  C   UNL     1       2.234   7.206  19.445  0.00  0.00    +0.000 A 
ENDROOT
BRANCH   6   7
ATOM      7  C   UNL     1       1.482   8.326  20.119  0.00  0.00    +0.000 A 
ATOM      8  N   UNL     1       0.723   9.108  19.395  0.00  0.00    +0.000 NA
ATOM      9  C   UNL     1      -0.020  10.034  20.123  0.00  0.00    +0.000 A 
ATOM     10  C   UNL     1      -0.929  11.010  19.678  0.00  0.00    +0.000 A 
ATOM     11  N   UNL     1      -1.472  11.655  20.728  0.00  0.00    +0.000 NA
ATOM     12  N   UNL     1      -0.871  11.093  21.809  0.00  0.00    +0.000 N 
ATOM     13  C   UNL     1      -1.217  11.541  23.136  0.00  0.00    +0.000 C 
ATOM     14  C   UNL     1       0.027  10.126  21.480  0.00  0.00    +0.000 A 
ATOM     15  C   UNL     1       0.879   9.315  22.272  0.00  0.00    +0.000 A 
ATOM     16  O   UNL     1       0.975   9.360  23.496  0.00  0.00    +0.000 OA
ATOM     17  N   UNL     1       1.604   8.434  21.500  0.00  0.00    +0.000 N 
ATOM     18  H   UNL     1       2.230   7.810  21.996  0.00  0.00    +0.000 HD
BRANCH  10  19
ATOM     19  C   UNL     1      -1.273  11.401  18.281  0.00  0.00    +0.000 C 
ATOM     20  C   UNL     1      -2.767  11.466  18.009  0.00  0.00    +0.000 C 
ENDBRANCH  10  19
ENDBRANCH   6   7
BRANCH   1  21
ATOM     21  O   UNL     1       1.571   5.491  20.999  0.00  0.00    +0.000 OA
BRANCH  21  23
ATOM     22  C   UNL     1       1.085   3.113  21.022  0.00  0.00    +0.000 C 
ATOM     23  C   UNL     1       1.953   4.229  21.572  0.00  0.00    +0.000 C 
ENDBRANCH  21  23
ENDBRANCH   1  21
BRANCH   4  24
ATOM     24  C   UNL     1       4.250   7.029  16.179  0.00  0.00    +0.000 C 
BRANCH  24  25
ATOM     25  N   UNL     1       5.710   6.779  16.186  0.00  0.00    +0.000 NA
ATOM     26  C   UNL     1       6.366   7.562  17.245  0.00  0.00    +0.000 C 
ATOM     27  C   UNL     1       7.848   7.221  17.417  0.00  0.00    +0.000 C 
ATOM     28  C   UNL     1       8.083   5.724  17.614  0.00  0.00    +0.000 C 
ATOM     29  C   UNL     1       7.399   4.956  16.484  0.00  0.00    +0.000 C 
ATOM     30  C   UNL     1       5.925   5.331  16.336  0.00  0.00    +0.000 C 
BRANCH  28  31
ATOM     31  C   UNL     1       7.643   5.227  18.990  0.00  0.00    +0.000 C 
ATOM     32  O   UNL     1       6.600   4.610  19.204  0.00  0.00    +0.000 OA
ATOM     33  N   UNL     1       8.536   5.477  20.003  0.00  0.00    +0.000 N 
ATOM     34  H   UNL     1       9.296   6.143  19.953  0.00  0.00    +0.000 HD
BRANCH  33  35
ATOM     35  O   UNL     1       8.139   5.058  21.294  0.00  0.00    +0.000 OA
ATOM     36  H   UNL     1       7.325   5.587  21.446  0.00  0.00    +0.000 HD
ENDBRANCH  33  35
ENDBRANCH  28  31
ENDBRANCH  24  25
ENDBRANCH   4  24
TORSDOF 8
ENDMDL
MODEL 3
REMARK VINA RESULT:      -7.7      2.729      3.148
REMARK  Name = 
REMARK  11 active torsions:
REMARK  status: ('A' for Active; 'I' for Inactive)
REMARK    1  A    between atoms: C_1  and  C_2
REMARK    2  A    between atoms: C_2  and  O_3
REMARK    3  A    between atoms: O_3  and  C_4
REMARK    4  A    between atoms: C_7  and  C_8
REMARK    5  A    between atoms: C_8  and  N_9
REMARK    6  A    between atoms: C_12  and  C_13
REMARK    7  A    between atoms: N_15  and  O_16
REMARK    8  A    between atoms: C_20  and  C_21
REMARK    9  A    between atoms: C_24  and  C_25
REMARK   10  A    between atoms: C_25  and  C_26
REMARK   11  A    between atoms: N_28  and  C_29
REMARK                            x       y       z     vdW  Elec       q    Type
REMARK                         _______ _______ _______ _____ _____    ______ ____
ROOT
ATOM      1  C   UNL     1       0.274  10.257  21.336  0.00  0.00    +0.000 A 
ATOM      2  C   UNL     1       1.302   9.533  21.970  0.00  0.00    +0.000 A 
ATOM      3  C   UNL     1       1.994   8.518  21.312  0.00  0.00    +0.000 A 
ATOM      4  C   UNL     1       1.689   8.198  19.993  0.00  0.00    +0.000 A 
ATOM      5  C   UNL     1       0.682   8.922  19.344  0.00  0.00    +0.000 A 
ATOM      6  C   UNL     1      -0.050   9.937  19.999  0.00  0.00    +0.000 A 
ENDROOT
BRANCH   6   7
ATOM      7  C   UNL     1      -1.187  10.523  19.201  0.00  0.00    +0.000 A 
ATOM      8  N   UNL     1      -1.398  10.093  17.983  0.00  0.00    +0.000 NA
ATOM      9  C   UNL     1      -2.539  10.608  17.374  0.00  0.00    +0.000 A 
ATOM     10  C   UNL     1      -3.065  10.363  16.094  0.00  0.00    +0.000 A 
ATOM     11  N   UNL     1      -4.227  11.027  15.932  0.00  0.00    +0.000 NA
ATOM     12  N   UNL     1      -4.390  11.697  17.102  0.00  0.00    +0.000 N 
ATOM     13  C   UNL     1      -5.554  12.528  17.295  0.00  0.00    +0.000 C 
ATOM     14  C   UNL     1      -3.381  11.485  17.988  0.00  0.00    +0.000 A 
ATOM     15  C   UNL     1      -3.139  11.993  19.290  0.00  0.00    +0.000 A 
ATOM     16  O   UNL     1      -3.852  12.794  19.888  0.00  0.00    +0.000 OA
ATOM     17  N   UNL     1      -1.988  11.467  19.834  0.00  0.00    +0.000 N 
ATOM     18  H   UNL     1      -1.753  11.773  20.771  0.00  0.00    +0.000 HD
BRANCH  10  19
ATOM     19  C   UNL     1      -2.484   9.560  14.980  0.00  0.00    +0.000 C 
ATOM     20  C   UNL     1      -3.120   9.832  13.626  0.00  0.00    +0.000 C 
ENDBRANCH  10  19
ENDBRANCH   6   7
BRANCH   1  21
ATOM     21  O   UNL     1      -0.429  11.254  21.978  0.00  0.00    +0.000 OA
BRANCH  21  23
ATOM     22  C   UNL     1      -2.351  11.822  23.348  0.00  0.00    +0.000 C 
ATOM     23  C   UNL     1      -1.227  10.834  23.099  0.00  0.00    +0.000 C 
ENDBRANCH  21  23
ENDBRANCH   1  21
BRANCH   4  24
ATOM     24  C   UNL     1       2.419   7.080  19.287  0.00  0.00    +0.000 C 
BRANCH  24  25
ATOM     25  N   UNL     1       1.666   5.804  19.273  0.00  0.00    +0.000 NA
ATOM     26  C   UNL     1       1.918   5.068  18.024  0.00  0.00    +0.000 C 
ATOM     27  C   UNL     1       1.305   3.665  18.018  0.00  0.00    +0.000 C 
ATOM     28  C   UNL     1       1.722   2.841  19.236  0.00  0.00    +0.000 C 
ATOM     29  C   UNL     1       1.427   3.639  20.505  0.00  0.00    +0.000 C 
ATOM     30  C   UNL     1       2.044   5.037  20.469  0.00  0.00    +0.000 C 
BRANCH  28  31
ATOM     31  C   UNL     1       3.178   2.382  19.176  0.00  0.00    +0.000 C 
ATOM     32  O   UNL     1       3.765   2.067  18.141  0.00  0.00    +0.000 OA
ATOM     33  N   UNL     1       3.830   2.387  20.385  0.00  0.00    +0.000 N 
ATOM     34  H   UNL     1       3.376   2.429  21.288  0.00  0.00    +0.000 HD
BRANCH  33  35
ATOM     35  O   UNL     1       5.169   1.934  20.366  0.00  0.00    +0.000 OA
ATOM     36  H   UNL     1       5.177   1.333  19.588  0.00  0.00    +0.000 HD
ENDBRANCH  33  35
ENDBRANCH  28  31
ENDBRANCH  24  25
ENDBRANCH   4  24
TORSDOF 8
ENDMDL
MODEL 4
REMARK VINA RESULT:      -7.6      1.950      2.541
REMARK  Name = 
REMARK  11 active torsions:
REMARK  status: ('A' for Active; 'I' for Inactive)
REMARK    1  A    between atoms: C_1  and  C_2
REMARK    2  A    between atoms: C_2  and  O_3
REMARK    3  A    between atoms: O_3  and  C_4
REMARK    4  A    between atoms: C_7  and  C_8
REMARK    5  A    between atoms: C_8  and  N_9
REMARK    6  A    between atoms: C_12  and  C_13
REMARK    7  A    between atoms: N_15  and  O_16
REMARK    8  A    between atoms: C_20  and  C_21
REMARK    9  A    between atoms: C_24  and  C_25
REMARK   10  A    between atoms: C_25  and  C_26
REMARK   11  A    between atoms: N_28  and  C_29
REMARK                            x       y       z     vdW  Elec       q    Type
REMARK                         _______ _______ _______ _____ _____    ______ ____
ROOT
ATOM      1  C   UNL     1       1.173   7.874  20.734  0.00  0.00    +0.000 A 
ATOM      2  C   UNL     1       1.902   6.682  20.566  0.00  0.00    +0.000 A 
ATOM      3  C   UNL     1       2.698   6.463  19.443  0.00  0.00    +0.000 A 
ATOM      4  C   UNL     1       2.800   7.434  18.453  0.00  0.00    +0.000 A 
ATOM      5  C   UNL     1       2.096   8.633  18.615  0.00  0.00    +0.000 A 
ATOM      6  C   UNL     1       1.264   8.866  19.732  0.00  0.00    +0.000 A 
ENDROOT
BRANCH   6   7
ATOM      7  C   UNL     1       0.474  10.150  19.685  0.00  0.00    +0.000 A 
ATOM      8  N   UNL     1      -0.741  10.131  19.199  0.00  0.00    +0.000 NA
ATOM      9  C   UNL     1      -1.430  11.336  19.309  0.00  0.00    +0.000 A 
ATOM     10  C   UNL     1      -2.735  11.668  18.904  0.00  0.00    +0.000 A 
ATOM     11  N   UNL     1      -3.024  12.937  19.257  0.00  0.00    +0.000 NA
ATOM     12  N   UNL     1      -1.885  13.383  19.848  0.00  0.00    +0.000 N 
ATOM     13  C   UNL     1      -1.827  14.728  20.366  0.00  0.00    +0.000 C 
ATOM     14  C   UNL     1      -0.895  12.451  19.878  0.00  0.00    +0.000 A 
ATOM     15  C   UNL     1       0.436  12.497  20.367  0.00  0.00    +0.000 A 
ATOM     16  O   UNL     1       0.977  13.474  20.877  0.00  0.00    +0.000 OA
ATOM     17  N   UNL     1       1.074  11.286  20.215  0.00  0.00    +0.000 N 
ATOM     18  H   UNL     1       2.029  11.236  20.552  0.00  0.00    +0.000 HD
BRANCH  10  19
ATOM     19  C   UNL     1      -3.716  10.846  18.141  0.00  0.00    +0.000 C 
ATOM     20  C   UNL     1      -4.572  11.648  17.174  0.00  0.00    +0.000 C 
ENDBRANCH  10  19
ENDBRANCH   6   7
BRANCH   1  21
ATOM     21  O   UNL     1       0.370   8.100  21.832  0.00  0.00    +0.000 OA
BRANCH  21  23
ATOM     22  C   UNL     1      -0.382   9.913  23.259  0.00  0.00    +0.000 C 
ATOM     23  C   UNL     1       0.807   9.140  22.723  0.00  0.00    +0.000 C 
ENDBRANCH  21  23
ENDBRANCH   1  21
BRANCH   4  24
ATOM     24  C   UNL     1       3.641   7.189  17.222  0.00  0.00    +0.000 C 
BRANCH  24  25
ATOM     25  N   UNL     1       4.731   6.211  17.442  0.00  0.00    +0.000 NA
ATOM     26  C   UNL     1       4.436   4.941  16.760  0.00  0.00    +0.000 C 
ATOM     27  C   UNL     1       5.598   3.947  16.806  0.00  0.00    +0.000 C 
ATOM     28  C   UNL     1       6.905   4.553  16.297  0.00  0.00    +0.000 C 
ATOM     29  C   UNL     1       7.177   5.858  17.045  0.00  0.00    +0.000 C 
ATOM     30  C   UNL     1       5.991   6.819  16.986  0.00  0.00    +0.000 C 
BRANCH  28  31
ATOM     31  C   UNL     1       6.921   4.750  14.781  0.00  0.00    +0.000 C 
ATOM     32  O   UNL     1       6.071   4.300  14.014  0.00  0.00    +0.000 OA
ATOM     33  N   UNL     1       7.953   5.528  14.316  0.00  0.00    +0.000 N 
ATOM     34  H   UNL     1       8.789   5.756  14.840  0.00  0.00    +0.000 HD
BRANCH  33  35
ATOM     35  O   UNL     1       8.013   5.700  12.914  0.00  0.00    +0.000 OA
ATOM     36  H   UNL     1       8.724   5.072  12.655  0.00  0.00    +0.000 HD
ENDBRANCH  33  35
ENDBRANCH  28  31
ENDBRANCH  24  25
ENDBRANCH   4  24
TORSDOF 8
ENDMDL
MODEL 5
REMARK VINA RESULT:      -7.5      3.094      3.778
REMARK  Name = 
REMARK  11 active torsions:
REMARK  status: ('A' for Active; 'I' for Inactive)
REMARK    1  A    between atoms: C_1  and  C_2
REMARK    2  A    between atoms: C_2  and  O_3
REMARK    3  A    between atoms: O_3  and  C_4
REMARK    4  A    between atoms: C_7  and  C_8
REMARK    5  A    between atoms: C_8  and  N_9
REMARK    6  A    between atoms: C_12  and  C_13
REMARK    7  A    between atoms: N_15  and  O_16
REMARK    8  A    between atoms: C_20  and  C_21
REMARK    9  A    between atoms: C_24  and  C_25
REMARK   10  A    between atoms: C_25  and  C_26
REMARK   11  A    between atoms: N_28  and  C_29
REMARK                            x       y       z     vdW  Elec       q    Type
REMARK                         _______ _______ _______ _____ _____    ______ ____
ROOT
ATOM      1  C   UNL     1       1.186   8.789  20.203  0.00  0.00    +0.000 A 
ATOM      2  C   UNL     1       1.599   7.446  20.134  0.00  0.00    +0.000 A 
ATOM      3  C   UNL     1       2.392   6.977  19.088  0.00  0.00    +0.000 A 
ATOM      4  C   UNL     1       2.807   7.840  18.079  0.00  0.00    +0.000 A 
ATOM      5  C   UNL     1       2.419   9.183  18.144  0.00  0.00    +0.000 A 
ATOM      6  C   UNL     1       1.595   9.674  19.180  0.00  0.00    +0.000 A 
ENDROOT
BRANCH   6   7
ATOM      7  C   UNL     1       1.160  11.110  19.028  0.00  0.00    +0.000 A 
ATOM      8  N   UNL     1       0.018  11.486  19.544  0.00  0.00    +0.000 NA
ATOM      9  C   UNL     1      -0.239  12.852  19.454  0.00  0.00    +0.000 A 
ATOM     10  C   UNL     1      -1.348  13.592  19.900  0.00  0.00    +0.000 A 
ATOM     11  N   UNL     1      -1.160  14.904  19.661  0.00  0.00    +0.000 NA
ATOM     12  N   UNL     1       0.049  14.958  19.043  0.00  0.00    +0.000 N 
ATOM     13  C   UNL     1       0.589  16.232  18.636  0.00  0.00    +0.000 C 
ATOM     14  C   UNL     1       0.624  13.737  18.882  0.00  0.00    +0.000 A 
ATOM     15  C   UNL     1       1.844  13.335  18.280  0.00  0.00    +0.000 A 
ATOM     16  O   UNL     1       2.653  14.082  17.738  0.00  0.00    +0.000 OA
ATOM     17  N   UNL     1       2.035  11.974  18.380  0.00  0.00    +0.000 N 
ATOM     18  H   UNL     1       2.893  11.610  17.981  0.00  0.00    +0.000 HD
BRANCH  10  19
ATOM     19  C   UNL     1      -2.619  13.100  20.504  0.00  0.00    +0.000 C 
ATOM     20  C   UNL     1      -2.583  12.996  22.020  0.00  0.00    +0.000 C 
ENDBRANCH  10  19
ENDBRANCH   6   7
BRANCH   1  21
ATOM     21  O   UNL     1       0.389   9.265  21.223  0.00  0.00    +0.000 OA
BRANCH  21  23
ATOM     22  C   UNL     1      -0.076   9.557  23.588  0.00  0.00    +0.000 C 
ATOM     23  C   UNL     1       0.968   9.223  22.539  0.00  0.00    +0.000 C 
ENDBRANCH  21  23
ENDBRANCH   1  21
BRANCH   4  24
ATOM     24  C   UNL     1       3.644   7.329  16.930  0.00  0.00    +0.000 C 
BRANCH  24  25
ATOM     25  N   UNL     1       4.718   6.402  17.354  0.00  0.00    +0.000 NA
ATOM     26  C   UNL     1       4.457   5.042  16.856  0.00  0.00    +0.000 C 
ATOM     27  C   UNL     1       5.613   4.072  17.115  0.00  0.00    +0.000 C 
ATOM     28  C   UNL     1       6.947   4.602  16.592  0.00  0.00    +0.000 C 
ATOM     29  C   UNL     1       7.181   6.006  17.148  0.00  0.00    +0.000 C 
ATOM     30  C   UNL     1       6.002   6.941  16.881  0.00  0.00    +0.000 C 
BRANCH  28  31
ATOM     31  C   UNL     1       7.046   4.569  15.067  0.00  0.00    +0.000 C 
ATOM     32  O   UNL     1       7.703   5.366  14.397  0.00  0.00    +0.000 OA
ATOM     33  N   UNL     1       6.372   3.531  14.471  0.00  0.00    +0.000 N 
ATOM     34  H   UNL     1       5.657   2.972  14.919  0.00  0.00    +0.000 HD
BRANCH  33  35
ATOM     35  O   UNL     1       6.419   3.495  13.059  0.00  0.00    +0.000 OA
ATOM     36  H   UNL     1       5.838   4.248  12.810  0.00  0.00    +0.000 HD
ENDBRANCH  33  35
ENDBRANCH  28  31
ENDBRANCH  24  25
ENDBRANCH   4  24
TORSDOF 8
ENDMDL
MODEL 6
REMARK VINA RESULT:      -7.4      3.509      9.578
REMARK  Name = 
REMARK  11 active torsions:
REMARK  status: ('A' for Active; 'I' for Inactive)
REMARK    1  A    between atoms: C_1  and  C_2
REMARK    2  A    between atoms: C_2  and  O_3
REMARK    3  A    between atoms: O_3  and  C_4
REMARK    4  A    between atoms: C_7  and  C_8
REMARK    5  A    between atoms: C_8  and  N_9
REMARK    6  A    between atoms: C_12  and  C_13
REMARK    7  A    between atoms: N_15  and  O_16
REMARK    8  A    between atoms: C_20  and  C_21
REMARK    9  A    between atoms: C_24  and  C_25
REMARK   10  A    between atoms: C_25  and  C_26
REMARK   11  A    between atoms: N_28  and  C_29
REMARK                            x       y       z     vdW  Elec       q    Type
REMARK                         _______ _______ _______ _____ _____    ______ ____
ROOT
ATOM      1  C   UNL     1       1.843   6.900  20.336  0.00  0.00    +0.000 A 
ATOM      2  C   UNL     1       0.972   7.713  21.085  0.00  0.00    +0.000 A 
ATOM      3  C   UNL     1       0.602   8.984  20.651  0.00  0.00    +0.000 A 
ATOM      4  C   UNL     1       1.084   9.484  19.445  0.00  0.00    +0.000 A 
ATOM      5  C   UNL     1       1.937   8.680  18.680  0.00  0.00    +0.000 A 
ATOM      6  C   UNL     1       2.345   7.399  19.113  0.00  0.00    +0.000 A 
ENDROOT
BRANCH   6   7
ATOM      7  C   UNL     1       3.370   6.723  18.237  0.00  0.00    +0.000 A 
ATOM      8  N   UNL     1       4.539   7.288  18.074  0.00  0.00    +0.000 NA
ATOM      9  C   UNL     1       5.454   6.531  17.348  0.00  0.00    +0.000 A 
ATOM     10  C   UNL     1       6.783   6.822  16.993  0.00  0.00    +0.000 A 
ATOM     11  N   UNL     1       7.329   5.780  16.335  0.00  0.00    +0.000 NA
ATOM     12  N   UNL     1       6.322   4.870  16.264  0.00  0.00    +0.000 N 
ATOM     13  C   UNL     1       6.549   3.601  15.617  0.00  0.00    +0.000 C 
ATOM     14  C   UNL     1       5.170   5.298  16.846  0.00  0.00    +0.000 A 
ATOM     15  C   UNL     1       3.893   4.694  16.977  0.00  0.00    +0.000 A 
ATOM     16  O   UNL     1       3.574   3.594  16.536  0.00  0.00    +0.000 OA
ATOM     17  N   UNL     1       3.024   5.495  17.685  0.00  0.00    +0.000 N 
ATOM     18  H   UNL     1       2.091   5.127  17.831  0.00  0.00    +0.000 HD
BRANCH  10  19
ATOM     19  C   UNL     1       7.556   8.079  17.205  0.00  0.00    +0.000 C 
ATOM     20  C   UNL     1       8.375   8.092  18.485  0.00  0.00    +0.000 C 
ENDBRANCH  10  19
ENDBRANCH   6   7
BRANCH   1  21
ATOM     21  O   UNL     1       2.230   5.647  20.760  0.00  0.00    +0.000 OA
BRANCH  21  23
ATOM     22  C   UNL     1       1.672   3.358  21.345  0.00  0.00    +0.000 C 
ATOM     23  C   UNL     1       1.263   4.598  20.575  0.00  0.00    +0.000 C 
ENDBRANCH  21  23
ENDBRANCH   1  21
BRANCH   4  24
ATOM     24  C   UNL     1       0.707  10.872  18.985  0.00  0.00    +0.000 C 
BRANCH  24  25
ATOM     25  N   UNL     1       0.589  11.846  20.094  0.00  0.00    +0.000 NA
ATOM     26  C   UNL     1       1.728  12.777  20.090  0.00  0.00    +0.000 C 
ATOM     27  C   UNL     1       1.582  13.914  21.105  0.00  0.00    +0.000 C 
ATOM     28  C   UNL     1       0.258  14.663  20.956  0.00  0.00    +0.000 C 
ATOM     29  C   UNL     1      -0.893  13.658  20.982  0.00  0.00    +0.000 C 
ATOM     30  C   UNL     1      -0.705  12.533  19.965  0.00  0.00    +0.000 C 
BRANCH  28  31
ATOM     31  C   UNL     1       0.211  15.550  19.713  0.00  0.00    +0.000 C 
ATOM     32  O   UNL     1       1.194  15.846  19.034  0.00  0.00    +0.000 OA
ATOM     33  N   UNL     1      -1.046  15.975  19.359  0.00  0.00    +0.000 N 
ATOM     34  H   UNL     1      -1.857  15.951  19.964  0.00  0.00    +0.000 HD
BRANCH  33  35
ATOM     35  O   UNL     1      -1.116  16.826  18.232  0.00  0.00    +0.000 OA
ATOM     36  H   UNL     1      -1.338  16.198  17.508  0.00  0.00    +0.000 HD
ENDBRANCH  33  35
ENDBRANCH  28  31
ENDBRANCH  24  25
ENDBRANCH   4  24
TORSDOF 8
ENDMDL
MODEL 7
REMARK VINA RESULT:      -7.4      3.918      5.971
REMARK  Name = 
REMARK  11 active torsions:
REMARK  status: ('A' for Active; 'I' for Inactive)
REMARK    1  A    between atoms: C_1  and  C_2
REMARK    2  A    between atoms: C_2  and  O_3
REMARK    3  A    between atoms: O_3  and  C_4
REMARK    4  A    between atoms: C_7  and  C_8
REMARK    5  A    between atoms: C_8  and  N_9
REMARK    6  A    between atoms: C_12  and  C_13
REMARK    7  A    between atoms: N_15  and  O_16
REMARK    8  A    between atoms: C_20  and  C_21
REMARK    9  A    between atoms: C_24  and  C_25
REMARK   10  A    between atoms: C_25  and  C_26
REMARK   11  A    between atoms: N_28  and  C_29
REMARK                            x       y       z     vdW  Elec       q    Type
REMARK                         _______ _______ _______ _____ _____    ______ ____
ROOT
ATOM      1  C   UNL     1       0.246  10.635  18.669  0.00  0.00    +0.000 A 
ATOM      2  C   UNL     1       0.749   9.634  17.817  0.00  0.00    +0.000 A 
ATOM      3  C   UNL     1       1.392   8.503  18.317  0.00  0.00    +0.000 A 
ATOM      4  C   UNL     1       1.545   8.329  19.688  0.00  0.00    +0.000 A 
ATOM      5  C   UNL     1       1.033   9.306  20.549  0.00  0.00    +0.000 A 
ATOM      6  C   UNL     1       0.400  10.472  20.064  0.00  0.00    +0.000 A 
ENDROOT
BRANCH   6   7
ATOM      7  C   UNL     1       0.028  11.485  21.118  0.00  0.00    +0.000 A 
ATOM      8  N   UNL     1       0.642  12.641  21.133  0.00  0.00    +0.000 NA
ATOM      9  C   UNL     1       0.147  13.549  22.065  0.00  0.00    +0.000 A 
ATOM     10  C   UNL     1       0.556  14.865  22.347  0.00  0.00    +0.000 A 
ATOM     11  N   UNL     1      -0.239  15.409  23.289  0.00  0.00    +0.000 NA
ATOM     12  N   UNL     1      -1.111  14.414  23.601  0.00  0.00    +0.000 N 
ATOM     13  C   UNL     1      -2.133  14.643  24.593  0.00  0.00    +0.000 C 
ATOM     14  C   UNL     1      -0.894  13.271  22.898  0.00  0.00    +0.000 A 
ATOM     15  C   UNL     1      -1.537  12.007  22.922  0.00  0.00    +0.000 A 
ATOM     16  O   UNL     1      -2.469  11.693  23.657  0.00  0.00    +0.000 OA
ATOM     17  N   UNL     1      -0.994  11.144  21.996  0.00  0.00    +0.000 N 
ATOM     18  H   UNL     1      -1.409  10.220  21.944  0.00  0.00    +0.000 HD
BRANCH  10  19
ATOM     19  C   UNL     1       1.714  15.623  21.795  0.00  0.00    +0.000 C 
ATOM     20  C   UNL     1       3.067  15.103  22.252  0.00  0.00    +0.000 C 
ENDBRANCH  10  19
ENDBRANCH   6   7
BRANCH   1  21
ATOM     21  O   UNL     1      -0.379  11.766  18.190  0.00  0.00    +0.000 OA
BRANCH  21  23
ATOM     22  C   UNL     1      -2.718  11.907  18.824  0.00  0.00    +0.000 C 
ATOM     23  C   UNL     1      -1.727  11.586  17.722  0.00  0.00    +0.000 C 
ENDBRANCH  21  23
ENDBRANCH   1  21
BRANCH   4  24
ATOM     24  C   UNL     1       2.264   7.117  20.231  0.00  0.00    +0.000 C 
BRANCH  24  25
ATOM     25  N   UNL     1       1.860   5.852  19.576  0.00  0.00    +0.000 NA
ATOM     26  C   UNL     1       2.989   5.267  18.835  0.00  0.00    +0.000 C 
ATOM     27  C   UNL     1       2.686   3.874  18.275  0.00  0.00    +0.000 C 
ATOM     28  C   UNL     1       2.175   2.914  19.347  0.00  0.00    +0.000 C 
ATOM     29  C   UNL     1       0.995   3.557  20.076  0.00  0.00    +0.000 C 
ATOM     30  C   UNL     1       1.332   4.948  20.610  0.00  0.00    +0.000 C 
BRANCH  28  31
ATOM     31  C   UNL     1       3.267   2.464  20.317  0.00  0.00    +0.000 C 
ATOM     32  O   UNL     1       3.172   2.517  21.542  0.00  0.00    +0.000 OA
ATOM     33  N   UNL     1       4.384   1.935  19.717  0.00  0.00    +0.000 N 
ATOM     34  H   UNL     1       4.624   2.045  18.740  0.00  0.00    +0.000 HD
BRANCH  33  35
ATOM     35  O   UNL     1       5.425   1.542  20.588  0.00  0.00    +0.000 OA
ATOM     36  H   UNL     1       5.540   2.339  21.152  0.00  0.00    +0.000 HD
ENDBRANCH  33  35
ENDBRANCH  28  31
ENDBRANCH  24  25
ENDBRANCH   4  24
TORSDOF 8
ENDMDL
MODEL 8
REMARK VINA RESULT:      -7.4      3.245      9.740
REMARK  Name = 
REMARK  11 active torsions:
REMARK  status: ('A' for Active; 'I' for Inactive)
REMARK    1  A    between atoms: C_1  and  C_2
REMARK    2  A    between atoms: C_2  and  O_3
REMARK    3  A    between atoms: O_3  and  C_4
REMARK    4  A    between atoms: C_7  and  C_8
REMARK    5  A    between atoms: C_8  and  N_9
REMARK    6  A    between atoms: C_12  and  C_13
REMARK    7  A    between atoms: N_15  and  O_16
REMARK    8  A    between atoms: C_20  and  C_21
REMARK    9  A    between atoms: C_24  and  C_25
REMARK   10  A    between atoms: C_25  and  C_26
REMARK   11  A    between atoms: N_28  and  C_29
REMARK                            x       y       z     vdW  Elec       q    Type
REMARK                         _______ _______ _______ _____ _____    ______ ____
ROOT
ATOM      1  C   UNL     1       1.781   6.458  20.394  0.00  0.00    +0.000 A 
ATOM      2  C   UNL     1       0.906   7.173  21.232  0.00  0.00    +0.000 A 
ATOM      3  C   UNL     1       0.583   8.507  20.986  0.00  0.00    +0.000 A 
ATOM      4  C   UNL     1       1.118   9.168  19.885  0.00  0.00    +0.000 A 
ATOM      5  C   UNL     1       1.975   8.465  19.032  0.00  0.00    +0.000 A 
ATOM      6  C   UNL     1       2.336   7.121  19.276  0.00  0.00    +0.000 A 
ENDROOT
BRANCH   6   7
ATOM      7  C   UNL     1       3.373   6.555  18.338  0.00  0.00    +0.000 A 
ATOM      8  N   UNL     1       4.508   7.188  18.189  0.00  0.00    +0.000 NA
ATOM      9  C   UNL     1       5.443   6.526  17.397  0.00  0.00    +0.000 A 
ATOM     10  C   UNL     1       6.747   6.905  17.035  0.00  0.00    +0.000 A 
ATOM     11  N   UNL     1       7.328   5.937  16.299  0.00  0.00    +0.000 NA
ATOM     12  N   UNL     1       6.366   4.984  16.189  0.00  0.00    +0.000 N 
ATOM     13  C   UNL     1       6.639   3.772  15.456  0.00  0.00    +0.000 C 
ATOM     14  C   UNL     1       5.208   5.315  16.821  0.00  0.00    +0.000 A 
ATOM     15  C   UNL     1       3.965   4.641  16.938  0.00  0.00    +0.000 A 
ATOM     16  O   UNL     1       3.690   3.557  16.432  0.00  0.00    +0.000 OA
ATOM     17  N   UNL     1       3.074   5.349  17.713  0.00  0.00    +0.000 N 
ATOM     18  H   UNL     1       2.165   4.926  17.854  0.00  0.00    +0.000 HD
BRANCH  10  19
ATOM     19  C   UNL     1       7.462   8.184  17.313  0.00  0.00    +0.000 C 
ATOM     20  C   UNL     1       8.430   8.107  18.483  0.00  0.00    +0.000 C 
ENDBRANCH  10  19
ENDBRANCH   6   7
BRANCH   1  21
ATOM     21  O   UNL     1       2.122   5.144  20.632  0.00  0.00    +0.000 OA
BRANCH  21  23
ATOM     22  C   UNL     1       1.449   2.885  21.215  0.00  0.00    +0.000 C 
ATOM     23  C   UNL     1       1.041   4.197  20.571  0.00  0.00    +0.000 C 
ENDBRANCH  21  23
ENDBRANCH   1  21
BRANCH   4  24
ATOM     24  C   UNL     1       0.791  10.621  19.631  0.00  0.00    +0.000 C 
BRANCH  24  25
ATOM     25  N   UNL     1      -0.354  11.113  20.432  0.00  0.00    +0.000 NA
ATOM     26  C   UNL     1       0.118  11.921  21.568  0.00  0.00    +0.000 C 
ATOM     27  C   UNL     1      -1.018  12.600  22.338  0.00  0.00    +0.000 C 
ATOM     28  C   UNL     1      -1.934  13.415  21.427  0.00  0.00    +0.000 C 
ATOM     29  C   UNL     1      -2.410  12.532  20.274  0.00  0.00    +0.000 C 
ATOM     30  C   UNL     1      -1.250  11.863  19.538  0.00  0.00    +0.000 C 
BRANCH  28  31
ATOM     31  C   UNL     1      -1.285  14.705  20.926  0.00  0.00    +0.000 C 
ATOM     32  O   UNL     1      -0.433  15.339  21.547  0.00  0.00    +0.000 OA
ATOM     33  N   UNL     1      -1.689  15.102  19.675  0.00  0.00    +0.000 N 
ATOM     34  H   UNL     1      -2.515  14.763  19.198  0.00  0.00    +0.000 HD
BRANCH  33  35
ATOM     35  O   UNL     1      -1.130  16.310  19.200  0.00  0.00    +0.000 OA
ATOM     36  H   UNL     1      -1.711  16.525  18.436  0.00  0.00    +0.000 HD
ENDBRANCH  33  35
ENDBRANCH  28  31
ENDBRANCH  24  25
ENDBRANCH   4  24
TORSDOF 8
ENDMDL
MODEL 9
REMARK VINA RESULT:      -7.4      3.730      9.240
REMARK  Name = 
REMARK  11 active torsions:
REMARK  status: ('A' for Active; 'I' for Inactive)
REMARK    1  A    between atoms: C_1  and  C_2
REMARK    2  A    between atoms: C_2  and  O_3
REMARK    3  A    between atoms: O_3  and  C_4
REMARK    4  A    between atoms: C_7  and  C_8
REMARK    5  A    between atoms: C_8  and  N_9
REMARK    6  A    between atoms: C_12  and  C_13
REMARK    7  A    between atoms: N_15  and  O_16
REMARK    8  A    between atoms: C_20  and  C_21
REMARK    9  A    between atoms: C_24  and  C_25
REMARK   10  A    between atoms: C_25  and  C_26
REMARK   11  A    between atoms: N_28  and  C_29
REMARK                            x       y       z     vdW  Elec       q    Type
REMARK                         _______ _______ _______ _____ _____    ______ ____
ROOT
ATOM      1  C   UNL     1       1.801   6.824  20.404  0.00  0.00    +0.000 A 
ATOM      2  C   UNL     1       0.933   7.613  21.182  0.00  0.00    +0.000 A 
ATOM      3  C   UNL     1       0.570   8.901  20.794  0.00  0.00    +0.000 A 
ATOM      4  C   UNL     1       1.056   9.441  19.608  0.00  0.00    +0.000 A 
ATOM      5  C   UNL     1       1.904   8.661  18.814  0.00  0.00    +0.000 A 
ATOM      6  C   UNL     1       2.306   7.363  19.200  0.00  0.00    +0.000 A 
ENDROOT
BRANCH   6   7
ATOM      7  C   UNL     1       3.328   6.714  18.301  0.00  0.00    +0.000 A 
ATOM      8  N   UNL     1       4.491   7.292  18.140  0.00  0.00    +0.000 NA
ATOM      9  C   UNL     1       5.405   6.558  17.389  0.00  0.00    +0.000 A 
ATOM     10  C   UNL     1       6.728   6.866  17.028  0.00  0.00    +0.000 A 
ATOM     11  N   UNL     1       7.275   5.843  16.342  0.00  0.00    +0.000 NA
ATOM     12  N   UNL     1       6.275   4.927  16.261  0.00  0.00    +0.000 N 
ATOM     13  C   UNL     1       6.505   3.674  15.585  0.00  0.00    +0.000 C 
ATOM     14  C   UNL     1       5.126   5.334  16.863  0.00  0.00    +0.000 A 
ATOM     15  C   UNL     1       3.854   4.718  16.993  0.00  0.00    +0.000 A 
ATOM     16  O   UNL     1       3.539   3.625  16.530  0.00  0.00    +0.000 OA
ATOM     17  N   UNL     1       2.986   5.496  17.725  0.00  0.00    +0.000 N 
ATOM     18  H   UNL     1       2.057   5.117  17.872  0.00  0.00    +0.000 HD
BRANCH  10  19
ATOM     19  C   UNL     1       7.493   8.125  17.260  0.00  0.00    +0.000 C 
ATOM     20  C   UNL     1       8.381   8.089  18.493  0.00  0.00    +0.000 C 
ENDBRANCH  10  19
ENDBRANCH   6   7
BRANCH   1  21
ATOM     21  O   UNL     1       2.181   5.553  20.782  0.00  0.00    +0.000 OA
BRANCH  21  23
ATOM     22  C   UNL     1       1.619   3.244  21.276  0.00  0.00    +0.000 C 
ATOM     23  C   UNL     1       1.207   4.518  20.564  0.00  0.00    +0.000 C 
ENDBRANCH  21  23
ENDBRANCH   1  21
BRANCH   4  24
ATOM     24  C   UNL     1       0.685  10.847  19.198  0.00  0.00    +0.000 C 
BRANCH  24  25
ATOM     25  N   UNL     1       1.758  11.835  19.454  0.00  0.00    +0.000 NA
ATOM     26  C   UNL     1       2.121  12.540  18.215  0.00  0.00    +0.000 C 
ATOM     27  C   UNL     1       3.104  13.692  18.442  0.00  0.00    +0.000 C 
ATOM     28  C   UNL     1       2.618  14.671  19.509  0.00  0.00    +0.000 C 
ATOM     29  C   UNL     1       2.270  13.896  20.780  0.00  0.00    +0.000 C 
ATOM     30  C   UNL     1       1.297  12.748  20.511  0.00  0.00    +0.000 C 
BRANCH  28  31
ATOM     31  C   UNL     1       1.455  15.542  19.037  0.00  0.00    +0.000 C 
ATOM     32  O   UNL     1       0.277  15.351  19.339  0.00  0.00    +0.000 OA
ATOM     33  N   UNL     1       1.821  16.616  18.263  0.00  0.00    +0.000 N 
ATOM     34  H   UNL     1       2.718  16.723  17.807  0.00  0.00    +0.000 HD
BRANCH  33  35
ATOM     35  O   UNL     1       0.762  17.421  17.783  0.00  0.00    +0.000 OA
ATOM     36  H   UNL     1       0.251  17.607  18.602  0.00  0.00    +0.000 HD
ENDBRANCH  33  35
ENDBRANCH  28  31
ENDBRANCH  24  25
ENDBRANCH   4  24
TORSDOF 8
ENDMDL
