MODEL 1
REMARK VINA RESULT:      -8.7      0.000      0.000
REMARK  Name = 
REMARK  13 active torsions:
REMARK  status: ('A' for Active; 'I' for Inactive)
REMARK    1  A    between atoms: C_1  and  C_2
REMARK    2  A    between atoms: C_5  and  N_6
REMARK    3  A    between atoms: N_6  and  C_7
REMARK    4  A    between atoms: C_8  and  C_10
REMARK    5  A    between atoms: C_10  and  C_11
REMARK    6  A    between atoms: C_10  and  N_18
REMARK    7  A    between atoms: C_11  and  C_12
REMARK    8  A    between atoms: C_19  and  C_21
REMARK    9  A    between atoms: C_21  and  C_22
REMARK   10  A    between atoms: C_23  and  C_24
REMARK   11  A    between atoms: N_25  and  C_26
REMARK   12  A    between atoms: C_26  and  C_27
REMARK   13  A    between atoms: C_26  and  C_28
REMARK                            x       y       z     vdW  Elec       q    Type
REMARK                         _______ _______ _______ _____ _____    ______ ____
ROOT
ATOM      1  C   UNL     1       2.304   7.180  19.618  0.00  0.00    +0.000 C 
ENDROOT
BRANCH   1   4
ATOM      2  N   UNL     1       4.154   5.807  18.356  0.00  0.00    +0.000 N 
ATOM      3  C   UNL     1       4.932   5.684  19.579  0.00  0.00    +0.000 C 
ATOM      4  C   UNL     1       2.820   6.284  18.403  0.00  0.00    +0.000 C 
ATOM      5  O   UNL     1       2.038   6.132  17.448  0.00  0.00    +0.000 OA
BRANCH   2  10
ATOM      6  C   UNL     1       6.203   3.799  13.263  0.00  0.00    +0.000 C 
ATOM      7  C   UNL     1       5.742   4.306  14.602  0.00  0.00    +0.000 A 
ATOM      8  C   UNL     1       5.429   3.437  15.648  0.00  0.00    +0.000 A 
ATOM      9  C   UNL     1       4.949   3.925  16.883  0.00  0.00    +0.000 A 
ATOM     10  C   UNL     1       4.761   5.298  17.125  0.00  0.00    +0.000 A 
ATOM     11  C   UNL     1       5.124   6.154  16.063  0.00  0.00    +0.000 A 
ATOM     12  C   UNL     1       5.596   5.675  14.828  0.00  0.00    +0.000 A 
ENDBRANCH   2  10
ENDBRANCH   1   4
BRANCH   1  13
ATOM     13  N   UNL     1       1.827   8.585  19.394  0.00  0.00    +0.000 N 
ATOM     14  C   UNL     1       1.319   9.349  20.441  0.00  0.00    +0.000 C 
ATOM     15  O   UNL     1       1.318   8.959  21.605  0.00  0.00    +0.000 OA
ATOM     16  H   UNL     1       1.669   8.915  18.450  0.00  0.00    +0.000 HD
BRANCH  14  17
ATOM     17  C   UNL     1       0.926  10.788  20.145  0.00  0.00    +0.000 C 
BRANCH  17  18
ATOM     18  C   UNL     1      -0.422  11.218  19.635  0.00  0.00    +0.000 A 
ATOM     19  C   UNL     1      -0.760  12.578  19.702  0.00  0.00    +0.000 A 
ATOM     20  C   UNL     1      -0.300  13.486  18.564  0.00  0.00    +0.000 C 
ATOM     21  N   UNL     1      -2.098  12.472  20.060  0.00  0.00    +0.000 N 
ATOM     22  C   UNL     1      -2.577  11.732  18.997  0.00  0.00    +0.000 A 
ATOM     23  C   UNL     1      -3.811  11.779  18.341  0.00  0.00    +0.000 A 
ATOM     24  C   UNL     1      -4.033  10.815  17.390  0.00  0.00    +0.000 A 
ATOM     25  C   UNL     1      -3.089   9.788  17.198  0.00  0.00    +0.000 A 
ATOM     26  C   UNL     1      -1.889   9.719  17.935  0.00  0.00    +0.000 A 
ATOM     27  C   UNL     1      -1.557  10.764  18.818  0.00  0.00    +0.000 A 
BRANCH  21  28
ATOM     28  C   UNL     1      -2.726  12.289  21.392  0.00  0.00    +0.000 C 
ATOM     29  C   UNL     1      -1.743  12.384  22.585  0.00  0.00    +0.000 C 
ATOM     30  C   UNL     1      -3.915  13.208  21.673  0.00  0.00    +0.000 C 
ENDBRANCH  21  28
ENDBRANCH  17  18
ENDBRANCH  14  17
ENDBRANCH   1  13
BRANCH   1  31
ATOM     31  C   UNL     1       1.322   6.314  20.456  0.00  0.00    +0.000 C 
BRANCH  31  32
ATOM     32  C   UNL     1       1.475   4.805  20.510  0.00  0.00    +0.000 A 
ATOM     33  C   UNL     1       0.812   3.913  19.666  0.00  0.00    +0.000 A 
ATOM     34  C   UNL     1       1.010   2.533  19.762  0.00  0.00    +0.000 A 
ATOM     35  C   UNL     1       1.869   2.016  20.721  0.00  0.00    +0.000 A 
ATOM     36  C   UNL     1       2.513   2.881  21.599  0.00  0.00    +0.000 A 
ATOM     37  C   UNL     1       2.319   4.262  21.494  0.00  0.00    +0.000 A 
ENDBRANCH  31  32
ENDBRANCH   1  31
TORSDOF 8
ENDMDL
MODEL 2
REMARK VINA RESULT:      -8.6      1.841      3.423
REMARK  Name = 
REMARK  13 active torsions:
REMARK  status: ('A' for Active; 'I' for Inactive)
REMARK    1  A    between atoms: C_1  and  C_2
REMARK    2  A    between atoms: C_5  and  N_6
REMARK    3  A    between atoms: N_6  and  C_7
REMARK    4  A    between atoms: C_8  and  C_10
REMARK    5  A    between atoms: C_10  and  C_11
REMARK    6  A    between atoms: C_10  and  N_18
REMARK    7  A    between atoms: C_11  and  C_12
REMARK    8  A    between atoms: C_19  and  C_21
REMARK    9  A    between atoms: C_21  and  C_22
REMARK   10  A    between atoms: C_23  and  C_24
REMARK   11  A    between atoms: N_25  and  C_26
REMARK   12  A    between atoms: C_26  and  C_27
REMARK   13  A    between atoms: C_26  and  C_28
REMARK                            x       y       z     vdW  Elec       q    Type
REMARK                         _______ _______ _______ _____ _____    ______ ____
ROOT
ATOM      1  C   UNL     1       4.131   6.190  18.189  0.00  0.00    +0.000 C 
ENDROOT
BRANCH   1   4
ATOM      2  N   UNL     1       5.781   5.619  16.227  0.00  0.00    +0.000 N 
ATOM      3  C   UNL     1       6.805   6.474  16.806  0.00  0.00    +0.000 C 
ATOM      4  C   UNL     1       4.625   5.281  16.975  0.00  0.00    +0.000 C 
ATOM      5  O   UNL     1       3.883   4.341  16.641  0.00  0.00    +0.000 OA
BRANCH   2  10
ATOM      6  C   UNL     1       7.030   2.930  11.189  0.00  0.00    +0.000 C 
ATOM      7  C   UNL     1       6.694   3.682  12.447  0.00  0.00    +0.000 A 
ATOM      8  C   UNL     1       7.591   4.576  13.031  0.00  0.00    +0.000 A 
ATOM      9  C   UNL     1       7.282   5.237  14.240  0.00  0.00    +0.000 A 
ATOM     10  C   UNL     1       6.065   5.032  14.915  0.00  0.00    +0.000 A 
ATOM     11  C   UNL     1       5.160   4.153  14.280  0.00  0.00    +0.000 A 
ATOM     12  C   UNL     1       5.465   3.487  13.080  0.00  0.00    +0.000 A 
ENDBRANCH   2  10
ENDBRANCH   1   4
BRANCH   1  13
ATOM     13  N   UNL     1       2.804   6.889  18.141  0.00  0.00    +0.000 N 
ATOM     14  C   UNL     1       2.719   8.260  17.913  0.00  0.00    +0.000 C 
ATOM     15  O   UNL     1       3.700   8.948  17.649  0.00  0.00    +0.000 OA
ATOM     16  H   UNL     1       1.977   6.416  18.485  0.00  0.00    +0.000 HD
BRANCH  14  17
ATOM     17  C   UNL     1       1.333   8.878  17.806  0.00  0.00    +0.000 C 
BRANCH  17  18
ATOM     18  C   UNL     1       0.672   9.685  18.889  0.00  0.00    +0.000 A 
ATOM     19  C   UNL     1      -0.130  10.774  18.516  0.00  0.00    +0.000 A 
ATOM     20  C   UNL     1      -1.588  10.497  18.157  0.00  0.00    +0.000 C 
ATOM     21  N   UNL     1       0.221  11.679  19.511  0.00  0.00    +0.000 N 
ATOM     22  C   UNL     1      -0.137  10.958  20.633  0.00  0.00    +0.000 A 
ATOM     23  C   UNL     1      -0.670  11.384  21.854  0.00  0.00    +0.000 A 
ATOM     24  C   UNL     1      -0.800  10.427  22.829  0.00  0.00    +0.000 A 
ATOM     25  C   UNL     1      -0.308   9.127  22.608  0.00  0.00    +0.000 A 
ATOM     26  C   UNL     1       0.303   8.748  21.394  0.00  0.00    +0.000 A 
ATOM     27  C   UNL     1       0.328   9.656  20.318  0.00  0.00    +0.000 A 
BRANCH  21  28
ATOM     28  C   UNL     1       1.374  12.608  19.602  0.00  0.00    +0.000 C 
ATOM     29  C   UNL     1       2.269  12.649  18.339  0.00  0.00    +0.000 C 
ATOM     30  C   UNL     1       1.012  14.044  19.984  0.00  0.00    +0.000 C 
ENDBRANCH  21  28
ENDBRANCH  17  18
ENDBRANCH  14  17
ENDBRANCH   1  13
BRANCH   1  31
ATOM     31  C   UNL     1       4.368   5.391  19.501  0.00  0.00    +0.000 C 
BRANCH  31  32
ATOM     32  C   UNL     1       3.302   4.454  20.039  0.00  0.00    +0.000 A 
ATOM     33  C   UNL     1       3.509   3.104  20.327  0.00  0.00    +0.000 A 
ATOM     34  C   UNL     1       2.484   2.301  20.834  0.00  0.00    +0.000 A 
ATOM     35  C   UNL     1       1.220   2.834  21.047  0.00  0.00    +0.000 A 
ATOM     36  C   UNL     1       0.979   4.166  20.731  0.00  0.00    +0.000 A 
ATOM     37  C   UNL     1       2.009   4.968  20.233  0.00  0.00    +0.000 A 
ENDBRANCH  31  32
ENDBRANCH   1  31
TORSDOF 8
ENDMDL
MODEL 3
REMARK VINA RESULT:      -8.5      1.018      1.178
REMARK  Name = 
REMARK  13 active torsions:
REMARK  status: ('A' for Active; 'I' for Inactive)
REMARK    1  A    between atoms: C_1  and  C_2
REMARK    2  A    between atoms: C_5  and  N_6
REMARK    3  A    between atoms: N_6  and  C_7
REMARK    4  A    between atoms: C_8  and  C_10
REMARK    5  A    between atoms: C_10  and  C_11
REMARK    6  A    between atoms: C_10  and  N_18
REMARK    7  A    between atoms: C_11  and  C_12
REMARK    8  A    between atoms: C_19  and  C_21
REMARK    9  A    between atoms: C_21  and  C_22
REMARK   10  A    between atoms: C_23  and  C_24
REMARK   11  A    between atoms: N_25  and  C_26
REMARK   12  A    between atoms: C_26  and  C_27
REMARK   13  A    between atoms: C_26  and  C_28
REMARK                            x       y       z     vdW  Elec       q    Type
REMARK                         _______ _______ _______ _____ _____    ______ ____
ROOT
ATOM      1  C   UNL     1       2.118   7.086  20.364  0.00  0.00    +0.000 C 
ENDROOT
BRANCH   1   4
ATOM      2  N   UNL     1       3.333   6.808  18.052  0.00  0.00    +0.000 N 
ATOM      3  C   UNL     1       2.664   7.990  17.530  0.00  0.00    +0.000 C 
ATOM      4  C   UNL     1       3.282   6.511  19.437  0.00  0.00    +0.000 C 
ATOM      5  O   UNL     1       4.063   5.696  19.959  0.00  0.00    +0.000 OA
BRANCH   2  10
ATOM      6  C   UNL     1       6.304   3.786  14.025  0.00  0.00    +0.000 C 
ATOM      7  C   UNL     1       5.592   4.547  15.109  0.00  0.00    +0.000 A 
ATOM      8  C   UNL     1       4.839   3.900  16.089  0.00  0.00    +0.000 A 
ATOM      9  C   UNL     1       4.135   4.631  17.071  0.00  0.00    +0.000 A 
ATOM     10  C   UNL     1       4.152   6.037  17.114  0.00  0.00    +0.000 A 
ATOM     11  C   UNL     1       4.954   6.663  16.135  0.00  0.00    +0.000 A 
ATOM     12  C   UNL     1       5.652   5.941  15.151  0.00  0.00    +0.000 A 
ENDBRANCH   2  10
ENDBRANCH   1   4
BRANCH   1  13
ATOM     13  N   UNL     1       1.653   8.507  20.230  0.00  0.00    +0.000 N 
ATOM     14  C   UNL     1       1.184   9.219  21.330  0.00  0.00    +0.000 C 
ATOM     15  O   UNL     1       1.210   8.767  22.471  0.00  0.00    +0.000 OA
ATOM     16  H   UNL     1       1.474   8.889  19.309  0.00  0.00    +0.000 HD
BRANCH  14  17
ATOM     17  C   UNL     1       0.802  10.677  21.123  0.00  0.00    +0.000 C 
BRANCH  17  18
ATOM     18  C   UNL     1      -0.300  11.150  20.215  0.00  0.00    +0.000 A 
ATOM     19  C   UNL     1      -0.634  12.513  20.224  0.00  0.00    +0.000 A 
ATOM     20  C   UNL     1       0.180  13.455  19.341  0.00  0.00    +0.000 C 
ATOM     21  N   UNL     1      -2.017  12.417  20.116  0.00  0.00    +0.000 N 
ATOM     22  C   UNL     1      -2.121  11.727  18.925  0.00  0.00    +0.000 A 
ATOM     23  C   UNL     1      -3.070  11.822  17.902  0.00  0.00    +0.000 A 
ATOM     24  C   UNL     1      -2.970  10.899  16.891  0.00  0.00    +0.000 A 
ATOM     25  C   UNL     1      -2.020   9.863  16.978  0.00  0.00    +0.000 A 
ATOM     26  C   UNL     1      -1.130   9.744  18.066  0.00  0.00    +0.000 A 
ATOM     27  C   UNL     1      -1.103  10.749  19.051  0.00  0.00    +0.000 A 
BRANCH  21  28
ATOM     28  C   UNL     1      -3.049  12.195  21.159  0.00  0.00    +0.000 C 
ATOM     29  C   UNL     1      -2.540  12.350  22.613  0.00  0.00    +0.000 C 
ATOM     30  C   UNL     1      -4.315  13.038  20.998  0.00  0.00    +0.000 C 
ENDBRANCH  21  28
ENDBRANCH  17  18
ENDBRANCH  14  17
ENDBRANCH   1  13
BRANCH   1  31
ATOM     31  C   UNL     1       0.961   6.049  20.363  0.00  0.00    +0.000 C 
BRANCH  31  32
ATOM     32  C   UNL     1       1.235   4.586  20.068  0.00  0.00    +0.000 A 
ATOM     33  C   UNL     1       1.137   4.002  18.804  0.00  0.00    +0.000 A 
ATOM     34  C   UNL     1       1.417   2.648  18.602  0.00  0.00    +0.000 A 
ATOM     35  C   UNL     1       1.787   1.844  19.670  0.00  0.00    +0.000 A 
ATOM     36  C   UNL     1       1.854   2.393  20.946  0.00  0.00    +0.000 A 
ATOM     37  C   UNL     1       1.582   3.750  21.143  0.00  0.00    +0.000 A 
ENDBRANCH  31  32
ENDBRANCH   1  31
TORSDOF 8
ENDMDL
MODEL 4
REMARK VINA RESULT:      -8.5      2.505      9.467
REMARK  Name = 
REMARK  13 active torsions:
REMARK  status: ('A' for Active; 'I' for Inactive)
REMARK    1  A    between atoms: C_1  and  C_2
REMARK    2  A    between atoms: C_5  and  N_6
REMARK    3  A    between atoms: N_6  and  C_7
REMARK    4  A    between atoms: C_8  and  C_10
REMARK    5  A    between atoms: C_10  and  C_11
REMARK    6  A    between atoms: C_10  and  N_18
REMARK    7  A    between atoms: C_11  and  C_12
REMARK    8  A    between atoms: C_19  and  C_21
REMARK    9  A    between atoms: C_21  and  C_22
REMARK   10  A    between atoms: C_23  and  C_24
REMARK   11  A    between atoms: N_25  and  C_26
REMARK   12  A    between atoms: C_26  and  C_27
REMARK   13  A    between atoms: C_26  and  C_28
REMARK                            x       y       z     vdW  Elec       q    Type
REMARK                         _______ _______ _______ _____ _____    ______ ____
ROOT
ATOM      1  C   UNL     1       0.351  10.601  19.593  0.00  0.00    +0.000 C 
ENDROOT
BRANCH   1   4
ATOM      2  N   UNL     1       1.124  13.106  19.450  0.00  0.00    +0.000 N 
ATOM      3  C   UNL     1       0.316  13.315  18.259  0.00  0.00    +0.000 C 
ATOM      4  C   UNL     1       0.967  11.929  20.224  0.00  0.00    +0.000 C 
ATOM      5  O   UNL     1       1.414  11.844  21.382  0.00  0.00    +0.000 OA
BRANCH   2  10
ATOM      6  C   UNL     1       4.474  17.711  20.775  0.00  0.00    +0.000 C 
ATOM      7  C   UNL     1       3.637  16.493  20.494  0.00  0.00    +0.000 A 
ATOM      8  C   UNL     1       4.184  15.339  19.934  0.00  0.00    +0.000 A 
ATOM      9  C   UNL     1       3.376  14.221  19.629  0.00  0.00    +0.000 A 
ATOM     10  C   UNL     1       1.991  14.211  19.870  0.00  0.00    +0.000 A 
ATOM     11  C   UNL     1       1.472  15.377  20.474  0.00  0.00    +0.000 A 
ATOM     12  C   UNL     1       2.270  16.495  20.774  0.00  0.00    +0.000 A 
ENDBRANCH   2  10
ENDBRANCH   1   4
BRANCH   1  13
ATOM     13  N   UNL     1       0.849   9.246  20.003  0.00  0.00    +0.000 N 
ATOM     14  C   UNL     1       1.707   8.515  19.187  0.00  0.00    +0.000 C 
ATOM     15  O   UNL     1       2.173   8.967  18.144  0.00  0.00    +0.000 OA
ATOM     16  H   UNL     1       0.401   8.761  20.772  0.00  0.00    +0.000 HD
BRANCH  14  17
ATOM     17  C   UNL     1       2.224   7.184  19.710  0.00  0.00    +0.000 C 
BRANCH  17  18
ATOM     18  C   UNL     1       2.861   6.120  18.858  0.00  0.00    +0.000 A 
ATOM     19  C   UNL     1       2.134   4.950  18.595  0.00  0.00    +0.000 A 
ATOM     20  C   UNL     1       1.151   4.967  17.427  0.00  0.00    +0.000 C 
ATOM     21  N   UNL     1       3.156   4.012  18.680  0.00  0.00    +0.000 N 
ATOM     22  C   UNL     1       4.005   4.488  17.701  0.00  0.00    +0.000 A 
ATOM     23  C   UNL     1       4.832   3.801  16.806  0.00  0.00    +0.000 A 
ATOM     24  C   UNL     1       5.662   4.572  16.030  0.00  0.00    +0.000 A 
ATOM     25  C   UNL     1       5.725   5.963  16.236  0.00  0.00    +0.000 A 
ATOM     26  C   UNL     1       4.938   6.618  17.207  0.00  0.00    +0.000 A 
ATOM     27  C   UNL     1       3.972   5.887  17.924  0.00  0.00    +0.000 A 
BRANCH  21  28
ATOM     28  C   UNL     1       3.743   3.336  19.863  0.00  0.00    +0.000 C 
ATOM     29  C   UNL     1       2.755   3.110  21.033  0.00  0.00    +0.000 C 
ATOM     30  C   UNL     1       4.445   2.010  19.562  0.00  0.00    +0.000 C 
ENDBRANCH  21  28
ENDBRANCH  17  18
ENDBRANCH  14  17
ENDBRANCH   1  13
BRANCH   1  31
ATOM     31  C   UNL     1      -1.197  10.735  19.634  0.00  0.00    +0.000 C 
BRANCH  31  32
ATOM     32  C   UNL     1      -2.013  10.671  18.356  0.00  0.00    +0.000 A 
ATOM     33  C   UNL     1      -1.669   9.914  17.236  0.00  0.00    +0.000 A 
ATOM     34  C   UNL     1      -2.475   9.891  16.094  0.00  0.00    +0.000 A 
ATOM     35  C   UNL     1      -3.639  10.644  16.047  0.00  0.00    +0.000 A 
ATOM     36  C   UNL     1      -3.984  11.438  17.135  0.00  0.00    +0.000 A 
ATOM     37  C   UNL     1      -3.180  11.451  18.279  0.00  0.00    +0.000 A 
ENDBRANCH  31  32
ENDBRANCH   1  31
TORSDOF 8
ENDMDL
MODEL 5
REMARK VINA RESULT:      -8.4      1.307      2.547
REMARK  Name = 
REMARK  13 active torsions:
REMARK  status: ('A' for Active; 'I' for Inactive)
REMARK    1  A    between atoms: C_1  and  C_2
REMARK    2  A    between atoms: C_5  and  N_6
REMARK    3  A    between atoms: N_6  and  C_7
REMARK    4  A    between atoms: C_8  and  C_10
REMARK    5  A    between atoms: C_10  and  C_11
REMARK    6  A    between atoms: C_10  and  N_18
REMARK    7  A    between atoms: C_11  and  C_12
REMARK    8  A    between atoms: C_19  and  C_21
REMARK    9  A    between atoms: C_21  and  C_22
REMARK   10  A    between atoms: C_23  and  C_24
REMARK   11  A    between atoms: N_25  and  C_26
REMARK   12  A    between atoms: C_26  and  C_27
REMARK   13  A    between atoms: C_26  and  C_28
REMARK                            x       y       z     vdW  Elec       q    Type
REMARK                         _______ _______ _______ _____ _____    ______ ____
ROOT
ATOM      1  C   UNL     1       2.577   6.927  19.546  0.00  0.00    +0.000 C 
ENDROOT
BRANCH   1   4
ATOM      2  N   UNL     1       4.468   5.733  18.169  0.00  0.00    +0.000 N 
ATOM      3  C   UNL     1       5.364   5.775  19.314  0.00  0.00    +0.000 C 
ATOM      4  C   UNL     1       3.093   6.040  18.325  0.00  0.00    +0.000 C 
ATOM      5  O   UNL     1       2.254   5.739  17.457  0.00  0.00    +0.000 OA
BRANCH   2  10
ATOM      6  C   UNL     1       6.291   3.750  12.980  0.00  0.00    +0.000 C 
ATOM      7  C   UNL     1       5.891   4.257  14.338  0.00  0.00    +0.000 A 
ATOM      8  C   UNL     1       5.736   3.398  15.427  0.00  0.00    +0.000 A 
ATOM      9  C   UNL     1       5.310   3.881  16.684  0.00  0.00    +0.000 A 
ATOM     10  C   UNL     1       5.022   5.239  16.906  0.00  0.00    +0.000 A 
ATOM     11  C   UNL     1       5.226   6.091  15.798  0.00  0.00    +0.000 A 
ATOM     12  C   UNL     1       5.643   5.615  14.542  0.00  0.00    +0.000 A 
ENDBRANCH   2  10
ENDBRANCH   1   4
BRANCH   1  13
ATOM     13  N   UNL     1       1.656   8.090  19.322  0.00  0.00    +0.000 N 
ATOM     14  C   UNL     1       1.907   9.027  18.324  0.00  0.00    +0.000 C 
ATOM     15  O   UNL     1       2.829   8.908  17.522  0.00  0.00    +0.000 OA
ATOM     16  H   UNL     1       0.966   8.324  20.026  0.00  0.00    +0.000 HD
BRANCH  14  17
ATOM     17  C   UNL     1       0.886  10.134  18.114  0.00  0.00    +0.000 C 
BRANCH  17  18
ATOM     18  C   UNL     1       0.084  10.776  19.213  0.00  0.00    +0.000 A 
ATOM     19  C   UNL     1      -0.940  11.667  18.860  0.00  0.00    +0.000 A 
ATOM     20  C   UNL     1      -2.310  11.083  18.522  0.00  0.00    +0.000 C 
ATOM     21  N   UNL     1      -0.776  12.622  19.856  0.00  0.00    +0.000 N 
ATOM     22  C   UNL     1      -0.951  11.837  20.979  0.00  0.00    +0.000 A 
ATOM     23  C   UNL     1      -1.543  12.134  22.210  0.00  0.00    +0.000 A 
ATOM     24  C   UNL     1      -1.447  11.168  23.180  0.00  0.00    +0.000 A 
ATOM     25  C   UNL     1      -0.689  10.006  22.943  0.00  0.00    +0.000 A 
ATOM     26  C   UNL     1      -0.032   9.772  21.716  0.00  0.00    +0.000 A 
ATOM     27  C   UNL     1      -0.221  10.668  20.647  0.00  0.00    +0.000 A 
BRANCH  21  28
ATOM     28  C   UNL     1       0.150  13.779  19.935  0.00  0.00    +0.000 C 
ATOM     29  C   UNL     1       1.021  13.994  18.673  0.00  0.00    +0.000 C 
ATOM     30  C   UNL     1      -0.513  15.109  20.297  0.00  0.00    +0.000 C 
ENDBRANCH  21  28
ENDBRANCH  17  18
ENDBRANCH  14  17
ENDBRANCH   1  13
BRANCH   1  31
ATOM     31  C   UNL     1       2.097   5.956  20.662  0.00  0.00    +0.000 C 
BRANCH  31  32
ATOM     32  C   UNL     1       1.916   4.477  20.374  0.00  0.00    +0.000 A 
ATOM     33  C   UNL     1       0.773   3.916  19.805  0.00  0.00    +0.000 A 
ATOM     34  C   UNL     1       0.679   2.545  19.555  0.00  0.00    +0.000 A 
ATOM     35  C   UNL     1       1.729   1.701  19.888  0.00  0.00    +0.000 A 
ATOM     36  C   UNL     1       2.864   2.230  20.493  0.00  0.00    +0.000 A 
ATOM     37  C   UNL     1       2.957   3.604  20.732  0.00  0.00    +0.000 A 
ENDBRANCH  31  32
ENDBRANCH   1  31
TORSDOF 8
ENDMDL
MODEL 6
REMARK VINA RESULT:      -8.4      1.147      1.679
REMARK  Name = 
REMARK  13 active torsions:
REMARK  status: ('A' for Active; 'I' for Inactive)
REMARK    1  A    between atoms: C_1  and  C_2
REMARK    2  A    between atoms: C_5  and  N_6
REMARK    3  A    between atoms: N_6  and  C_7
REMARK    4  A    between atoms: C_8  and  C_10
REMARK    5  A    between atoms: C_10  and  C_11
REMARK    6  A    between atoms: C_10  and  N_18
REMARK    7  A    between atoms: C_11  and  C_12
REMARK    8  A    between atoms: C_19  and  C_21
REMARK    9  A    between atoms: C_21  and  C_22
REMARK   10  A    between atoms: C_23  and  C_24
REMARK   11  A    between atoms: N_25  and  C_26
REMARK   12  A    between atoms: C_26  and  C_27
REMARK   13  A    between atoms: C_26  and  C_28
REMARK                            x       y       z     vdW  Elec       q    Type
REMARK                         _______ _______ _______ _____ _____    ______ ____
ROOT
ATOM      1  C   UNL     1       2.320   7.121  19.728  0.00  0.00    +0.000 C 
ENDROOT
BRANCH   1   4
ATOM      2  N   UNL     1       4.075   5.812  18.276  0.00  0.00    +0.000 N 
ATOM      3  C   UNL     1       4.962   5.682  19.421  0.00  0.00    +0.000 C 
ATOM      4  C   UNL     1       2.741   6.260  18.452  0.00  0.00    +0.000 C 
ATOM      5  O   UNL     1       1.880   6.111  17.568  0.00  0.00    +0.000 OA
BRANCH   2  10
ATOM      6  C   UNL     1       6.455   3.868  13.303  0.00  0.00    +0.000 C 
ATOM      7  C   UNL     1       5.781   4.381  14.546  0.00  0.00    +0.000 A 
ATOM      8  C   UNL     1       5.631   5.747  14.790  0.00  0.00    +0.000 A 
ATOM      9  C   UNL     1       5.042   6.215  15.985  0.00  0.00    +0.000 A 
ATOM     10  C   UNL     1       4.578   5.340  16.984  0.00  0.00    +0.000 A 
ATOM     11  C   UNL     1       4.707   3.964  16.692  0.00  0.00    +0.000 A 
ATOM     12  C   UNL     1       5.299   3.492  15.507  0.00  0.00    +0.000 A 
ENDBRANCH   2  10
ENDBRANCH   1   4
BRANCH   1  13
ATOM     13  N   UNL     1       1.880   8.548  19.586  0.00  0.00    +0.000 N 
ATOM     14  C   UNL     1       2.178   9.285  18.442  0.00  0.00    +0.000 C 
ATOM     15  O   UNL     1       2.726   8.790  17.462  0.00  0.00    +0.000 OA
ATOM     16  H   UNL     1       1.553   9.054  20.401  0.00  0.00    +0.000 HD
BRANCH  14  17
ATOM     17  C   UNL     1       1.631  10.701  18.347  0.00  0.00    +0.000 C 
BRANCH  17  18
ATOM     18  C   UNL     1       0.187  11.074  18.538  0.00  0.00    +0.000 A 
ATOM     19  C   UNL     1      -0.111  12.321  19.107  0.00  0.00    +0.000 A 
ATOM     20  C   UNL     1      -0.163  13.535  18.183  0.00  0.00    +0.000 C 
ATOM     21  N   UNL     1      -1.189  11.963  19.909  0.00  0.00    +0.000 N 
ATOM     22  C   UNL     1      -2.048  11.460  18.952  0.00  0.00    +0.000 A 
ATOM     23  C   UNL     1      -3.442  11.516  18.865  0.00  0.00    +0.000 A 
ATOM     24  C   UNL     1      -4.018  10.800  17.846  0.00  0.00    +0.000 A 
ATOM     25  C   UNL     1      -3.221   9.980  17.026  0.00  0.00    +0.000 A 
ATOM     26  C   UNL     1      -1.823   9.878  17.191  0.00  0.00    +0.000 A 
ATOM     27  C   UNL     1      -1.176  10.702  18.131  0.00  0.00    +0.000 A 
BRANCH  21  28
ATOM     28  C   UNL     1      -1.220  11.376  21.272  0.00  0.00    +0.000 C 
ATOM     29  C   UNL     1      -0.315  10.134  21.459  0.00  0.00    +0.000 C 
ATOM     30  C   UNL     1      -0.926  12.363  22.403  0.00  0.00    +0.000 C 
ENDBRANCH  21  28
ENDBRANCH  17  18
ENDBRANCH  14  17
ENDBRANCH   1  13
BRANCH   1  31
ATOM     31  C   UNL     1       1.355   6.252  20.583  0.00  0.00    +0.000 C 
BRANCH  31  32
ATOM     32  C   UNL     1       1.548   4.750  20.680  0.00  0.00    +0.000 A 
ATOM     33  C   UNL     1       2.450   4.123  21.541  0.00  0.00    +0.000 A 
ATOM     34  C   UNL     1       2.568   2.732  21.588  0.00  0.00    +0.000 A 
ATOM     35  C   UNL     1       1.791   1.937  20.757  0.00  0.00    +0.000 A 
ATOM     36  C   UNL     1       0.913   2.539  19.863  0.00  0.00    +0.000 A 
ATOM     37  C   UNL     1       0.792   3.931  19.825  0.00  0.00    +0.000 A 
ENDBRANCH  31  32
ENDBRANCH   1  31
TORSDOF 8
ENDMDL
MODEL 7
REMARK VINA RESULT:      -8.4      1.765      3.273
REMARK  Name = 
REMARK  13 active torsions:
REMARK  status: ('A' for Active; 'I' for Inactive)
REMARK    1  A    between atoms: C_1  and  C_2
REMARK    2  A    between atoms: C_5  and  N_6
REMARK    3  A    between atoms: N_6  and  C_7
REMARK    4  A    between atoms: C_8  and  C_10
REMARK    5  A    between atoms: C_10  and  C_11
REMARK    6  A    between atoms: C_10  and  N_18
REMARK    7  A    between atoms: C_11  and  C_12
REMARK    8  A    between atoms: C_19  and  C_21
REMARK    9  A    between atoms: C_21  and  C_22
REMARK   10  A    between atoms: C_23  and  C_24
REMARK   11  A    between atoms: N_25  and  C_26
REMARK   12  A    between atoms: C_26  and  C_27
REMARK   13  A    between atoms: C_26  and  C_28
REMARK                            x       y       z     vdW  Elec       q    Type
REMARK                         _______ _______ _______ _____ _____    ______ ____
ROOT
ATOM      1  C   UNL     1       3.252   5.542  17.958  0.00  0.00    +0.000 C 
ENDROOT
BRANCH   1   4
ATOM      2  N   UNL     1       5.143   5.498  16.136  0.00  0.00    +0.000 N 
ATOM      3  C   UNL     1       5.655   6.779  16.601  0.00  0.00    +0.000 C 
ATOM      4  C   UNL     1       4.183   4.791  16.904  0.00  0.00    +0.000 C 
ATOM      5  O   UNL     1       3.942   3.588  16.700  0.00  0.00    +0.000 OA
BRANCH   2  10
ATOM      6  C   UNL     1       7.485   3.587  11.133  0.00  0.00    +0.000 C 
ATOM      7  C   UNL     1       6.899   4.014  12.450  0.00  0.00    +0.000 A 
ATOM      8  C   UNL     1       5.628   3.606  12.856  0.00  0.00    +0.000 A 
ATOM      9  C   UNL     1       5.070   4.056  14.072  0.00  0.00    +0.000 A 
ATOM     10  C   UNL     1       5.756   4.932  14.933  0.00  0.00    +0.000 A 
ATOM     11  C   UNL     1       7.055   5.296  14.516  0.00  0.00    +0.000 A 
ATOM     12  C   UNL     1       7.613   4.857  13.302  0.00  0.00    +0.000 A 
ENDBRANCH   2  10
ENDBRANCH   1   4
BRANCH   1  13
ATOM     13  N   UNL     1       2.792   6.950  17.719  0.00  0.00    +0.000 N 
ATOM     14  C   UNL     1       2.277   7.727  18.754  0.00  0.00    +0.000 C 
ATOM     15  O   UNL     1       2.256   7.344  19.920  0.00  0.00    +0.000 OA
ATOM     16  H   UNL     1       2.652   7.276  16.770  0.00  0.00    +0.000 HD
BRANCH  14  17
ATOM     17  C   UNL     1       1.903   9.168  18.442  0.00  0.00    +0.000 C 
BRANCH  17  18
ATOM     18  C   UNL     1       0.993  10.016  19.288  0.00  0.00    +0.000 A 
ATOM     19  C   UNL     1       0.092  10.877  18.643  0.00  0.00    +0.000 A 
ATOM     20  C   UNL     1      -1.248  10.302  18.192  0.00  0.00    +0.000 C 
ATOM     21  N   UNL     1       0.171  11.977  19.489  0.00  0.00    +0.000 N 
ATOM     22  C   UNL     1      -0.218  11.398  20.680  0.00  0.00    +0.000 A 
ATOM     23  C   UNL     1      -0.964  11.919  21.742  0.00  0.00    +0.000 A 
ATOM     24  C   UNL     1      -1.076  11.125  22.855  0.00  0.00    +0.000 A 
ATOM     25  C   UNL     1      -0.370   9.909  22.925  0.00  0.00    +0.000 A 
ATOM     26  C   UNL     1       0.444   9.448  21.869  0.00  0.00    +0.000 A 
ATOM     27  C   UNL     1       0.474  10.160  20.655  0.00  0.00    +0.000 A 
BRANCH  21  28
ATOM     28  C   UNL     1       1.151  13.091  19.528  0.00  0.00    +0.000 C 
ATOM     29  C   UNL     1       2.181  13.084  18.373  0.00  0.00    +0.000 C 
ATOM     30  C   UNL     1       0.532  14.487  19.613  0.00  0.00    +0.000 C 
ENDBRANCH  21  28
ENDBRANCH  17  18
ENDBRANCH  14  17
ENDBRANCH   1  13
BRANCH   1  31
ATOM     31  C   UNL     1       2.104   4.569  18.348  0.00  0.00    +0.000 C 
BRANCH  31  32
ATOM     32  C   UNL     1       2.192   3.737  19.614  0.00  0.00    +0.000 A 
ATOM     33  C   UNL     1       3.335   3.056  20.034  0.00  0.00    +0.000 A 
ATOM     34  C   UNL     1       3.351   2.318  21.220  0.00  0.00    +0.000 A 
ATOM     35  C   UNL     1       2.210   2.234  22.005  0.00  0.00    +0.000 A 
ATOM     36  C   UNL     1       1.047   2.872  21.589  0.00  0.00    +0.000 A 
ATOM     37  C   UNL     1       1.038   3.617  20.406  0.00  0.00    +0.000 A 
ENDBRANCH  31  32
ENDBRANCH   1  31
TORSDOF 8
ENDMDL
MODEL 8
REMARK VINA RESULT:      -8.4      2.434      9.462
REMARK  Name = 
REMARK  13 active torsions:
REMARK  status: ('A' for Active; 'I' for Inactive)
REMARK    1  A    between atoms: C_1  and  C_2
REMARK    2  A    between atoms: C_5  and  N_6
REMARK    3  A    between atoms: N_6  and  C_7
REMARK    4  A    between atoms: C_8  and  C_10
REMARK    5  A    between atoms: C_10  and  C_11
REMARK    6  A    between atoms: C_10  and  N_18
REMARK    7  A    between atoms: C_11  and  C_12
REMARK    8  A    between atoms: C_19  and  C_21
REMARK    9  A    between atoms: C_21  and  C_22
REMARK   10  A    between atoms: C_23  and  C_24
REMARK   11  A    between atoms: N_25  and  C_26
REMARK   12  A    between atoms: C_26  and  C_27
REMARK   13  A    between atoms: C_26  and  C_28
REMARK                            x       y       z     vdW  Elec       q    Type
REMARK                         _______ _______ _______ _____ _____    ______ ____
ROOT
ATOM      1  C   UNL     1       0.402  10.224  18.768  0.00  0.00    +0.000 C 
ENDROOT
BRANCH   1   4
ATOM      2  N   UNL     1       1.712  12.494  18.934  0.00  0.00    +0.000 N 
ATOM      3  C   UNL     1       2.609  12.084  17.864  0.00  0.00    +0.000 C 
ATOM      4  C   UNL     1       0.535  11.752  19.203  0.00  0.00    +0.000 C 
ATOM      5  O   UNL     1      -0.388  12.220  19.895  0.00  0.00    +0.000 OA
BRANCH   2  10
ATOM      6  C   UNL     1       3.267  17.559  21.404  0.00  0.00    +0.000 C 
ATOM      7  C   UNL     1       2.810  16.254  20.814  0.00  0.00    +0.000 A 
ATOM      8  C   UNL     1       3.049  15.035  21.450  0.00  0.00    +0.000 A 
ATOM      9  C   UNL     1       2.659  13.814  20.860  0.00  0.00    +0.000 A 
ATOM     10  C   UNL     1       2.015  13.757  19.610  0.00  0.00    +0.000 A 
ATOM     11  C   UNL     1       1.750  15.007  19.009  0.00  0.00    +0.000 A 
ATOM     12  C   UNL     1       2.142  16.227  19.589  0.00  0.00    +0.000 A 
ENDBRANCH   2  10
ENDBRANCH   1   4
BRANCH   1  13
ATOM     13  N   UNL     1       1.330   9.180  19.318  0.00  0.00    +0.000 N 
ATOM     14  C   UNL     1       2.133   8.413  18.477  0.00  0.00    +0.000 C 
ATOM     15  O   UNL     1       2.197   8.607  17.267  0.00  0.00    +0.000 OA
ATOM     16  H   UNL     1       1.226   8.875  20.278  0.00  0.00    +0.000 HD
BRANCH  14  17
ATOM     17  C   UNL     1       3.098   7.429  19.119  0.00  0.00    +0.000 C 
BRANCH  17  18
ATOM     18  C   UNL     1       3.341   6.028  18.630  0.00  0.00    +0.000 A 
ATOM     19  C   UNL     1       4.665   5.581  18.512  0.00  0.00    +0.000 A 
ATOM     20  C   UNL     1       5.342   5.013  19.757  0.00  0.00    +0.000 C 
ATOM     21  N   UNL     1       4.564   4.850  17.334  0.00  0.00    +0.000 N 
ATOM     22  C   UNL     1       3.596   3.935  17.698  0.00  0.00    +0.000 A 
ATOM     23  C   UNL     1       3.441   2.590  17.347  0.00  0.00    +0.000 A 
ATOM     24  C   UNL     1       2.291   1.977  17.776  0.00  0.00    +0.000 A 
ATOM     25  C   UNL     1       1.298   2.728  18.434  0.00  0.00    +0.000 A 
ATOM     26  C   UNL     1       1.447   4.106  18.701  0.00  0.00    +0.000 A 
ATOM     27  C   UNL     1       2.668   4.740  18.405  0.00  0.00    +0.000 A 
BRANCH  21  28
ATOM     28  C   UNL     1       4.627   5.293  15.919  0.00  0.00    +0.000 C 
ATOM     29  C   UNL     1       5.080   6.760  15.723  0.00  0.00    +0.000 C 
ATOM     30  C   UNL     1       5.468   4.402  15.004  0.00  0.00    +0.000 C 
ENDBRANCH  21  28
ENDBRANCH  17  18
ENDBRANCH  14  17
ENDBRANCH   1  13
BRANCH   1  31
ATOM     31  C   UNL     1      -1.100   9.836  18.863  0.00  0.00    +0.000 C 
BRANCH  31  32
ATOM     32  C   UNL     1      -2.062  10.191  17.746  0.00  0.00    +0.000 A 
ATOM     33  C   UNL     1      -1.949   9.738  16.430  0.00  0.00    +0.000 A 
ATOM     34  C   UNL     1      -2.880  10.095  15.452  0.00  0.00    +0.000 A 
ATOM     35  C   UNL     1      -3.941  10.931  15.770  0.00  0.00    +0.000 A 
ATOM     36  C   UNL     1      -4.055  11.427  17.064  0.00  0.00    +0.000 A 
ATOM     37  C   UNL     1      -3.126  11.060  18.042  0.00  0.00    +0.000 A 
ENDBRANCH  31  32
ENDBRANCH   1  31
TORSDOF 8
ENDMDL
MODEL 9
REMARK VINA RESULT:      -8.4      1.265      1.868
REMARK  Name = 
REMARK  13 active torsions:
REMARK  status: ('A' for Active; 'I' for Inactive)
REMARK    1  A    between atoms: C_1  and  C_2
REMARK    2  A    between atoms: C_5  and  N_6
REMARK    3  A    between atoms: N_6  and  C_7
REMARK    4  A    between atoms: C_8  and  C_10
REMARK    5  A    between atoms: C_10  and  C_11
REMARK    6  A    between atoms: C_10  and  N_18
REMARK    7  A    between atoms: C_11  and  C_12
REMARK    8  A    between atoms: C_19  and  C_21
REMARK    9  A    between atoms: C_21  and  C_22
REMARK   10  A    between atoms: C_23  and  C_24
REMARK   11  A    between atoms: N_25  and  C_26
REMARK   12  A    between atoms: C_26  and  C_27
REMARK   13  A    between atoms: C_26  and  C_28
REMARK                            x       y       z     vdW  Elec       q    Type
REMARK                         _______ _______ _______ _____ _____    ______ ____
ROOT
ATOM      1  C   UNL     1       2.303   6.995  19.624  0.00  0.00    +0.000 C 
ENDROOT
BRANCH   1   4
ATOM      2  N   UNL     1       4.199   5.726  18.322  0.00  0.00    +0.000 N 
ATOM      3  C   UNL     1       5.048   5.731  19.504  0.00  0.00    +0.000 C 
ATOM      4  C   UNL     1       2.832   6.089  18.423  0.00  0.00    +0.000 C 
ATOM      5  O   UNL     1       2.018   5.823  17.520  0.00  0.00    +0.000 OA
BRANCH   2  10
ATOM      6  C   UNL     1       6.159   3.710  13.197  0.00  0.00    +0.000 C 
ATOM      7  C   UNL     1       5.721   4.216  14.544  0.00  0.00    +0.000 A 
ATOM      8  C   UNL     1       5.386   3.347  15.582  0.00  0.00    +0.000 A 
ATOM      9  C   UNL     1       4.927   3.836  16.825  0.00  0.00    +0.000 A 
ATOM     10  C   UNL     1       4.784   5.211  17.082  0.00  0.00    +0.000 A 
ATOM     11  C   UNL     1       5.168   6.067  16.027  0.00  0.00    +0.000 A 
ATOM     12  C   UNL     1       5.619   5.587  14.785  0.00  0.00    +0.000 A 
ENDBRANCH   2  10
ENDBRANCH   1   4
BRANCH   1  13
ATOM     13  N   UNL     1       1.738   8.362  19.370  0.00  0.00    +0.000 N 
ATOM     14  C   UNL     1       2.184   9.140  18.305  0.00  0.00    +0.000 C 
ATOM     15  O   UNL     1       2.983   8.724  17.471  0.00  0.00    +0.000 OA
ATOM     16  H   UNL     1       1.188   8.817  20.089  0.00  0.00    +0.000 HD
BRANCH  14  17
ATOM     17  C   UNL     1       1.509  10.483  18.074  0.00  0.00    +0.000 C 
BRANCH  17  18
ATOM     18  C   UNL     1       0.449  11.071  18.965  0.00  0.00    +0.000 A 
ATOM     19  C   UNL     1       0.853  11.810  20.087  0.00  0.00    +0.000 A 
ATOM     20  C   UNL     1       1.175  13.289  19.889  0.00  0.00    +0.000 C 
ATOM     21  N   UNL     1      -0.098  11.383  21.006  0.00  0.00    +0.000 N 
ATOM     22  C   UNL     1      -1.255  11.763  20.356  0.00  0.00    +0.000 A 
ATOM     23  C   UNL     1      -2.465  12.244  20.864  0.00  0.00    +0.000 A 
ATOM     24  C   UNL     1      -3.482  12.415  19.957  0.00  0.00    +0.000 A 
ATOM     25  C   UNL     1      -3.306  12.009  18.621  0.00  0.00    +0.000 A 
ATOM     26  C   UNL     1      -2.098  11.448  18.155  0.00  0.00    +0.000 A 
ATOM     27  C   UNL     1      -0.986  11.387  19.015  0.00  0.00    +0.000 A 
BRANCH  21  28
ATOM     28  C   UNL     1      -0.130  10.172  21.864  0.00  0.00    +0.000 C 
ATOM     29  C   UNL     1       1.262   9.585  22.202  0.00  0.00    +0.000 C 
ATOM     30  C   UNL     1      -0.917  10.328  23.166  0.00  0.00    +0.000 C 
ENDBRANCH  21  28
ENDBRANCH  17  18
ENDBRANCH  14  17
ENDBRANCH   1  13
BRANCH   1  31
ATOM     31  C   UNL     1       1.400   6.104  20.522  0.00  0.00    +0.000 C 
BRANCH  31  32
ATOM     32  C   UNL     1       1.566   4.596  20.530  0.00  0.00    +0.000 A 
ATOM     33  C   UNL     1       0.884   3.721  19.682  0.00  0.00    +0.000 A 
ATOM     34  C   UNL     1       1.095   2.341  19.735  0.00  0.00    +0.000 A 
ATOM     35  C   UNL     1       1.986   1.805  20.654  0.00  0.00    +0.000 A 
ATOM     36  C   UNL     1       2.648   2.652  21.535  0.00  0.00    +0.000 A 
ATOM     37  C   UNL     1       2.441   4.033  21.474  0.00  0.00    +0.000 A 
ENDBRANCH  31  32
ENDBRANCH   1  31
TORSDOF 8
ENDMDL
