MODEL 1
REMARK VINA RESULT:      -4.7      0.000      0.000
REMARK  Name = 
REMARK  2 active torsions:
REMARK  status: ('A' for Active; 'I' for Inactive)
REMARK    1  A    between atoms: C_1  and  O_2
REMARK    2  A    between atoms: O_2  and  C_3
REMARK                            x       y       z     vdW  Elec       q    Type
REMARK                         _______ _______ _______ _____ _____    ______ ____
ROOT
ATOM      1  C   UNL     1       5.984   4.597  18.281  0.00  0.00    +0.000 A 
ATOM      2  C   UNL     1       5.102   4.852  19.336  0.00  0.00    +0.000 A 
ATOM      3  C   UNL     1       3.719   4.778  19.135  0.00  0.00    +0.000 A 
ATOM      4  C   UNL     1       3.215   4.452  17.878  0.00  0.00    +0.000 A 
ATOM      5 CL   UNL     1       1.513   4.364  17.641  0.00  0.00    +0.000 Cl
ATOM      6  C   UNL     1       4.076   4.202  16.816  0.00  0.00    +0.000 A 
ATOM      7  C   UNL     1       5.456   4.279  17.017  0.00  0.00    +0.000 A 
ATOM      8 CL   UNL     1       6.489   3.963  15.667  0.00  0.00    +0.000 Cl
ENDROOT
BRANCH   1  10
ATOM      9  C   UNL     1       7.858   5.792  19.122  0.00  0.00    +0.000 C 
ATOM     10  O   UNL     1       7.347   4.686  18.389  0.00  0.00    +0.000 OA
ENDBRANCH   1  10
TORSDOF 1
ENDMDL
MODEL 2
REMARK VINA RESULT:      -4.7      1.753      1.783
REMARK  Name = 
REMARK  2 active torsions:
REMARK  status: ('A' for Active; 'I' for Inactive)
REMARK    1  A    between atoms: C_1  and  O_2
REMARK    2  A    between atoms: O_2  and  C_3
REMARK                            x       y       z     vdW  Elec       q    Type
REMARK                         _______ _______ _______ _____ _____    ______ ____
ROOT
ATOM      1  C   UNL     1       4.989   6.015  16.909  0.00  0.00    +0.000 A 
ATOM      2  C   UNL     1       3.978   6.641  17.645  0.00  0.00    +0.000 A 
ATOM      3  C   UNL     1       2.859   5.914  18.066  0.00  0.00    +0.000 A 
ATOM      4  C   UNL     1       2.746   4.562  17.749  0.00  0.00    +0.000 A 
ATOM      5 CL   UNL     1       1.365   3.678  18.270  0.00  0.00    +0.000 Cl
ATOM      6  C   UNL     1       3.738   3.926  17.011  0.00  0.00    +0.000 A 
ATOM      7  C   UNL     1       4.853   4.653  16.589  0.00  0.00    +0.000 A 
ATOM      8 CL   UNL     1       6.060   3.821  15.672  0.00  0.00    +0.000 Cl
ENDROOT
BRANCH   1  10
ATOM      9  C   UNL     1       7.154   6.889  17.353  0.00  0.00    +0.000 C 
ATOM     10  O   UNL     1       6.096   6.666  16.430  0.00  0.00    +0.000 OA
ENDBRANCH   1  10
TORSDOF 1
ENDMDL
MODEL 3
REMARK VINA RESULT:      -4.7      4.180      4.788
REMARK  Name = 
REMARK  2 active torsions:
REMARK  status: ('A' for Active; 'I' for Inactive)
REMARK    1  A    between atoms: C_1  and  O_2
REMARK    2  A    between atoms: O_2  and  C_3
REMARK                            x       y       z     vdW  Elec       q    Type
REMARK                         _______ _______ _______ _____ _____    ______ ____
ROOT
ATOM      1  C   UNL     1       2.236   3.388  19.023  0.00  0.00    +0.000 A 
ATOM      2  C   UNL     1       2.467   4.370  18.053  0.00  0.00    +0.000 A 
ATOM      3  C   UNL     1       2.391   5.726  18.390  0.00  0.00    +0.000 A 
ATOM      4  C   UNL     1       2.080   6.104  19.694  0.00  0.00    +0.000 A 
ATOM      5 CL   UNL     1       1.988   7.774  20.097  0.00  0.00    +0.000 Cl
ATOM      6  C   UNL     1       1.840   5.142  20.669  0.00  0.00    +0.000 A 
ATOM      7  C   UNL     1       1.914   3.789  20.331  0.00  0.00    +0.000 A 
ATOM      8 CL   UNL     1       1.606   2.628  21.575  0.00  0.00    +0.000 Cl
ENDROOT
BRANCH   1  10
ATOM      9  C   UNL     1       3.525   1.465  18.483  0.00  0.00    +0.000 C 
ATOM     10  O   UNL     1       2.256   2.043  18.764  0.00  0.00    +0.000 OA
ENDBRANCH   1  10
TORSDOF 1
ENDMDL
MODEL 4
REMARK VINA RESULT:      -4.7      2.832      3.185
REMARK  Name = 
REMARK  2 active torsions:
REMARK  status: ('A' for Active; 'I' for Inactive)
REMARK    1  A    between atoms: C_1  and  O_2
REMARK    2  A    between atoms: O_2  and  C_3
REMARK                            x       y       z     vdW  Elec       q    Type
REMARK                         _______ _______ _______ _____ _____    ______ ____
ROOT
ATOM      1  C   UNL     1       4.064   4.950  17.297  0.00  0.00    +0.000 A 
ATOM      2  C   UNL     1       4.134   3.558  17.180  0.00  0.00    +0.000 A 
ATOM      3  C   UNL     1       3.080   2.758  17.636  0.00  0.00    +0.000 A 
ATOM      4  C   UNL     1       1.957   3.346  18.213  0.00  0.00    +0.000 A 
ATOM      5 CL   UNL     1       0.668   2.353  18.771  0.00  0.00    +0.000 Cl
ATOM      6  C   UNL     1       1.874   4.728  18.344  0.00  0.00    +0.000 A 
ATOM      7  C   UNL     1       2.928   5.526  17.891  0.00  0.00    +0.000 A 
ATOM      8 CL   UNL     1       2.782   7.239  18.077  0.00  0.00    +0.000 Cl
ENDROOT
BRANCH   1  10
ATOM      9  C   UNL     1       5.452   5.747  15.540  0.00  0.00    +0.000 C 
ATOM     10  O   UNL     1       5.068   5.798  16.909  0.00  0.00    +0.000 OA
ENDBRANCH   1  10
TORSDOF 1
ENDMDL
MODEL 5
REMARK VINA RESULT:      -4.7      1.773      1.865
REMARK  Name = 
REMARK  2 active torsions:
REMARK  status: ('A' for Active; 'I' for Inactive)
REMARK    1  A    between atoms: C_1  and  O_2
REMARK    2  A    between atoms: O_2  and  C_3
REMARK                            x       y       z     vdW  Elec       q    Type
REMARK                         _______ _______ _______ _____ _____    ______ ____
ROOT
ATOM      1  C   UNL     1       6.472   5.934  16.864  0.00  0.00    +0.000 A 
ATOM      2  C   UNL     1       5.632   6.020  17.980  0.00  0.00    +0.000 A 
ATOM      3  C   UNL     1       4.494   5.211  18.071  0.00  0.00    +0.000 A 
ATOM      4  C   UNL     1       4.190   4.318  17.046  0.00  0.00    +0.000 A 
ATOM      5 CL   UNL     1       2.788   3.329  17.167  0.00  0.00    +0.000 Cl
ATOM      6  C   UNL     1       5.009   4.225  15.926  0.00  0.00    +0.000 A 
ATOM      7  C   UNL     1       6.143   5.035  15.835  0.00  0.00    +0.000 A 
ATOM      8 CL   UNL     1       7.131   4.887  14.424  0.00  0.00    +0.000 Cl
ENDROOT
BRANCH   1  10
ATOM      9  C   UNL     1       7.709   7.849  17.537  0.00  0.00    +0.000 C 
ATOM     10  O   UNL     1       7.582   6.717  16.686  0.00  0.00    +0.000 OA
ENDBRANCH   1  10
TORSDOF 1
ENDMDL
MODEL 6
REMARK VINA RESULT:      -4.6      3.631      4.346
REMARK  Name = 
REMARK  2 active torsions:
REMARK  status: ('A' for Active; 'I' for Inactive)
REMARK    1  A    between atoms: C_1  and  O_2
REMARK    2  A    between atoms: O_2  and  C_3
REMARK                            x       y       z     vdW  Elec       q    Type
REMARK                         _______ _______ _______ _____ _____    ______ ____
ROOT
ATOM      1  C   UNL     1       1.967   3.926  19.811  0.00  0.00    +0.000 A 
ATOM      2  C   UNL     1       1.915   5.107  20.558  0.00  0.00    +0.000 A 
ATOM      3  C   UNL     1       2.210   6.336  19.958  0.00  0.00    +0.000 A 
ATOM      4  C   UNL     1       2.562   6.387  18.612  0.00  0.00    +0.000 A 
ATOM      5 CL   UNL     1       2.925   7.903  17.883  0.00  0.00    +0.000 Cl
ATOM      6  C   UNL     1       2.627   5.222  17.855  0.00  0.00    +0.000 A 
ATOM      7  C   UNL     1       2.335   3.996  18.456  0.00  0.00    +0.000 A 
ATOM      8 CL   UNL     1       2.431   2.573  17.477  0.00  0.00    +0.000 Cl
ENDROOT
BRANCH   1  10
ATOM      9  C   UNL     1       1.582   2.603  21.747  0.00  0.00    +0.000 C 
ATOM     10  O   UNL     1       1.728   2.683  20.335  0.00  0.00    +0.000 OA
ENDBRANCH   1  10
TORSDOF 1
ENDMDL
MODEL 7
REMARK VINA RESULT:      -4.6      3.143      4.150
REMARK  Name = 
REMARK  2 active torsions:
REMARK  status: ('A' for Active; 'I' for Inactive)
REMARK    1  A    between atoms: C_1  and  O_2
REMARK    2  A    between atoms: O_2  and  C_3
REMARK                            x       y       z     vdW  Elec       q    Type
REMARK                         _______ _______ _______ _____ _____    ______ ____
ROOT
ATOM      1  C   UNL     1       2.172   3.592  18.899  0.00  0.00    +0.000 A 
ATOM      2  C   UNL     1       1.958   4.967  18.758  0.00  0.00    +0.000 A 
ATOM      3  C   UNL     1       2.828   5.742  17.984  0.00  0.00    +0.000 A 
ATOM      4  C   UNL     1       3.916   5.145  17.351  0.00  0.00    +0.000 A 
ATOM      5 CL   UNL     1       4.982   6.106  16.402  0.00  0.00    +0.000 Cl
ATOM      6  C   UNL     1       4.150   3.781  17.487  0.00  0.00    +0.000 A 
ATOM      7  C   UNL     1       3.281   3.009  18.263  0.00  0.00    +0.000 A 
ATOM      8 CL   UNL     1       3.611   1.318  18.404  0.00  0.00    +0.000 Cl
ENDROOT
BRANCH   1  10
ATOM      9  C   UNL     1       1.424   2.991  21.074  0.00  0.00    +0.000 C 
ATOM     10  O   UNL     1       1.387   2.774  19.669  0.00  0.00    +0.000 OA
ENDBRANCH   1  10
TORSDOF 1
ENDMDL
MODEL 8
REMARK VINA RESULT:      -4.6      1.965      2.732
REMARK  Name = 
REMARK  2 active torsions:
REMARK  status: ('A' for Active; 'I' for Inactive)
REMARK    1  A    between atoms: C_1  and  O_2
REMARK    2  A    between atoms: O_2  and  C_3
REMARK                            x       y       z     vdW  Elec       q    Type
REMARK                         _______ _______ _______ _____ _____    ______ ____
ROOT
ATOM      1  C   UNL     1       6.229   4.756  16.974  0.00  0.00    +0.000 A 
ATOM      2  C   UNL     1       5.016   4.163  16.608  0.00  0.00    +0.000 A 
ATOM      3  C   UNL     1       3.961   4.089  17.524  0.00  0.00    +0.000 A 
ATOM      4  C   UNL     1       4.117   4.605  18.809  0.00  0.00    +0.000 A 
ATOM      5 CL   UNL     1       2.815   4.508  19.929  0.00  0.00    +0.000 Cl
ATOM      6  C   UNL     1       5.319   5.190  19.192  0.00  0.00    +0.000 A 
ATOM      7  C   UNL     1       6.372   5.261  18.278  0.00  0.00    +0.000 A 
ATOM      8 CL   UNL     1       7.847   5.996  18.799  0.00  0.00    +0.000 Cl
ENDROOT
BRANCH   1  10
ATOM      9  C   UNL     1       7.061   4.812  14.748  0.00  0.00    +0.000 C 
ATOM     10  O   UNL     1       7.318   4.833  16.146  0.00  0.00    +0.000 OA
ENDBRANCH   1  10
TORSDOF 1
ENDMDL
MODEL 9
REMARK VINA RESULT:      -4.6      1.632      3.162
REMARK  Name = 
REMARK  2 active torsions:
REMARK  status: ('A' for Active; 'I' for Inactive)
REMARK    1  A    between atoms: C_1  and  O_2
REMARK    2  A    between atoms: O_2  and  C_3
REMARK                            x       y       z     vdW  Elec       q    Type
REMARK                         _______ _______ _______ _____ _____    ______ ____
ROOT
ATOM      1  C   UNL     1       6.371   4.704  17.966  0.00  0.00    +0.000 A 
ATOM      2  C   UNL     1       7.381   4.814  17.004  0.00  0.00    +0.000 A 
ATOM      3  C   UNL     1       7.099   4.571  15.655  0.00  0.00    +0.000 A 
ATOM      4  C   UNL     1       5.811   4.214  15.265  0.00  0.00    +0.000 A 
ATOM      5 CL   UNL     1       5.476   3.915  13.604  0.00  0.00    +0.000 Cl
ATOM      6  C   UNL     1       4.797   4.091  16.209  0.00  0.00    +0.000 A 
ATOM      7  C   UNL     1       5.080   4.331  17.555  0.00  0.00    +0.000 A 
ATOM      8 CL   UNL     1       3.789   4.165  18.693  0.00  0.00    +0.000 Cl
ENDROOT
BRANCH   1  10
ATOM      9  C   UNL     1       7.704   5.671  19.680  0.00  0.00    +0.000 C 
ATOM     10  O   UNL     1       6.576   4.890  19.308  0.00  0.00    +0.000 OA
ENDBRANCH   1  10
TORSDOF 1
ENDMDL
