MODEL 1
REMARK VINA RESULT:      -6.9      0.000      0.000
REMARK  Name = 
REMARK  2 active torsions:
REMARK  status: ('A' for Active; 'I' for Inactive)
REMARK    1  A    between atoms: C_5  and  O_6
REMARK    2  A    between atoms: O_6  and  C_7
REMARK                            x       y       z     vdW  Elec       q    Type
REMARK                         _______ _______ _______ _____ _____    ______ ____
ROOT
ATOM      1  C   UNL     1       4.688   4.379  19.046  0.00  0.00    +0.000 A 
ATOM      2  N   UNL     1       5.147   3.189  19.236  0.00  0.00    +0.000 NA
ATOM      3  C   UNL     1       4.400   2.354  20.029  0.00  0.00    +0.000 A 
ATOM      4  N   UNL     1       3.277   2.631  20.617  0.00  0.00    +0.000 NA
ATOM      5  N   UNL     1       2.838   3.885  20.410  0.00  0.00    +0.000 N 
ATOM      6  C   UNL     1       1.690   4.435  20.911  0.00  0.00    +0.000 A 
ATOM      7  C   UNL     1       1.618   5.744  20.481  0.00  0.00    +0.000 A 
ATOM      8  C   UNL     1       2.764   5.987  19.679  0.00  0.00    +0.000 A 
ATOM      9  C   UNL     1       3.484   4.813  19.653  0.00  0.00    +0.000 A 
ENDROOT
BRANCH   1  10
ATOM     10  O   UNL     1       5.275   5.358  18.256  0.00  0.00    +0.000 OA
BRANCH  10  15
ATOM     11  C   UNL     1       5.582   4.296  14.705  0.00  0.00    +0.000 A 
ATOM     12  C   UNL     1       6.857   4.793  14.482  0.00  0.00    +0.000 A 
ATOM     13  N   UNL     1       7.589   5.435  15.420  0.00  0.00    +0.000 NA
ATOM     14  C   UNL     1       7.019   5.574  16.641  0.00  0.00    +0.000 A 
ATOM     15  C   UNL     1       5.756   5.094  16.960  0.00  0.00    +0.000 A 
ATOM     16  C   UNL     1       5.014   4.464  15.966  0.00  0.00    +0.000 A 
ENDBRANCH  10  15
ENDBRANCH   1  10
TORSDOF 2
ENDMDL
MODEL 2
REMARK VINA RESULT:      -6.9      2.158      2.564
REMARK  Name = 
REMARK  2 active torsions:
REMARK  status: ('A' for Active; 'I' for Inactive)
REMARK    1  A    between atoms: C_5  and  O_6
REMARK    2  A    between atoms: O_6  and  C_7
REMARK                            x       y       z     vdW  Elec       q    Type
REMARK                         _______ _______ _______ _____ _____    ______ ____
ROOT
ATOM      1  C   UNL     1       3.620   4.087  17.995  0.00  0.00    +0.000 A 
ATOM      2  N   UNL     1       3.916   2.935  17.494  0.00  0.00    +0.000 NA
ATOM      3  C   UNL     1       3.224   1.852  17.975  0.00  0.00    +0.000 A 
ATOM      4  N   UNL     1       2.301   1.855  18.887  0.00  0.00    +0.000 NA
ATOM      5  N   UNL     1       2.031   3.070  19.397  0.00  0.00    +0.000 N 
ATOM      6  C   UNL     1       1.109   3.355  20.367  0.00  0.00    +0.000 A 
ATOM      7  C   UNL     1       1.157   4.710  20.620  0.00  0.00    +0.000 A 
ATOM      8  C   UNL     1       2.140   5.264  19.759  0.00  0.00    +0.000 A 
ATOM      9  C   UNL     1       2.648   4.221  19.015  0.00  0.00    +0.000 A 
ENDROOT
BRANCH   1  10
ATOM     10  O   UNL     1       4.181   5.301  17.623  0.00  0.00    +0.000 OA
BRANCH  10  15
ATOM     11  C   UNL     1       7.551   6.871  17.740  0.00  0.00    +0.000 A 
ATOM     12  C   UNL     1       7.958   6.324  18.948  0.00  0.00    +0.000 A 
ATOM     13  N   UNL     1       7.197   5.490  19.691  0.00  0.00    +0.000 NA
ATOM     14  C   UNL     1       5.975   5.183  19.193  0.00  0.00    +0.000 A 
ATOM     15  C   UNL     1       5.491   5.668  17.986  0.00  0.00    +0.000 A 
ATOM     16  C   UNL     1       6.285   6.548  17.258  0.00  0.00    +0.000 A 
ENDBRANCH  10  15
ENDBRANCH   1  10
TORSDOF 2
ENDMDL
MODEL 3
REMARK VINA RESULT:      -6.8      1.777      5.446
REMARK  Name = 
REMARK  2 active torsions:
REMARK  status: ('A' for Active; 'I' for Inactive)
REMARK    1  A    between atoms: C_5  and  O_6
REMARK    2  A    between atoms: O_6  and  C_7
REMARK                            x       y       z     vdW  Elec       q    Type
REMARK                         _______ _______ _______ _____ _____    ______ ____
ROOT
ATOM      1  C   UNL     1       6.198   4.750  18.184  0.00  0.00    +0.000 A 
ATOM      2  N   UNL     1       6.772   5.772  18.723  0.00  0.00    +0.000 NA
ATOM      3  C   UNL     1       7.424   6.636  17.879  0.00  0.00    +0.000 A 
ATOM      4  N   UNL     1       7.531   6.538  16.590  0.00  0.00    +0.000 NA
ATOM      5  N   UNL     1       6.935   5.453  16.065  0.00  0.00    +0.000 N 
ATOM      6  C   UNL     1       6.898   5.109  14.742  0.00  0.00    +0.000 A 
ATOM      7  C   UNL     1       6.208   3.920  14.626  0.00  0.00    +0.000 A 
ATOM      8  C   UNL     1       5.804   3.540  15.932  0.00  0.00    +0.000 A 
ATOM      9  C   UNL     1       6.263   4.516  16.789  0.00  0.00    +0.000 A 
ENDROOT
BRANCH   1  10
ATOM     10  O   UNL     1       5.466   3.782  18.857  0.00  0.00    +0.000 OA
BRANCH  10  15
ATOM     11  C   UNL     1       1.850   4.513  18.380  0.00  0.00    +0.000 A 
ATOM     12  C   UNL     1       1.401   3.201  18.403  0.00  0.00    +0.000 A 
ATOM     13  N   UNL     1       2.211   2.131  18.567  0.00  0.00    +0.000 NA
ATOM     14  C   UNL     1       3.531   2.391  18.726  0.00  0.00    +0.000 A 
ATOM     15  C   UNL     1       4.068   3.672  18.733  0.00  0.00    +0.000 A 
ATOM     16  C   UNL     1       3.214   4.750  18.532  0.00  0.00    +0.000 A 
ENDBRANCH  10  15
ENDBRANCH   1  10
TORSDOF 2
ENDMDL
MODEL 4
REMARK VINA RESULT:      -6.8      1.991      2.395
REMARK  Name = 
REMARK  2 active torsions:
REMARK  status: ('A' for Active; 'I' for Inactive)
REMARK    1  A    between atoms: C_5  and  O_6
REMARK    2  A    between atoms: O_6  and  C_7
REMARK                            x       y       z     vdW  Elec       q    Type
REMARK                         _______ _______ _______ _____ _____    ______ ____
ROOT
ATOM      1  C   UNL     1       3.633   4.108  17.930  0.00  0.00    +0.000 A 
ATOM      2  N   UNL     1       4.008   2.970  17.452  0.00  0.00    +0.000 NA
ATOM      3  C   UNL     1       3.425   1.849  17.987  0.00  0.00    +0.000 A 
ATOM      4  N   UNL     1       2.533   1.804  18.929  0.00  0.00    +0.000 NA
ATOM      5  N   UNL     1       2.178   3.007  19.413  0.00  0.00    +0.000 N 
ATOM      6  C   UNL     1       1.266   3.245  20.404  0.00  0.00    +0.000 A 
ATOM      7  C   UNL     1       1.209   4.607  20.618  0.00  0.00    +0.000 A 
ATOM      8  C   UNL     1       2.115   5.214  19.709  0.00  0.00    +0.000 A 
ATOM      9  C   UNL     1       2.685   4.193  18.978  0.00  0.00    +0.000 A 
ENDROOT
BRANCH   1  10
ATOM     10  O   UNL     1       4.079   5.352  17.506  0.00  0.00    +0.000 OA
BRANCH  10  15
ATOM     11  C   UNL     1       7.431   5.873  19.031  0.00  0.00    +0.000 A 
ATOM     12  C   UNL     1       7.862   6.873  18.172  0.00  0.00    +0.000 A 
ATOM     13  N   UNL     1       7.118   7.363  17.155  0.00  0.00    +0.000 NA
ATOM     14  C   UNL     1       5.881   6.832  17.000  0.00  0.00    +0.000 A 
ATOM     15  C   UNL     1       5.361   5.841  17.821  0.00  0.00    +0.000 A 
ATOM     16  C   UNL     1       6.161   5.336  18.840  0.00  0.00    +0.000 A 
ENDBRANCH  10  15
ENDBRANCH   1  10
TORSDOF 2
ENDMDL
MODEL 5
REMARK VINA RESULT:      -6.7      1.345      1.383
REMARK  Name = 
REMARK  2 active torsions:
REMARK  status: ('A' for Active; 'I' for Inactive)
REMARK    1  A    between atoms: C_5  and  O_6
REMARK    2  A    between atoms: O_6  and  C_7
REMARK                            x       y       z     vdW  Elec       q    Type
REMARK                         _______ _______ _______ _____ _____    ______ ____
ROOT
ATOM      1  C   UNL     1       4.523   4.194  18.602  0.00  0.00    +0.000 A 
ATOM      2  N   UNL     1       5.249   3.499  19.410  0.00  0.00    +0.000 NA
ATOM      3  C   UNL     1       4.623   2.492  20.099  0.00  0.00    +0.000 A 
ATOM      4  N   UNL     1       3.370   2.158  20.031  0.00  0.00    +0.000 NA
ATOM      5  N   UNL     1       2.641   2.914  19.192  0.00  0.00    +0.000 N 
ATOM      6  C   UNL     1       1.304   2.781  18.934  0.00  0.00    +0.000 A 
ATOM      7  C   UNL     1       0.940   3.761  18.034  0.00  0.00    +0.000 A 
ATOM      8  C   UNL     1       2.108   4.507  17.730  0.00  0.00    +0.000 A 
ATOM      9  C   UNL     1       3.136   3.947  18.456  0.00  0.00    +0.000 A 
ENDROOT
BRANCH   1  10
ATOM     10  O   UNL     1       4.972   5.232  17.796  0.00  0.00    +0.000 OA
BRANCH  10  15
ATOM     11  C   UNL     1       5.880   4.138  14.359  0.00  0.00    +0.000 A 
ATOM     12  C   UNL     1       7.095   4.799  14.279  0.00  0.00    +0.000 A 
ATOM     13  N   UNL     1       7.606   5.557  15.275  0.00  0.00    +0.000 NA
ATOM     14  C   UNL     1       6.867   5.645  16.407  0.00  0.00    +0.000 A 
ATOM     15  C   UNL     1       5.649   5.004  16.583  0.00  0.00    +0.000 A 
ATOM     16  C   UNL     1       5.134   4.257  15.529  0.00  0.00    +0.000 A 
ENDBRANCH  10  15
ENDBRANCH   1  10
TORSDOF 2
ENDMDL
MODEL 6
REMARK VINA RESULT:      -6.7      1.347      2.187
REMARK  Name = 
REMARK  2 active torsions:
REMARK  status: ('A' for Active; 'I' for Inactive)
REMARK    1  A    between atoms: C_5  and  O_6
REMARK    2  A    between atoms: O_6  and  C_7
REMARK                            x       y       z     vdW  Elec       q    Type
REMARK                         _______ _______ _______ _____ _____    ______ ____
ROOT
ATOM      1  C   UNL     1       4.164   4.945  19.291  0.00  0.00    +0.000 A 
ATOM      2  N   UNL     1       3.842   6.176  19.079  0.00  0.00    +0.000 NA
ATOM      3  C   UNL     1       2.638   6.599  19.583  0.00  0.00    +0.000 A 
ATOM      4  N   UNL     1       1.778   5.893  20.251  0.00  0.00    +0.000 NA
ATOM      5  N   UNL     1       2.139   4.612  20.438  0.00  0.00    +0.000 N 
ATOM      6  C   UNL     1       1.421   3.656  21.103  0.00  0.00    +0.000 A 
ATOM      7  C   UNL     1       2.130   2.473  21.053  0.00  0.00    +0.000 A 
ATOM      8  C   UNL     1       3.329   2.732  20.338  0.00  0.00    +0.000 A 
ATOM      9  C   UNL     1       3.300   4.064  19.986  0.00  0.00    +0.000 A 
ENDROOT
BRANCH   1  10
ATOM     10  O   UNL     1       5.346   4.335  18.892  0.00  0.00    +0.000 OA
BRANCH  10  15
ATOM     11  C   UNL     1       5.511   4.324  15.176  0.00  0.00    +0.000 A 
ATOM     12  C   UNL     1       6.874   4.551  15.060  0.00  0.00    +0.000 A 
ATOM     13  N   UNL     1       7.705   4.697  16.116  0.00  0.00    +0.000 NA
ATOM     14  C   UNL     1       7.143   4.601  17.345  0.00  0.00    +0.000 A 
ATOM     15  C   UNL     1       5.793   4.359  17.557  0.00  0.00    +0.000 A 
ATOM     16  C   UNL     1       4.957   4.242  16.452  0.00  0.00    +0.000 A 
ENDBRANCH  10  15
ENDBRANCH   1  10
TORSDOF 2
ENDMDL
MODEL 7
REMARK VINA RESULT:      -6.7      1.539      5.491
REMARK  Name = 
REMARK  2 active torsions:
REMARK  status: ('A' for Active; 'I' for Inactive)
REMARK    1  A    between atoms: C_5  and  O_6
REMARK    2  A    between atoms: O_6  and  C_7
REMARK                            x       y       z     vdW  Elec       q    Type
REMARK                         _______ _______ _______ _____ _____    ______ ____
ROOT
ATOM      1  C   UNL     1       6.283   4.819  18.318  0.00  0.00    +0.000 A 
ATOM      2  N   UNL     1       6.908   5.838  18.801  0.00  0.00    +0.000 NA
ATOM      3  C   UNL     1       7.509   6.682  17.902  0.00  0.00    +0.000 A 
ATOM      4  N   UNL     1       7.521   6.568  16.609  0.00  0.00    +0.000 NA
ATOM      5  N   UNL     1       6.874   5.486  16.143  0.00  0.00    +0.000 N 
ATOM      6  C   UNL     1       6.736   5.127  14.830  0.00  0.00    +0.000 A 
ATOM      7  C   UNL     1       6.023   3.946  14.780  0.00  0.00    +0.000 A 
ATOM      8  C   UNL     1       5.710   3.587  16.117  0.00  0.00    +0.000 A 
ATOM      9  C   UNL     1       6.244   4.567  16.925  0.00  0.00    +0.000 A 
ENDROOT
BRANCH   1  10
ATOM     10  O   UNL     1       5.589   3.869  19.055  0.00  0.00    +0.000 OA
BRANCH  10  15
ATOM     11  C   UNL     1       1.982   3.025  19.393  0.00  0.00    +0.000 A 
ATOM     12  C   UNL     1       1.543   4.280  19.786  0.00  0.00    +0.000 A 
ATOM     13  N   UNL     1       2.358   5.349  19.934  0.00  0.00    +0.000 NA
ATOM     14  C   UNL     1       3.671   5.151  19.664  0.00  0.00    +0.000 A 
ATOM     15  C   UNL     1       4.196   3.935  19.249  0.00  0.00    +0.000 A 
ATOM     16  C   UNL     1       3.339   2.846  19.135  0.00  0.00    +0.000 A 
ENDBRANCH  10  15
ENDBRANCH   1  10
TORSDOF 2
ENDMDL
MODEL 8
REMARK VINA RESULT:      -6.6      2.354      3.251
REMARK  Name = 
REMARK  2 active torsions:
REMARK  status: ('A' for Active; 'I' for Inactive)
REMARK    1  A    between atoms: C_5  and  O_6
REMARK    2  A    between atoms: O_6  and  C_7
REMARK                            x       y       z     vdW  Elec       q    Type
REMARK                         _______ _______ _______ _____ _____    ______ ____
ROOT
ATOM      1  C   UNL     1       3.076   5.317  18.742  0.00  0.00    +0.000 A 
ATOM      2  N   UNL     1       2.782   6.241  19.593  0.00  0.00    +0.000 NA
ATOM      3  C   UNL     1       1.794   5.958  20.502  0.00  0.00    +0.000 A 
ATOM      4  N   UNL     1       1.113   4.857  20.601  0.00  0.00    +0.000 NA
ATOM      5  N   UNL     1       1.435   3.923  19.688  0.00  0.00    +0.000 N 
ATOM      6  C   UNL     1       0.875   2.681  19.567  0.00  0.00    +0.000 A 
ATOM      7  C   UNL     1       1.469   2.044  18.497  0.00  0.00    +0.000 A 
ATOM      8  C   UNL     1       2.434   2.936  17.960  0.00  0.00    +0.000 A 
ATOM      9  C   UNL     1       2.388   4.078  18.729  0.00  0.00    +0.000 A 
ENDROOT
BRANCH   1  10
ATOM     10  O   UNL     1       4.061   5.395  17.767  0.00  0.00    +0.000 OA
BRANCH  10  15
ATOM     11  C   UNL     1       7.456   6.914  17.768  0.00  0.00    +0.000 A 
ATOM     12  C   UNL     1       7.927   6.291  18.913  0.00  0.00    +0.000 A 
ATOM     13  N   UNL     1       7.199   5.423  19.651  0.00  0.00    +0.000 NA
ATOM     14  C   UNL     1       5.945   5.161  19.213  0.00  0.00    +0.000 A 
ATOM     15  C   UNL     1       5.396   5.724  18.069  0.00  0.00    +0.000 A 
ATOM     16  C   UNL     1       6.158   6.637  17.347  0.00  0.00    +0.000 A 
ENDBRANCH  10  15
ENDBRANCH   1  10
TORSDOF 2
ENDMDL
MODEL 9
REMARK VINA RESULT:      -6.6      1.521      5.419
REMARK  Name = 
REMARK  2 active torsions:
REMARK  status: ('A' for Active; 'I' for Inactive)
REMARK    1  A    between atoms: C_5  and  O_6
REMARK    2  A    between atoms: O_6  and  C_7
REMARK                            x       y       z     vdW  Elec       q    Type
REMARK                         _______ _______ _______ _____ _____    ______ ____
ROOT
ATOM      1  C   UNL     1       5.373   5.221  18.627  0.00  0.00    +0.000 A 
ATOM      2  N   UNL     1       6.309   5.251  19.514  0.00  0.00    +0.000 NA
ATOM      3  C   UNL     1       7.583   4.980  19.084  0.00  0.00    +0.000 A 
ATOM      4  N   UNL     1       7.955   4.691  17.875  0.00  0.00    +0.000 NA
ATOM      5  N   UNL     1       6.952   4.652  16.980  0.00  0.00    +0.000 N 
ATOM      6  C   UNL     1       7.066   4.373  15.646  0.00  0.00    +0.000 A 
ATOM      7  C   UNL     1       5.804   4.416  15.089  0.00  0.00    +0.000 A 
ATOM      8  C   UNL     1       4.897   4.746  16.129  0.00  0.00    +0.000 A 
ATOM      9  C   UNL     1       5.646   4.893  17.276  0.00  0.00    +0.000 A 
ENDROOT
BRANCH   1  10
ATOM     10  O   UNL     1       4.031   5.495  18.853  0.00  0.00    +0.000 OA
BRANCH  10  15
ATOM     11  C   UNL     1       1.346   3.947  20.910  0.00  0.00    +0.000 A 
ATOM     12  C   UNL     1       1.552   2.635  20.512  0.00  0.00    +0.000 A 
ATOM     13  N   UNL     1       2.506   2.258  19.630  0.00  0.00    +0.000 NA
ATOM     14  C   UNL     1       3.295   3.242  19.135  0.00  0.00    +0.000 A 
ATOM     15  C   UNL     1       3.172   4.579  19.490  0.00  0.00    +0.000 A 
ATOM     16  C   UNL     1       2.162   4.941  20.375  0.00  0.00    +0.000 A 
ENDBRANCH  10  15
ENDBRANCH   1  10
TORSDOF 2
ENDMDL
