MODEL 1
REMARK VINA RESULT:      -8.4      0.000      0.000
REMARK  Name = 
REMARK  5 active torsions:
REMARK  status: ('A' for Active; 'I' for Inactive)
REMARK    1  A    between atoms: C_2  and  C_13
REMARK    2  A    between atoms: N_3  and  N_4
REMARK    3  A    between atoms: C_5  and  C_6
REMARK    4  A    between atoms: C_16  and  C_17
REMARK    5  A    between atoms: C_20  and  C_21
REMARK                            x       y       z     vdW  Elec       q    Type
REMARK                         _______ _______ _______ _____ _____    ______ ____
ROOT
ATOM      1  C   UNL     1      -0.251  10.632  22.109  0.00  0.00    +0.000 A 
ATOM      2  C   UNL     1       0.663  10.692  21.057  0.00  0.00    +0.000 A 
ATOM      3  C   UNL     1       1.259   9.519  20.589  0.00  0.00    +0.000 A 
ATOM      4  C   UNL     1       0.946   8.261  21.138  0.00  0.00    +0.000 A 
ATOM      5  C   UNL     1      -0.000   8.205  22.167  0.00  0.00    +0.000 A 
ATOM      6  C   UNL     1      -0.598   9.383  22.645  0.00  0.00    +0.000 A 
ENDROOT
BRANCH   4   7
ATOM      7  C   UNL     1       1.644   7.092  20.614  0.00  0.00    +0.000 A 
ATOM      8  N   UNL     1       1.337   5.824  20.805  0.00  0.00    +0.000 NA
ATOM      9  N   UNL     1       2.256   5.090  20.107  0.00  0.00    +0.000 NA
ATOM     10  C   UNL     1       3.080   5.949  19.541  0.00  0.00    +0.000 A 
ATOM     11  O   UNL     1       2.753   7.258  19.816  0.00  0.00    +0.000 OA
BRANCH  10  12
ATOM     12  C   UNL     1       4.195   5.657  18.644  0.00  0.00    +0.000 A 
ATOM     13  C   UNL     1       5.430   5.323  19.218  0.00  0.00    +0.000 A 
ATOM     14  C   UNL     1       6.517   4.947  18.424  0.00  0.00    +0.000 A 
ATOM     15  C   UNL     1       6.423   4.908  17.046  0.00  0.00    +0.000 A 
ATOM     16  N   UNL     1       7.481   4.480  16.338  0.00  0.00    +0.000 NA
ATOM     17  C   UNL     1       7.380   4.471  14.993  0.00  0.00    +0.000 A 
ATOM     18  C   UNL     1       6.269   4.921  14.306  0.00  0.00    +0.000 A 
ATOM     19  C   UNL     1       5.171   5.353  15.045  0.00  0.00    +0.000 A 
ATOM     20  C   UNL     1       5.213   5.321  16.448  0.00  0.00    +0.000 A 
ATOM     21  C   UNL     1       4.102   5.676  17.249  0.00  0.00    +0.000 A 
ENDBRANCH  10  12
ENDBRANCH   4   7
BRANCH   1  23
ATOM     22  O   UNL     1      -0.288  12.926  22.586  0.00  0.00    +0.000 OA
ATOM     23  C   UNL     1      -0.891  11.860  22.661  0.00  0.00    +0.000 C 
ATOM     24  N   UNL     1      -2.161  11.688  23.199  0.00  0.00    +0.000 N 
ATOM     25  H   UNL     1      -2.647  10.802  23.133  0.00  0.00    +0.000 HD
BRANCH  24  26
ATOM     26  N   UNL     1      -2.801  12.750  23.752  0.00  0.00    +0.000 NA
ATOM     27  C   UNL     1      -3.624  13.402  22.998  0.00  0.00    +0.000 C 
BRANCH  27  28
ATOM     28  C   UNL     1      -4.375  14.561  23.520  0.00  0.00    +0.000 A 
ATOM     29  C   UNL     1      -5.756  14.653  23.314  0.00  0.00    +0.000 A 
ATOM     30  C   UNL     1      -6.463  15.762  23.780  0.00  0.00    +0.000 A 
ATOM     31  C   UNL     1      -5.789  16.780  24.455  0.00  0.00    +0.000 A 
ATOM     32  C   UNL     1      -4.411  16.680  24.663  0.00  0.00    +0.000 A 
ATOM     33 CL   UNL     1      -3.580  17.940  25.494  0.00  0.00    +0.000 Cl
ATOM     34  C   UNL     1      -3.696  15.572  24.202  0.00  0.00    +0.000 A 
ENDBRANCH  27  28
ENDBRANCH  24  26
ENDBRANCH   1  23
TORSDOF 5
ENDMDL
MODEL 2
REMARK VINA RESULT:      -8.1      1.139      1.276
REMARK  Name = 
REMARK  5 active torsions:
REMARK  status: ('A' for Active; 'I' for Inactive)
REMARK    1  A    between atoms: C_2  and  C_13
REMARK    2  A    between atoms: N_3  and  N_4
REMARK    3  A    between atoms: C_5  and  C_6
REMARK    4  A    between atoms: C_16  and  C_17
REMARK    5  A    between atoms: C_20  and  C_21
REMARK                            x       y       z     vdW  Elec       q    Type
REMARK                         _______ _______ _______ _____ _____    ______ ____
ROOT
ATOM      1  C   UNL     1      -0.010  10.682  21.052  0.00  0.00    +0.000 A 
ATOM      2  C   UNL     1       0.394  10.550  19.724  0.00  0.00    +0.000 A 
ATOM      3  C   UNL     1       1.137   9.434  19.333  0.00  0.00    +0.000 A 
ATOM      4  C   UNL     1       1.475   8.416  20.245  0.00  0.00    +0.000 A 
ATOM      5  C   UNL     1       1.033   8.537  21.566  0.00  0.00    +0.000 A 
ATOM      6  C   UNL     1       0.291   9.660  21.965  0.00  0.00    +0.000 A 
ENDROOT
BRANCH   4   7
ATOM      7  C   UNL     1       2.286   7.304  19.759  0.00  0.00    +0.000 A 
ATOM      8  N   UNL     1       2.280   6.059  20.194  0.00  0.00    +0.000 NA
ATOM      9  N   UNL     1       3.185   5.374  19.430  0.00  0.00    +0.000 NA
ATOM     10  C   UNL     1       3.699   6.240  18.580  0.00  0.00    +0.000 A 
ATOM     11  O   UNL     1       3.172   7.503  18.725  0.00  0.00    +0.000 OA
BRANCH  10  12
ATOM     12  C   UNL     1       4.666   5.978  17.517  0.00  0.00    +0.000 A 
ATOM     13  C   UNL     1       5.955   6.514  17.654  0.00  0.00    +0.000 A 
ATOM     14  C   UNL     1       6.956   6.233  16.720  0.00  0.00    +0.000 A 
ATOM     15  C   UNL     1       6.711   5.436  15.619  0.00  0.00    +0.000 A 
ATOM     16  N   UNL     1       7.727   5.150  14.788  0.00  0.00    +0.000 NA
ATOM     17  C   UNL     1       7.464   4.390  13.705  0.00  0.00    +0.000 A 
ATOM     18  C   UNL     1       6.202   3.932  13.380  0.00  0.00    +0.000 A 
ATOM     19  C   UNL     1       5.155   4.220  14.250  0.00  0.00    +0.000 A 
ATOM     20  C   UNL     1       5.397   4.957  15.420  0.00  0.00    +0.000 A 
ATOM     21  C   UNL     1       4.387   5.217  16.377  0.00  0.00    +0.000 A 
ENDBRANCH  10  12
ENDBRANCH   4   7
BRANCH   1  23
ATOM     22  O   UNL     1      -0.454  12.982  21.121  0.00  0.00    +0.000 OA
ATOM     23  C   UNL     1      -0.779  11.869  21.523  0.00  0.00    +0.000 C 
ATOM     24  N   UNL     1      -1.844  11.599  22.374  0.00  0.00    +0.000 N 
ATOM     25  H   UNL     1      -2.126  10.649  22.583  0.00  0.00    +0.000 HD
BRANCH  24  26
ATOM     26  N   UNL     1      -2.576  12.627  22.874  0.00  0.00    +0.000 NA
ATOM     27  C   UNL     1      -3.836  12.650  22.586  0.00  0.00    +0.000 C 
BRANCH  27  28
ATOM     28  C   UNL     1      -4.712  13.722  23.099  0.00  0.00    +0.000 A 
ATOM     29  C   UNL     1      -6.102  13.618  22.964  0.00  0.00    +0.000 A 
ATOM     30  C   UNL     1      -6.929  14.644  23.422  0.00  0.00    +0.000 A 
ATOM     31  C   UNL     1      -6.368  15.775  24.016  0.00  0.00    +0.000 A 
ATOM     32  C   UNL     1      -4.981  15.869  24.154  0.00  0.00    +0.000 A 
ATOM     33 CL   UNL     1      -4.290  17.269  24.885  0.00  0.00    +0.000 Cl
ATOM     34  C   UNL     1      -4.146  14.847  23.701  0.00  0.00    +0.000 A 
ENDBRANCH  27  28
ENDBRANCH  24  26
ENDBRANCH   1  23
TORSDOF 5
ENDMDL
MODEL 3
REMARK VINA RESULT:      -8.1      1.314      1.716
REMARK  Name = 
REMARK  5 active torsions:
REMARK  status: ('A' for Active; 'I' for Inactive)
REMARK    1  A    between atoms: C_2  and  C_13
REMARK    2  A    between atoms: N_3  and  N_4
REMARK    3  A    between atoms: C_5  and  C_6
REMARK    4  A    between atoms: C_16  and  C_17
REMARK    5  A    between atoms: C_20  and  C_21
REMARK                            x       y       z     vdW  Elec       q    Type
REMARK                         _______ _______ _______ _____ _____    ______ ____
ROOT
ATOM      1  C   UNL     1      -0.485  10.466  21.310  0.00  0.00    +0.000 A 
ATOM      2  C   UNL     1      -0.211   9.343  22.090  0.00  0.00    +0.000 A 
ATOM      3  C   UNL     1       0.639   8.349  21.601  0.00  0.00    +0.000 A 
ATOM      4  C   UNL     1       1.252   8.458  20.338  0.00  0.00    +0.000 A 
ATOM      5  C   UNL     1       1.002   9.605  19.577  0.00  0.00    +0.000 A 
ATOM      6  C   UNL     1       0.144  10.604  20.063  0.00  0.00    +0.000 A 
ENDROOT
BRANCH   4   7
ATOM      7  C   UNL     1       2.096   7.355  19.889  0.00  0.00    +0.000 A 
ATOM      8  N   UNL     1       2.129   6.127  20.368  0.00  0.00    +0.000 NA
ATOM      9  N   UNL     1       3.053   5.443  19.626  0.00  0.00    +0.000 NA
ATOM     10  C   UNL     1       3.539   6.294  18.745  0.00  0.00    +0.000 A 
ATOM     11  O   UNL     1       2.974   7.545  18.847  0.00  0.00    +0.000 OA
BRANCH  10  12
ATOM     12  C   UNL     1       4.512   6.026  17.689  0.00  0.00    +0.000 A 
ATOM     13  C   UNL     1       5.787   6.597  17.808  0.00  0.00    +0.000 A 
ATOM     14  C   UNL     1       6.795   6.314  16.882  0.00  0.00    +0.000 A 
ATOM     15  C   UNL     1       6.569   5.478  15.806  0.00  0.00    +0.000 A 
ATOM     16  N   UNL     1       7.592   5.193  14.983  0.00  0.00    +0.000 NA
ATOM     17  C   UNL     1       7.349   4.395  13.923  0.00  0.00    +0.000 A 
ATOM     18  C   UNL     1       6.098   3.895  13.614  0.00  0.00    +0.000 A 
ATOM     19  C   UNL     1       5.044   4.183  14.476  0.00  0.00    +0.000 A 
ATOM     20  C   UNL     1       5.268   4.961  15.623  0.00  0.00    +0.000 A 
ATOM     21  C   UNL     1       4.252   5.223  16.573  0.00  0.00    +0.000 A 
ENDBRANCH  10  12
ENDBRANCH   4   7
BRANCH   1  23
ATOM     22  O   UNL     1      -2.174  12.054  20.969  0.00  0.00    +0.000 OA
ATOM     23  C   UNL     1      -1.408  11.539  21.778  0.00  0.00    +0.000 C 
ATOM     24  N   UNL     1      -1.338  11.848  23.131  0.00  0.00    +0.000 N 
ATOM     25  H   UNL     1      -0.760  11.311  23.766  0.00  0.00    +0.000 HD
BRANCH  24  26
ATOM     26  N   UNL     1      -2.122  12.835  23.632  0.00  0.00    +0.000 NA
ATOM     27  C   UNL     1      -1.601  14.015  23.723  0.00  0.00    +0.000 C 
BRANCH  27  28
ATOM     28  C   UNL     1      -2.386  15.153  24.242  0.00  0.00    +0.000 A 
ATOM     29  C   UNL     1      -3.768  15.207  24.031  0.00  0.00    +0.000 A 
ATOM     30  C   UNL     1      -4.506  16.297  24.495  0.00  0.00    +0.000 A 
ATOM     31  C   UNL     1      -3.863  17.333  25.171  0.00  0.00    +0.000 A 
ATOM     32  C   UNL     1      -2.483  17.270  25.385  0.00  0.00    +0.000 A 
ATOM     33 CL   UNL     1      -1.690  18.553  26.218  0.00  0.00    +0.000 Cl
ATOM     34  C   UNL     1      -1.737  16.183  24.927  0.00  0.00    +0.000 A 
ENDBRANCH  27  28
ENDBRANCH  24  26
ENDBRANCH   1  23
TORSDOF 5
ENDMDL
MODEL 4
REMARK VINA RESULT:      -8.1      4.485     13.222
REMARK  Name = 
REMARK  5 active torsions:
REMARK  status: ('A' for Active; 'I' for Inactive)
REMARK    1  A    between atoms: C_2  and  C_13
REMARK    2  A    between atoms: N_3  and  N_4
REMARK    3  A    between atoms: C_5  and  C_6
REMARK    4  A    between atoms: C_16  and  C_17
REMARK    5  A    between atoms: C_20  and  C_21
REMARK                            x       y       z     vdW  Elec       q    Type
REMARK                         _______ _______ _______ _____ _____    ______ ____
ROOT
ATOM      1  C   UNL     1       2.510   6.438  18.837  0.00  0.00    +0.000 A 
ATOM      2  C   UNL     1       2.394   7.805  18.587  0.00  0.00    +0.000 A 
ATOM      3  C   UNL     1       1.810   8.638  19.543  0.00  0.00    +0.000 A 
ATOM      4  C   UNL     1       1.349   8.137  20.775  0.00  0.00    +0.000 A 
ATOM      5  C   UNL     1       1.503   6.772  21.035  0.00  0.00    +0.000 A 
ATOM      6  C   UNL     1       2.085   5.929  20.074  0.00  0.00    +0.000 A 
ENDROOT
BRANCH   4   7
ATOM      7  C   UNL     1       0.717   9.073  21.701  0.00  0.00    +0.000 A 
ATOM      8  N   UNL     1       0.940   9.192  22.995  0.00  0.00    +0.000 NA
ATOM      9  N   UNL     1       0.137  10.207  23.438  0.00  0.00    +0.000 NA
ATOM     10  C   UNL     1      -0.539  10.642  22.393  0.00  0.00    +0.000 A 
ATOM     11  O   UNL     1      -0.222   9.966  21.236  0.00  0.00    +0.000 OA
BRANCH  10  12
ATOM     12  C   UNL     1      -1.482  11.756  22.342  0.00  0.00    +0.000 A 
ATOM     13  C   UNL     1      -1.541  12.514  21.163  0.00  0.00    +0.000 A 
ATOM     14  C   UNL     1      -2.479  13.539  21.010  0.00  0.00    +0.000 A 
ATOM     15  C   UNL     1      -3.368  13.857  22.017  0.00  0.00    +0.000 A 
ATOM     16  N   UNL     1      -4.288  14.811  21.791  0.00  0.00    +0.000 NA
ATOM     17  C   UNL     1      -5.133  15.125  22.794  0.00  0.00    +0.000 A 
ATOM     18  C   UNL     1      -5.073  14.556  24.051  0.00  0.00    +0.000 A 
ATOM     19  C   UNL     1      -4.127  13.561  24.278  0.00  0.00    +0.000 A 
ATOM     20  C   UNL     1      -3.268  13.161  23.242  0.00  0.00    +0.000 A 
ATOM     21  C   UNL     1      -2.338  12.105  23.391  0.00  0.00    +0.000 A 
ENDBRANCH  10  12
ENDBRANCH   4   7
BRANCH   1  23
ATOM     22  O   UNL     1       2.645   4.369  17.745  0.00  0.00    +0.000 OA
ATOM     23  C   UNL     1       3.101   5.505  17.835  0.00  0.00    +0.000 C 
ATOM     24  N   UNL     1       4.122   6.028  17.052  0.00  0.00    +0.000 N 
ATOM     25  H   UNL     1       4.379   7.006  17.103  0.00  0.00    +0.000 HD
BRANCH  24  26
ATOM     26  N   UNL     1       4.735   5.235  16.138  0.00  0.00    +0.000 NA
ATOM     27  C   UNL     1       5.326   5.821  15.148  0.00  0.00    +0.000 C 
BRANCH  27  28
ATOM     28  C   UNL     1       6.032   5.038  14.114  0.00  0.00    +0.000 A 
ATOM     29  C   UNL     1       7.368   5.322  13.809  0.00  0.00    +0.000 A 
ATOM     30  C   UNL     1       8.027   4.602  12.810  0.00  0.00    +0.000 A 
ATOM     31  C   UNL     1       7.351   3.597  12.119  0.00  0.00    +0.000 A 
ATOM     32  C   UNL     1       6.020   3.314  12.434  0.00  0.00    +0.000 A 
ATOM     33 CL   UNL     1       5.186   2.074  11.575  0.00  0.00    +0.000 Cl
ATOM     34  C   UNL     1       5.353   4.026  13.432  0.00  0.00    +0.000 A 
ENDBRANCH  27  28
ENDBRANCH  24  26
ENDBRANCH   1  23
TORSDOF 5
ENDMDL
MODEL 5
REMARK VINA RESULT:      -7.9      1.737      2.522
REMARK  Name = 
REMARK  5 active torsions:
REMARK  status: ('A' for Active; 'I' for Inactive)
REMARK    1  A    between atoms: C_2  and  C_13
REMARK    2  A    between atoms: N_3  and  N_4
REMARK    3  A    between atoms: C_5  and  C_6
REMARK    4  A    between atoms: C_16  and  C_17
REMARK    5  A    between atoms: C_20  and  C_21
REMARK                            x       y       z     vdW  Elec       q    Type
REMARK                         _______ _______ _______ _____ _____    ______ ____
ROOT
ATOM      1  C   UNL     1       0.361   9.642  20.489  0.00  0.00    +0.000 A 
ATOM      2  C   UNL     1       0.869   9.664  19.191  0.00  0.00    +0.000 A 
ATOM      3  C   UNL     1       1.727   8.648  18.765  0.00  0.00    +0.000 A 
ATOM      4  C   UNL     1       2.082   7.579  19.610  0.00  0.00    +0.000 A 
ATOM      5  C   UNL     1       1.539   7.545  20.898  0.00  0.00    +0.000 A 
ATOM      6  C   UNL     1       0.680   8.567  21.332  0.00  0.00    +0.000 A 
ENDROOT
BRANCH   4   7
ATOM      7  C   UNL     1       3.015   6.581  19.095  0.00  0.00    +0.000 A 
ATOM      8  N   UNL     1       3.401   5.468  19.686  0.00  0.00    +0.000 NA
ATOM      9  N   UNL     1       4.261   4.845  18.823  0.00  0.00    +0.000 NA
ATOM     10  C   UNL     1       4.361   5.619  17.761  0.00  0.00    +0.000 A 
ATOM     11  O   UNL     1       3.588   6.755  17.856  0.00  0.00    +0.000 OA
BRANCH  10  12
ATOM     12  C   UNL     1       5.114   5.360  16.536  0.00  0.00    +0.000 A 
ATOM     13  C   UNL     1       6.407   5.895  16.434  0.00  0.00    +0.000 A 
ATOM     14  C   UNL     1       7.218   5.616  15.331  0.00  0.00    +0.000 A 
ATOM     15  C   UNL     1       6.773   4.821  14.292  0.00  0.00    +0.000 A 
ATOM     16  N   UNL     1       7.618   4.537  13.287  0.00  0.00    +0.000 NA
ATOM     17  C   UNL     1       7.160   3.779  12.270  0.00  0.00    +0.000 A 
ATOM     18  C   UNL     1       5.859   3.322  12.183  0.00  0.00    +0.000 A 
ATOM     19  C   UNL     1       4.990   3.609  13.232  0.00  0.00    +0.000 A 
ATOM     20  C   UNL     1       5.445   4.343  14.338  0.00  0.00    +0.000 A 
ATOM     21  C   UNL     1       4.630   4.601  15.466  0.00  0.00    +0.000 A 
ENDBRANCH  10  12
ENDBRANCH   4   7
BRANCH   1  23
ATOM     22  O   UNL     1      -1.183  11.381  20.192  0.00  0.00    +0.000 OA
ATOM     23  C   UNL     1      -0.536  10.720  20.999  0.00  0.00    +0.000 C 
ATOM     24  N   UNL     1      -0.583  10.863  22.380  0.00  0.00    +0.000 N 
ATOM     25  H   UNL     1      -0.107  10.214  22.995  0.00  0.00    +0.000 HD
BRANCH  24  26
ATOM     26  N   UNL     1      -1.350  11.841  22.924  0.00  0.00    +0.000 NA
ATOM     27  C   UNL     1      -0.862  13.038  22.935  0.00  0.00    +0.000 C 
BRANCH  27  28
ATOM     28  C   UNL     1      -1.633  14.167  23.493  0.00  0.00    +0.000 A 
ATOM     29  C   UNL     1      -2.840  13.930  24.161  0.00  0.00    +0.000 A 
ATOM     30  C   UNL     1      -3.584  14.999  24.662  0.00  0.00    +0.000 A 
ATOM     31  C   UNL     1      -3.122  16.305  24.497  0.00  0.00    +0.000 A 
ATOM     32  C   UNL     1      -1.913  16.534  23.835  0.00  0.00    +0.000 A 
ATOM     33 CL   UNL     1      -1.346  18.148  23.629  0.00  0.00    +0.000 Cl
ATOM     34  C   UNL     1      -1.160  15.471  23.332  0.00  0.00    +0.000 A 
ENDBRANCH  27  28
ENDBRANCH  24  26
ENDBRANCH   1  23
TORSDOF 5
ENDMDL
MODEL 6
REMARK VINA RESULT:      -7.9      2.059      2.953
REMARK  Name = 
REMARK  5 active torsions:
REMARK  status: ('A' for Active; 'I' for Inactive)
REMARK    1  A    between atoms: C_2  and  C_13
REMARK    2  A    between atoms: N_3  and  N_4
REMARK    3  A    between atoms: C_5  and  C_6
REMARK    4  A    between atoms: C_16  and  C_17
REMARK    5  A    between atoms: C_20  and  C_21
REMARK                            x       y       z     vdW  Elec       q    Type
REMARK                         _______ _______ _______ _____ _____    ______ ____
ROOT
ATOM      1  C   UNL     1       0.609   9.971  19.737  0.00  0.00    +0.000 A 
ATOM      2  C   UNL     1       0.998   9.800  18.409  0.00  0.00    +0.000 A 
ATOM      3  C   UNL     1       1.818   8.725  18.060  0.00  0.00    +0.000 A 
ATOM      4  C   UNL     1       2.252   7.787  19.016  0.00  0.00    +0.000 A 
ATOM      5  C   UNL     1       1.826   7.945  20.339  0.00  0.00    +0.000 A 
ATOM      6  C   UNL     1       1.006   9.027  20.695  0.00  0.00    +0.000 A 
ENDROOT
BRANCH   4   7
ATOM      7  C   UNL     1       3.139   6.717  18.572  0.00  0.00    +0.000 A 
ATOM      8  N   UNL     1       3.468   5.624  19.232  0.00  0.00    +0.000 NA
ATOM      9  N   UNL     1       4.302   4.910  18.415  0.00  0.00    +0.000 NA
ATOM     10  C   UNL     1       4.444   5.612  17.309  0.00  0.00    +0.000 A 
ATOM     11  O   UNL     1       3.727   6.787  17.329  0.00  0.00    +0.000 OA
BRANCH  10  12
ATOM     12  C   UNL     1       5.192   5.243  16.109  0.00  0.00    +0.000 A 
ATOM     13  C   UNL     1       6.546   5.603  16.041  0.00  0.00    +0.000 A 
ATOM     14  C   UNL     1       7.344   5.208  14.964  0.00  0.00    +0.000 A 
ATOM     15  C   UNL     1       6.828   4.467  13.918  0.00  0.00    +0.000 A 
ATOM     16  N   UNL     1       7.656   4.065  12.941  0.00  0.00    +0.000 NA
ATOM     17  C   UNL     1       7.131   3.363  11.916  0.00  0.00    +0.000 A 
ATOM     18  C   UNL     1       5.785   3.079  11.794  0.00  0.00    +0.000 A 
ATOM     19  C   UNL     1       4.932   3.488  12.815  0.00  0.00    +0.000 A 
ATOM     20  C   UNL     1       5.448   4.168  13.929  0.00  0.00    +0.000 A 
ATOM     21  C   UNL     1       4.642   4.543  15.031  0.00  0.00    +0.000 A 
ENDBRANCH  10  12
ENDBRANCH   4   7
BRANCH   1  23
ATOM     22  O   UNL     1      -0.809  11.787  19.301  0.00  0.00    +0.000 OA
ATOM     23  C   UNL     1      -0.243  11.119  20.162  0.00  0.00    +0.000 C 
ATOM     24  N   UNL     1      -0.348  11.318  21.533  0.00  0.00    +0.000 N 
ATOM     25  H   UNL     1       0.057  10.665  22.194  0.00  0.00    +0.000 HD
BRANCH  24  26
ATOM     26  N   UNL     1      -1.079  12.360  22.003  0.00  0.00    +0.000 NA
ATOM     27  C   UNL     1      -2.085  12.081  22.766  0.00  0.00    +0.000 C 
BRANCH  27  28
ATOM     28  C   UNL     1      -2.926  13.153  23.335  0.00  0.00    +0.000 A 
ATOM     29  C   UNL     1      -2.334  14.227  24.009  0.00  0.00    +0.000 A 
ATOM     30  C   UNL     1      -3.130  15.225  24.573  0.00  0.00    +0.000 A 
ATOM     31  C   UNL     1      -4.518  15.151  24.462  0.00  0.00    +0.000 A 
ATOM     32  C   UNL     1      -5.103  14.080  23.782  0.00  0.00    +0.000 A 
ATOM     33 CL   UNL     1      -6.818  13.989  23.648  0.00  0.00    +0.000 Cl
ATOM     34  C   UNL     1      -4.315  13.078  23.212  0.00  0.00    +0.000 A 
ENDBRANCH  27  28
ENDBRANCH  24  26
ENDBRANCH   1  23
TORSDOF 5
ENDMDL
MODEL 7
REMARK VINA RESULT:      -7.9      1.623      2.474
REMARK  Name = 
REMARK  5 active torsions:
REMARK  status: ('A' for Active; 'I' for Inactive)
REMARK    1  A    between atoms: C_2  and  C_13
REMARK    2  A    between atoms: N_3  and  N_4
REMARK    3  A    between atoms: C_5  and  C_6
REMARK    4  A    between atoms: C_16  and  C_17
REMARK    5  A    between atoms: C_20  and  C_21
REMARK                            x       y       z     vdW  Elec       q    Type
REMARK                         _______ _______ _______ _____ _____    ______ ____
ROOT
ATOM      1  C   UNL     1       0.919   9.709  20.563  0.00  0.00    +0.000 A 
ATOM      2  C   UNL     1       1.274   9.688  19.215  0.00  0.00    +0.000 A 
ATOM      3  C   UNL     1       1.949   8.582  18.693  0.00  0.00    +0.000 A 
ATOM      4  C   UNL     1       2.265   7.466  19.492  0.00  0.00    +0.000 A 
ATOM      5  C   UNL     1       1.872   7.479  20.834  0.00  0.00    +0.000 A 
ATOM      6  C   UNL     1       1.198   8.592  21.364  0.00  0.00    +0.000 A 
ENDROOT
BRANCH   4   7
ATOM      7  C   UNL     1       3.006   6.371  18.874  0.00  0.00    +0.000 A 
ATOM      8  N   UNL     1       3.089   5.124  19.295  0.00  0.00    +0.000 NA
ATOM      9  N   UNL     1       3.870   4.458  18.391  0.00  0.00    +0.000 NA
ATOM     10  C   UNL     1       4.229   5.337  17.477  0.00  0.00    +0.000 A 
ATOM     11  O   UNL     1       3.713   6.591  17.714  0.00  0.00    +0.000 OA
BRANCH  10  12
ATOM     12  C   UNL     1       5.018   5.097  16.271  0.00  0.00    +0.000 A 
ATOM     13  C   UNL     1       6.325   5.604  16.229  0.00  0.00    +0.000 A 
ATOM     14  C   UNL     1       7.167   5.340  15.145  0.00  0.00    +0.000 A 
ATOM     15  C   UNL     1       6.740   4.588  14.068  0.00  0.00    +0.000 A 
ATOM     16  N   UNL     1       7.612   4.315  13.083  0.00  0.00    +0.000 NA
ATOM     17  C   UNL     1       7.171   3.601  12.027  0.00  0.00    +0.000 A 
ATOM     18  C   UNL     1       5.865   3.177  11.883  0.00  0.00    +0.000 A 
ATOM     19  C   UNL     1       4.967   3.452  12.910  0.00  0.00    +0.000 A 
ATOM     20  C   UNL     1       5.401   4.141  14.054  0.00  0.00    +0.000 A 
ATOM     21  C   UNL     1       4.553   4.383  15.162  0.00  0.00    +0.000 A 
ENDBRANCH  10  12
ENDBRANCH   4   7
BRANCH   1  23
ATOM     22  O   UNL     1       0.249  11.956  20.582  0.00  0.00    +0.000 OA
ATOM     23  C   UNL     1       0.223  10.880  21.172  0.00  0.00    +0.000 C 
ATOM     24  N   UNL     1      -0.437  10.633  22.370  0.00  0.00    +0.000 N 
ATOM     25  H   UNL     1      -0.511   9.697  22.749  0.00  0.00    +0.000 HD
BRANCH  24  26
ATOM     26  N   UNL     1      -1.068  11.652  23.005  0.00  0.00    +0.000 NA
ATOM     27  C   UNL     1      -2.283  11.911  22.646  0.00  0.00    +0.000 C 
BRANCH  27  28
ATOM     28  C   UNL     1      -3.052  12.992  23.294  0.00  0.00    +0.000 A 
ATOM     29  C   UNL     1      -4.439  13.066  23.124  0.00  0.00    +0.000 A 
ATOM     30  C   UNL     1      -5.163  14.105  23.712  0.00  0.00    +0.000 A 
ATOM     31  C   UNL     1      -4.501  15.069  24.471  0.00  0.00    +0.000 A 
ATOM     32  C   UNL     1      -3.117  14.985  24.643  0.00  0.00    +0.000 A 
ATOM     33 CL   UNL     1      -2.300  16.180  25.579  0.00  0.00    +0.000 Cl
ATOM     34  C   UNL     1      -2.384  13.949  24.061  0.00  0.00    +0.000 A 
ENDBRANCH  27  28
ENDBRANCH  24  26
ENDBRANCH   1  23
TORSDOF 5
ENDMDL
MODEL 8
REMARK VINA RESULT:      -7.8      4.522     13.275
REMARK  Name = 
REMARK  5 active torsions:
REMARK  status: ('A' for Active; 'I' for Inactive)
REMARK    1  A    between atoms: C_2  and  C_13
REMARK    2  A    between atoms: N_3  and  N_4
REMARK    3  A    between atoms: C_5  and  C_6
REMARK    4  A    between atoms: C_16  and  C_17
REMARK    5  A    between atoms: C_20  and  C_21
REMARK                            x       y       z     vdW  Elec       q    Type
REMARK                         _______ _______ _______ _____ _____    ______ ____
ROOT
ATOM      1  C   UNL     1       2.963   7.072  18.549  0.00  0.00    +0.000 A 
ATOM      2  C   UNL     1       2.646   6.571  19.812  0.00  0.00    +0.000 A 
ATOM      3  C   UNL     1       1.901   7.350  20.700  0.00  0.00    +0.000 A 
ATOM      4  C   UNL     1       1.436   8.631  20.346  0.00  0.00    +0.000 A 
ATOM      5  C   UNL     1       1.724   9.110  19.065  0.00  0.00    +0.000 A 
ATOM      6  C   UNL     1       2.478   8.333  18.171  0.00  0.00    +0.000 A 
ENDROOT
BRANCH   4   7
ATOM      7  C   UNL     1       0.696   9.391  21.349  0.00  0.00    +0.000 A 
ATOM      8  N   UNL     1       0.806   9.304  22.661  0.00  0.00    +0.000 NA
ATOM      9  N   UNL     1      -0.066  10.218  23.187  0.00  0.00    +0.000 NA
ATOM     10  C   UNL     1      -0.667  10.801  22.169  0.00  0.00    +0.000 A 
ATOM     11  O   UNL     1      -0.232  10.327  20.952  0.00  0.00    +0.000 OA
BRANCH  10  12
ATOM     12  C   UNL     1      -1.641  11.888  22.213  0.00  0.00    +0.000 A 
ATOM     13  C   UNL     1      -1.500  12.935  21.290  0.00  0.00    +0.000 A 
ATOM     14  C   UNL     1      -2.443  13.964  21.215  0.00  0.00    +0.000 A 
ATOM     15  C   UNL     1      -3.537  14.000  22.058  0.00  0.00    +0.000 A 
ATOM     16  N   UNL     1      -4.443  14.980  21.899  0.00  0.00    +0.000 NA
ATOM     17  C   UNL     1      -5.492  15.014  22.746  0.00  0.00    +0.000 A 
ATOM     18  C   UNL     1      -5.660  14.128  23.793  0.00  0.00    +0.000 A 
ATOM     19  C   UNL     1      -4.725  13.108  23.946  0.00  0.00    +0.000 A 
ATOM     20  C   UNL     1      -3.651  13.001  23.049  0.00  0.00    +0.000 A 
ATOM     21  C   UNL     1      -2.713  11.943  23.110  0.00  0.00    +0.000 A 
ENDBRANCH  10  12
ENDBRANCH   4   7
BRANCH   1  23
ATOM     22  O   UNL     1       3.520   5.102  17.408  0.00  0.00    +0.000 OA
ATOM     23  C   UNL     1       3.780   6.289  17.578  0.00  0.00    +0.000 C 
ATOM     24  N   UNL     1       4.770   7.001  16.912  0.00  0.00    +0.000 N 
ATOM     25  H   UNL     1       4.863   8.004  17.018  0.00  0.00    +0.000 HD
BRANCH  24  26
ATOM     26  N   UNL     1       5.580   6.356  16.034  0.00  0.00    +0.000 NA
ATOM     27  C   UNL     1       5.010   5.688  15.086  0.00  0.00    +0.000 C 
BRANCH  27  28
ATOM     28  C   UNL     1       5.813   4.967  14.077  0.00  0.00    +0.000 A 
ATOM     29  C   UNL     1       7.150   5.319  13.863  0.00  0.00    +0.000 A 
ATOM     30  C   UNL     1       7.901   4.659  12.888  0.00  0.00    +0.000 A 
ATOM     31  C   UNL     1       7.316   3.647  12.128  0.00  0.00    +0.000 A 
ATOM     32  C   UNL     1       5.982   3.296  12.352  0.00  0.00    +0.000 A 
ATOM     33 CL   UNL     1       5.259   2.047  11.409  0.00  0.00    +0.000 Cl
ATOM     34  C   UNL     1       5.223   3.949  13.326  0.00  0.00    +0.000 A 
ENDBRANCH  27  28
ENDBRANCH  24  26
ENDBRANCH   1  23
TORSDOF 5
ENDMDL
MODEL 9
REMARK VINA RESULT:      -7.7      1.614      2.122
REMARK  Name = 
REMARK  5 active torsions:
REMARK  status: ('A' for Active; 'I' for Inactive)
REMARK    1  A    between atoms: C_2  and  C_13
REMARK    2  A    between atoms: N_3  and  N_4
REMARK    3  A    between atoms: C_5  and  C_6
REMARK    4  A    between atoms: C_16  and  C_17
REMARK    5  A    between atoms: C_20  and  C_21
REMARK                            x       y       z     vdW  Elec       q    Type
REMARK                         _______ _______ _______ _____ _____    ______ ____
ROOT
ATOM      1  C   UNL     1      -0.054   9.939  21.679  0.00  0.00    +0.000 A 
ATOM      2  C   UNL     1       0.763  10.161  20.570  0.00  0.00    +0.000 A 
ATOM      3  C   UNL     1       1.502   9.106  20.032  0.00  0.00    +0.000 A 
ATOM      4  C   UNL     1       1.431   7.806  20.567  0.00  0.00    +0.000 A 
ATOM      5  C   UNL     1       0.581   7.583  21.655  0.00  0.00    +0.000 A 
ATOM      6  C   UNL     1      -0.161   8.642  22.203  0.00  0.00    +0.000 A 
ENDROOT
BRANCH   4   7
ATOM      7  C   UNL     1       2.267   6.772  19.966  0.00  0.00    +0.000 A 
ATOM      8  N   UNL     1       2.327   5.497  20.299  0.00  0.00    +0.000 NA
ATOM      9  N   UNL     1       3.229   4.914  19.452  0.00  0.00    +0.000 NA
ATOM     10  C   UNL     1       3.677   5.866  18.658  0.00  0.00    +0.000 A 
ATOM     11  O   UNL     1       3.106   7.091  18.923  0.00  0.00    +0.000 OA
BRANCH  10  12
ATOM     12  C   UNL     1       4.614   5.732  17.545  0.00  0.00    +0.000 A 
ATOM     13  C   UNL     1       5.814   6.456  17.604  0.00  0.00    +0.000 A 
ATOM     14  C   UNL     1       6.794   6.310  16.619  0.00  0.00    +0.000 A 
ATOM     15  C   UNL     1       6.613   5.465  15.542  0.00  0.00    +0.000 A 
ATOM     16  N   UNL     1       7.614   5.318  14.659  0.00  0.00    +0.000 NA
ATOM     17  C   UNL     1       7.411   4.507  13.601  0.00  0.00    +0.000 A 
ATOM     18  C   UNL     1       6.217   3.859  13.352  0.00  0.00    +0.000 A 
ATOM     19  C   UNL     1       5.186   4.005  14.276  0.00  0.00    +0.000 A 
ATOM     20  C   UNL     1       5.377   4.792  15.422  0.00  0.00    +0.000 A 
ATOM     21  C   UNL     1       4.392   4.916  16.432  0.00  0.00    +0.000 A 
ENDBRANCH  10  12
ENDBRANCH   4   7
BRANCH   1  23
ATOM     22  O   UNL     1      -1.498  10.798  23.314  0.00  0.00    +0.000 OA
ATOM     23  C   UNL     1      -0.840  11.041  22.306  0.00  0.00    +0.000 C 
ATOM     24  N   UNL     1      -0.731  12.284  21.695  0.00  0.00    +0.000 N 
ATOM     25  H   UNL     1      -0.086  12.442  20.930  0.00  0.00    +0.000 HD
BRANCH  24  26
ATOM     26  N   UNL     1      -1.439  13.332  22.184  0.00  0.00    +0.000 NA
ATOM     27  C   UNL     1      -0.770  14.299  22.722  0.00  0.00    +0.000 C 
BRANCH  27  28
ATOM     28  C   UNL     1      -1.457  15.487  23.266  0.00  0.00    +0.000 A 
ATOM     29  C   UNL     1      -0.738  16.663  23.511  0.00  0.00    +0.000 A 
ATOM     30  C   UNL     1      -1.381  17.777  24.053  0.00  0.00    +0.000 A 
ATOM     31  C   UNL     1      -2.742  17.717  24.350  0.00  0.00    +0.000 A 
ATOM     32  C   UNL     1      -3.455  16.542  24.097  0.00  0.00    +0.000 A 
ATOM     33 CL   UNL     1      -5.137  16.469  24.468  0.00  0.00    +0.000 Cl
ATOM     34  C   UNL     1      -2.822  15.424  23.552  0.00  0.00    +0.000 A 
ENDBRANCH  27  28
ENDBRANCH  24  26
ENDBRANCH   1  23
TORSDOF 5
ENDMDL
