MODEL 1
REMARK VINA RESULT:      -7.6      0.000      0.000
REMARK  Name = 
REMARK  6 active torsions:
REMARK  status: ('A' for Active; 'I' for Inactive)
REMARK    1  A    between atoms: C_1  and  C_2
REMARK    2  A    between atoms: C_2  and  N_3
REMARK    3  A    between atoms: C_6  and  N_7
REMARK    4  A    between atoms: N_7  and  C_8
REMARK    5  A    between atoms: N_7  and  C_9
REMARK    6  A    between atoms: C_15  and  C_16
REMARK                            x       y       z     vdW  Elec       q    Type
REMARK                         _______ _______ _______ _____ _____    ______ ____
ROOT
ATOM      1  C   UNL     1       5.463   5.331  17.578  0.00  0.00    +0.000 A 
ATOM      2  N   UNL     1       6.226   6.259  18.222  0.00  0.00    +0.000 NA
ATOM      3  C   UNL     1       7.292   6.795  17.612  0.00  0.00    +0.000 A 
ATOM      4  N   UNL     1       7.733   6.546  16.384  0.00  0.00    +0.000 NA
ATOM      5  C   UNL     1       6.951   5.663  15.736  0.00  0.00    +0.000 A 
ATOM      6  S   UNL     1       7.312   5.214  14.131  0.00  0.00    +0.000 S 
ATOM      7  C   UNL     1       5.944   4.196  14.032  0.00  0.00    +0.000 A 
ATOM      8  C   UNL     1       5.234   4.227  15.211  0.00  0.00    +0.000 A 
ATOM      9  C   UNL     1       5.823   5.038  16.239  0.00  0.00    +0.000 A 
ENDROOT
BRANCH   7  10
ATOM     10  C   UNL     1       5.611   3.437  12.816  0.00  0.00    +0.000 A 
ATOM     11  C   UNL     1       6.469   2.464  12.293  0.00  0.00    +0.000 A 
ATOM     12  C   UNL     1       6.119   1.750  11.144  0.00  0.00    +0.000 A 
ATOM     13  C   UNL     1       4.904   1.994  10.509  0.00  0.00    +0.000 A 
ATOM     14  C   UNL     1       4.025   2.939  11.028  0.00  0.00    +0.000 A 
ATOM     15  C   UNL     1       4.377   3.654  12.172  0.00  0.00    +0.000 A 
ENDBRANCH   7  10
BRANCH   1  16
ATOM     16  N   UNL     1       4.399   4.775  18.291  0.00  0.00    +0.000 N 
ATOM     17  C   UNL     1       4.830   3.785  19.268  0.00  0.00    +0.000 C 
BRANCH  16  21
ATOM     18  N   UNL     1       1.135   4.075  20.132  0.00  0.00    +0.000 NA
ATOM     19  C   UNL     1       2.150   5.021  20.613  0.00  0.00    +0.000 C 
ATOM     20  C   UNL     1       2.618   6.016  19.564  0.00  0.00    +0.000 C 
ATOM     21  C   UNL     1       3.048   5.359  18.256  0.00  0.00    +0.000 C 
ATOM     22  C   UNL     1       1.964   4.403  17.769  0.00  0.00    +0.000 C 
ATOM     23  C   UNL     1       1.453   3.448  18.836  0.00  0.00    +0.000 C 
BRANCH  18  25
ATOM     24  C   UNL     1       2.180   2.462  21.755  0.00  0.00    +0.000 C 
ATOM     25  C   UNL     1       0.904   3.004  21.122  0.00  0.00    +0.000 C 
ENDBRANCH  18  25
ENDBRANCH  16  21
ENDBRANCH   1  16
TORSDOF 4
ENDMDL
MODEL 2
REMARK VINA RESULT:      -7.3      3.247      7.974
REMARK  Name = 
REMARK  6 active torsions:
REMARK  status: ('A' for Active; 'I' for Inactive)
REMARK    1  A    between atoms: C_1  and  C_2
REMARK    2  A    between atoms: C_2  and  N_3
REMARK    3  A    between atoms: C_6  and  N_7
REMARK    4  A    between atoms: N_7  and  C_8
REMARK    5  A    between atoms: N_7  and  C_9
REMARK    6  A    between atoms: C_15  and  C_16
REMARK                            x       y       z     vdW  Elec       q    Type
REMARK                         _______ _______ _______ _____ _____    ______ ____
ROOT
ATOM      1  C   UNL     1       3.678   4.459  19.110  0.00  0.00    +0.000 A 
ATOM      2  N   UNL     1       3.528   3.296  19.805  0.00  0.00    +0.000 NA
ATOM      3  C   UNL     1       2.712   3.244  20.866  0.00  0.00    +0.000 A 
ATOM      4  N   UNL     1       1.968   4.226  21.363  0.00  0.00    +0.000 NA
ATOM      5  C   UNL     1       2.084   5.360  20.648  0.00  0.00    +0.000 A 
ATOM      6  S   UNL     1       1.195   6.747  21.089  0.00  0.00    +0.000 S 
ATOM      7  C   UNL     1       1.811   7.648  19.776  0.00  0.00    +0.000 A 
ATOM      8  C   UNL     1       2.667   6.877  19.022  0.00  0.00    +0.000 A 
ATOM      9  C   UNL     1       2.881   5.552  19.533  0.00  0.00    +0.000 A 
ENDROOT
BRANCH   7  10
ATOM     10  C   UNL     1       1.422   9.045  19.524  0.00  0.00    +0.000 A 
ATOM     11  C   UNL     1       0.637   9.768  20.428  0.00  0.00    +0.000 A 
ATOM     12  C   UNL     1       0.293  11.097  20.167  0.00  0.00    +0.000 A 
ATOM     13  C   UNL     1       0.737  11.722  19.004  0.00  0.00    +0.000 A 
ATOM     14  C   UNL     1       1.540  11.027  18.105  0.00  0.00    +0.000 A 
ATOM     15  C   UNL     1       1.879   9.699  18.364  0.00  0.00    +0.000 A 
ENDBRANCH   7  10
BRANCH   1  16
ATOM     16  N   UNL     1       4.583   4.456  18.048  0.00  0.00    +0.000 N 
ATOM     17  C   UNL     1       4.176   3.577  16.960  0.00  0.00    +0.000 C 
BRANCH  16  21
ATOM     18  N   UNL     1       7.053   5.434  15.312  0.00  0.00    +0.000 NA
ATOM     19  C   UNL     1       5.721   6.036  15.455  0.00  0.00    +0.000 C 
ATOM     20  C   UNL     1       5.404   6.518  16.862  0.00  0.00    +0.000 C 
ATOM     21  C   UNL     1       5.653   5.461  17.933  0.00  0.00    +0.000 C 
ATOM     22  C   UNL     1       7.052   4.873  17.775  0.00  0.00    +0.000 C 
ATOM     23  C   UNL     1       7.389   4.448  16.355  0.00  0.00    +0.000 C 
BRANCH  18  25
ATOM     24  C   UNL     1       6.017   3.899  13.609  0.00  0.00    +0.000 C 
ATOM     25  C   UNL     1       7.196   4.784  13.994  0.00  0.00    +0.000 C 
ENDBRANCH  18  25
ENDBRANCH  16  21
ENDBRANCH   1  16
TORSDOF 4
ENDMDL
MODEL 3
REMARK VINA RESULT:      -7.3      3.144      7.858
REMARK  Name = 
REMARK  6 active torsions:
REMARK  status: ('A' for Active; 'I' for Inactive)
REMARK    1  A    between atoms: C_1  and  C_2
REMARK    2  A    between atoms: C_2  and  N_3
REMARK    3  A    between atoms: C_6  and  N_7
REMARK    4  A    between atoms: N_7  and  C_8
REMARK    5  A    between atoms: N_7  and  C_9
REMARK    6  A    between atoms: C_15  and  C_16
REMARK                            x       y       z     vdW  Elec       q    Type
REMARK                         _______ _______ _______ _____ _____    ______ ____
ROOT
ATOM      1  C   UNL     1       3.851   4.216  19.225  0.00  0.00    +0.000 A 
ATOM      2  N   UNL     1       3.698   3.064  19.937  0.00  0.00    +0.000 NA
ATOM      3  C   UNL     1       2.857   3.022  20.979  0.00  0.00    +0.000 A 
ATOM      4  N   UNL     1       2.087   4.002  21.439  0.00  0.00    +0.000 NA
ATOM      5  C   UNL     1       2.207   5.124  20.706  0.00  0.00    +0.000 A 
ATOM      6  S   UNL     1       1.289   6.508  21.098  0.00  0.00    +0.000 S 
ATOM      7  C   UNL     1       1.927   7.392  19.784  0.00  0.00    +0.000 A 
ATOM      8  C   UNL     1       2.811   6.619  19.066  0.00  0.00    +0.000 A 
ATOM      9  C   UNL     1       3.029   5.306  19.607  0.00  0.00    +0.000 A 
ENDROOT
BRANCH   7  10
ATOM     10  C   UNL     1       1.526   8.778  19.495  0.00  0.00    +0.000 A 
ATOM     11  C   UNL     1       1.839   9.402  18.283  0.00  0.00    +0.000 A 
ATOM     12  C   UNL     1       1.434  10.715  18.032  0.00  0.00    +0.000 A 
ATOM     13  C   UNL     1       0.703  11.418  18.987  0.00  0.00    +0.000 A 
ATOM     14  C   UNL     1       0.361  10.808  20.189  0.00  0.00    +0.000 A 
ATOM     15  C   UNL     1       0.769   9.498  20.439  0.00  0.00    +0.000 A 
ENDBRANCH   7  10
BRANCH   1  16
ATOM     16  N   UNL     1       4.783   4.206  18.187  0.00  0.00    +0.000 N 
ATOM     17  C   UNL     1       4.373   3.369  17.067  0.00  0.00    +0.000 C 
BRANCH  16  21
ATOM     18  N   UNL     1       7.060   5.487  15.410  0.00  0.00    +0.000 NA
ATOM     19  C   UNL     1       5.779   6.113  15.761  0.00  0.00    +0.000 C 
ATOM     20  C   UNL     1       5.608   6.389  17.246  0.00  0.00    +0.000 C 
ATOM     21  C   UNL     1       5.891   5.174  18.123  0.00  0.00    +0.000 C 
ATOM     22  C   UNL     1       7.238   4.562  17.753  0.00  0.00    +0.000 C 
ATOM     23  C   UNL     1       7.431   4.343  16.262  0.00  0.00    +0.000 C 
BRANCH  18  25
ATOM     24  C   UNL     1       6.160   3.836  13.738  0.00  0.00    +0.000 C 
ATOM     25  C   UNL     1       7.058   5.039  14.003  0.00  0.00    +0.000 C 
ENDBRANCH  18  25
ENDBRANCH  16  21
ENDBRANCH   1  16
TORSDOF 4
ENDMDL
MODEL 4
REMARK VINA RESULT:      -7.3      0.841      1.571
REMARK  Name = 
REMARK  6 active torsions:
REMARK  status: ('A' for Active; 'I' for Inactive)
REMARK    1  A    between atoms: C_1  and  C_2
REMARK    2  A    between atoms: C_2  and  N_3
REMARK    3  A    between atoms: C_6  and  N_7
REMARK    4  A    between atoms: N_7  and  C_8
REMARK    5  A    between atoms: N_7  and  C_9
REMARK    6  A    between atoms: C_15  and  C_16
REMARK                            x       y       z     vdW  Elec       q    Type
REMARK                         _______ _______ _______ _____ _____    ______ ____
ROOT
ATOM      1  C   UNL     1       5.125   5.519  17.380  0.00  0.00    +0.000 A 
ATOM      2  N   UNL     1       5.931   6.368  18.078  0.00  0.00    +0.000 NA
ATOM      3  C   UNL     1       7.124   6.723  17.584  0.00  0.00    +0.000 A 
ATOM      4  N   UNL     1       7.665   6.354  16.428  0.00  0.00    +0.000 NA
ATOM      5  C   UNL     1       6.847   5.552  15.721  0.00  0.00    +0.000 A 
ATOM      6  S   UNL     1       7.324   4.976  14.188  0.00  0.00    +0.000 S 
ATOM      7  C   UNL     1       5.849   4.147  13.960  0.00  0.00    +0.000 A 
ATOM      8  C   UNL     1       5.019   4.334  15.043  0.00  0.00    +0.000 A 
ATOM      9  C   UNL     1       5.593   5.111  16.106  0.00  0.00    +0.000 A 
ENDROOT
BRANCH   7  10
ATOM     10  C   UNL     1       5.555   3.378  12.741  0.00  0.00    +0.000 A 
ATOM     11  C   UNL     1       4.356   3.537  12.038  0.00  0.00    +0.000 A 
ATOM     12  C   UNL     1       4.110   2.802  10.875  0.00  0.00    +0.000 A 
ATOM     13  C   UNL     1       5.062   1.905  10.397  0.00  0.00    +0.000 A 
ATOM     14  C   UNL     1       6.271   1.750  11.068  0.00  0.00    +0.000 A 
ATOM     15  C   UNL     1       6.514   2.482  12.231  0.00  0.00    +0.000 A 
ENDBRANCH   7  10
BRANCH   1  16
ATOM     16  N   UNL     1       3.919   5.148  17.977  0.00  0.00    +0.000 N 
ATOM     17  C   UNL     1       3.409   6.158  18.895  0.00  0.00    +0.000 C 
BRANCH  16  21
ATOM     18  N   UNL     1       1.681   2.543  19.634  0.00  0.00    +0.000 NA
ATOM     19  C   UNL     1       1.190   3.834  19.133  0.00  0.00    +0.000 C 
ATOM     20  C   UNL     1       1.623   4.154  17.711  0.00  0.00    +0.000 C 
ATOM     21  C   UNL     1       3.126   4.008  17.490  0.00  0.00    +0.000 C 
ATOM     22  C   UNL     1       3.601   2.650  17.997  0.00  0.00    +0.000 C 
ATOM     23  C   UNL     1       3.116   2.305  19.395  0.00  0.00    +0.000 C 
BRANCH  18  25
ATOM     24  C   UNL     1       2.185   3.409  21.942  0.00  0.00    +0.000 C 
ATOM     25  C   UNL     1       1.421   2.410  21.082  0.00  0.00    +0.000 C 
ENDBRANCH  18  25
ENDBRANCH  16  21
ENDBRANCH   1  16
TORSDOF 4
ENDMDL
MODEL 5
REMARK VINA RESULT:      -7.1      3.211      7.561
REMARK  Name = 
REMARK  6 active torsions:
REMARK  status: ('A' for Active; 'I' for Inactive)
REMARK    1  A    between atoms: C_1  and  C_2
REMARK    2  A    between atoms: C_2  and  N_3
REMARK    3  A    between atoms: C_6  and  N_7
REMARK    4  A    between atoms: N_7  and  C_8
REMARK    5  A    between atoms: N_7  and  C_9
REMARK    6  A    between atoms: C_15  and  C_16
REMARK                            x       y       z     vdW  Elec       q    Type
REMARK                         _______ _______ _______ _____ _____    ______ ____
ROOT
ATOM      1  C   UNL     1       4.432   3.811  18.152  0.00  0.00    +0.000 A 
ATOM      2  N   UNL     1       4.415   2.565  18.704  0.00  0.00    +0.000 NA
ATOM      3  C   UNL     1       3.687   2.323  19.802  0.00  0.00    +0.000 A 
ATOM      4  N   UNL     1       2.916   3.177  20.466  0.00  0.00    +0.000 NA
ATOM      5  C   UNL     1       2.899   4.394  19.893  0.00  0.00    +0.000 A 
ATOM      6  S   UNL     1       1.952   5.645  20.562  0.00  0.00    +0.000 S 
ATOM      7  C   UNL     1       2.404   6.742  19.334  0.00  0.00    +0.000 A 
ATOM      8  C   UNL     1       3.252   6.137  18.435  0.00  0.00    +0.000 A 
ATOM      9  C   UNL     1       3.595   4.780  18.761  0.00  0.00    +0.000 A 
ENDROOT
BRANCH   7  10
ATOM     10  C   UNL     1       1.901   8.124  19.286  0.00  0.00    +0.000 A 
ATOM     11  C   UNL     1       1.265   8.719  20.380  0.00  0.00    +0.000 A 
ATOM     12  C   UNL     1       0.809  10.038  20.309  0.00  0.00    +0.000 A 
ATOM     13  C   UNL     1       0.991  10.781  19.145  0.00  0.00    +0.000 A 
ATOM     14  C   UNL     1       1.643  10.216  18.054  0.00  0.00    +0.000 A 
ATOM     15  C   UNL     1       2.094   8.898  18.125  0.00  0.00    +0.000 A 
ENDBRANCH   7  10
BRANCH   1  16
ATOM     16  N   UNL     1       5.253   4.007  17.041  0.00  0.00    +0.000 N 
ATOM     17  C   UNL     1       4.506   4.361  15.841  0.00  0.00    +0.000 C 
BRANCH  16  21
ATOM     18  N   UNL     1       7.647   6.934  17.531  0.00  0.00    +0.000 NA
ATOM     19  C   UNL     1       7.048   6.182  18.641  0.00  0.00    +0.000 C 
ATOM     20  C   UNL     1       7.181   4.673  18.514  0.00  0.00    +0.000 C 
ATOM     21  C   UNL     1       6.714   4.137  17.165  0.00  0.00    +0.000 C 
ATOM     22  C   UNL     1       7.373   4.919  16.033  0.00  0.00    +0.000 C 
ATOM     23  C   UNL     1       7.291   6.428  16.193  0.00  0.00    +0.000 C 
BRANCH  18  25
ATOM     24  C   UNL     1       8.390   9.265  18.118  0.00  0.00    +0.000 C 
ATOM     25  C   UNL     1       7.277   8.362  17.603  0.00  0.00    +0.000 C 
ENDBRANCH  18  25
ENDBRANCH  16  21
ENDBRANCH   1  16
TORSDOF 4
ENDMDL
MODEL 6
REMARK VINA RESULT:      -7.0      3.362      7.625
REMARK  Name = 
REMARK  6 active torsions:
REMARK  status: ('A' for Active; 'I' for Inactive)
REMARK    1  A    between atoms: C_1  and  C_2
REMARK    2  A    between atoms: C_2  and  N_3
REMARK    3  A    between atoms: C_6  and  N_7
REMARK    4  A    between atoms: N_7  and  C_8
REMARK    5  A    between atoms: N_7  and  C_9
REMARK    6  A    between atoms: C_15  and  C_16
REMARK                            x       y       z     vdW  Elec       q    Type
REMARK                         _______ _______ _______ _____ _____    ______ ____
ROOT
ATOM      1  C   UNL     1       4.273   3.917  18.598  0.00  0.00    +0.000 A 
ATOM      2  N   UNL     1       4.213   2.719  19.245  0.00  0.00    +0.000 NA
ATOM      3  C   UNL     1       3.453   2.581  20.339  0.00  0.00    +0.000 A 
ATOM      4  N   UNL     1       2.686   3.501  20.913  0.00  0.00    +0.000 NA
ATOM      5  C   UNL     1       2.712   4.669  20.245  0.00  0.00    +0.000 A 
ATOM      6  S   UNL     1       1.778   5.989  20.788  0.00  0.00    +0.000 S 
ATOM      7  C   UNL     1       2.286   6.975  19.490  0.00  0.00    +0.000 A 
ATOM      8  C   UNL     1       3.142   6.282  18.664  0.00  0.00    +0.000 A 
ATOM      9  C   UNL     1       3.445   4.949  19.105  0.00  0.00    +0.000 A 
ENDROOT
BRANCH   7  10
ATOM     10  C   UNL     1       1.817   8.360  19.318  0.00  0.00    +0.000 A 
ATOM     11  C   UNL     1       2.089   9.094  18.159  0.00  0.00    +0.000 A 
ATOM     12  C   UNL     1       1.620  10.403  18.018  0.00  0.00    +0.000 A 
ATOM     13  C   UNL     1       0.866  10.990  19.032  0.00  0.00    +0.000 A 
ATOM     14  C   UNL     1       0.563  10.268  20.182  0.00  0.00    +0.000 A 
ATOM     15  C   UNL     1       1.036   8.963  20.322  0.00  0.00    +0.000 A 
ENDBRANCH   7  10
BRANCH   1  16
ATOM     16  N   UNL     1       5.126   4.005  17.497  0.00  0.00    +0.000 N 
ATOM     17  C   UNL     1       4.421   4.308  16.258  0.00  0.00    +0.000 C 
BRANCH  16  21
ATOM     18  N   UNL     1       7.653   6.858  17.629  0.00  0.00    +0.000 NA
ATOM     19  C   UNL     1       6.987   6.308  18.817  0.00  0.00    +0.000 C 
ATOM     20  C   UNL     1       7.047   4.793  18.918  0.00  0.00    +0.000 C 
ATOM     21  C   UNL     1       6.588   4.084  17.647  0.00  0.00    +0.000 C 
ATOM     22  C   UNL     1       7.315   4.658  16.435  0.00  0.00    +0.000 C 
ATOM     23  C   UNL     1       7.305   6.176  16.369  0.00  0.00    +0.000 C 
BRANCH  18  25
ATOM     24  C   UNL     1       8.366   9.213  18.150  0.00  0.00    +0.000 C 
ATOM     25  C   UNL     1       7.353   8.296  17.478  0.00  0.00    +0.000 C 
ENDBRANCH  18  25
ENDBRANCH  16  21
ENDBRANCH   1  16
TORSDOF 4
ENDMDL
MODEL 7
REMARK VINA RESULT:      -7.0     10.227     13.229
REMARK  Name = 
REMARK  6 active torsions:
REMARK  status: ('A' for Active; 'I' for Inactive)
REMARK    1  A    between atoms: C_1  and  C_2
REMARK    2  A    between atoms: C_2  and  N_3
REMARK    3  A    between atoms: C_6  and  N_7
REMARK    4  A    between atoms: N_7  and  C_8
REMARK    5  A    between atoms: N_7  and  C_9
REMARK    6  A    between atoms: C_15  and  C_16
REMARK                            x       y       z     vdW  Elec       q    Type
REMARK                         _______ _______ _______ _____ _____    ______ ____
ROOT
ATOM      1  C   UNL     1      -5.407  13.604  22.044  0.00  0.00    +0.000 A 
ATOM      2  N   UNL     1      -6.558  13.639  22.773  0.00  0.00    +0.000 NA
ATOM      3  C   UNL     1      -7.649  12.992  22.342  0.00  0.00    +0.000 A 
ATOM      4  N   UNL     1      -7.774  12.259  21.241  0.00  0.00    +0.000 NA
ATOM      5  C   UNL     1      -6.623  12.190  20.547  0.00  0.00    +0.000 A 
ATOM      6  S   UNL     1      -6.542  11.278  19.108  0.00  0.00    +0.000 S 
ATOM      7  C   UNL     1      -4.886  11.632  18.891  0.00  0.00    +0.000 A 
ATOM      8  C   UNL     1      -4.423  12.422  19.919  0.00  0.00    +0.000 A 
ATOM      9  C   UNL     1      -5.426  12.802  20.876  0.00  0.00    +0.000 A 
ENDROOT
BRANCH   7  10
ATOM     10  C   UNL     1      -4.109  11.112  17.755  0.00  0.00    +0.000 A 
ATOM     11  C   UNL     1      -4.469  11.377  16.430  0.00  0.00    +0.000 A 
ATOM     12  C   UNL     1      -3.705  10.881  15.371  0.00  0.00    +0.000 A 
ATOM     13  C   UNL     1      -2.565  10.120  15.624  0.00  0.00    +0.000 A 
ATOM     14  C   UNL     1      -2.176   9.867  16.935  0.00  0.00    +0.000 A 
ATOM     15  C   UNL     1      -2.942  10.360  17.991  0.00  0.00    +0.000 A 
ENDBRANCH   7  10
BRANCH   1  16
ATOM     16  N   UNL     1      -4.326  14.345  22.523  0.00  0.00    +0.000 N 
ATOM     17  C   UNL     1      -4.235  15.668  21.920  0.00  0.00    +0.000 C 
BRANCH  16  21
ATOM     18  N   UNL     1      -1.057  12.468  23.100  0.00  0.00    +0.000 NA
ATOM     19  C   UNL     1      -1.139  13.927  22.953  0.00  0.00    +0.000 C 
ATOM     20  C   UNL     1      -2.191  14.582  23.834  0.00  0.00    +0.000 C 
ATOM     21  C   UNL     1      -3.567  13.934  23.716  0.00  0.00    +0.000 C 
ATOM     22  C   UNL     1      -3.453  12.424  23.898  0.00  0.00    +0.000 C 
ATOM     23  C   UNL     1      -2.360  11.779  23.062  0.00  0.00    +0.000 C 
BRANCH  18  25
ATOM     24  C   UNL     1      -0.913  11.587  20.748  0.00  0.00    +0.000 C 
ATOM     25  C   UNL     1      -0.191  11.883  22.056  0.00  0.00    +0.000 C 
ENDBRANCH  18  25
ENDBRANCH  16  21
ENDBRANCH   1  16
TORSDOF 4
ENDMDL
MODEL 8
REMARK VINA RESULT:      -6.9      2.951      7.932
REMARK  Name = 
REMARK  6 active torsions:
REMARK  status: ('A' for Active; 'I' for Inactive)
REMARK    1  A    between atoms: C_1  and  C_2
REMARK    2  A    between atoms: C_2  and  N_3
REMARK    3  A    between atoms: C_6  and  N_7
REMARK    4  A    between atoms: N_7  and  C_8
REMARK    5  A    between atoms: N_7  and  C_9
REMARK    6  A    between atoms: C_15  and  C_16
REMARK                            x       y       z     vdW  Elec       q    Type
REMARK                         _______ _______ _______ _____ _____    ______ ____
ROOT
ATOM      1  C   UNL     1       5.101   4.863  19.003  0.00  0.00    +0.000 A 
ATOM      2  N   UNL     1       5.195   3.508  19.116  0.00  0.00    +0.000 NA
ATOM      3  C   UNL     1       4.219   2.811  19.713  0.00  0.00    +0.000 A 
ATOM      4  N   UNL     1       3.090   3.281  20.232  0.00  0.00    +0.000 NA
ATOM      5  C   UNL     1       2.980   4.613  20.079  0.00  0.00    +0.000 A 
ATOM      6  S   UNL     1       1.595   5.431  20.648  0.00  0.00    +0.000 S 
ATOM      7  C   UNL     1       2.160   6.937  20.076  0.00  0.00    +0.000 A 
ATOM      8  C   UNL     1       3.380   6.790  19.453  0.00  0.00    +0.000 A 
ATOM      9  C   UNL     1       3.904   5.453  19.481  0.00  0.00    +0.000 A 
ENDROOT
BRANCH   7  10
ATOM     10  C   UNL     1       1.391   8.182  20.233  0.00  0.00    +0.000 A 
ATOM     11  C   UNL     1       1.239   9.095  19.185  0.00  0.00    +0.000 A 
ATOM     12  C   UNL     1       0.492  10.263  19.360  0.00  0.00    +0.000 A 
ATOM     13  C   UNL     1      -0.119  10.527  20.583  0.00  0.00    +0.000 A 
ATOM     14  C   UNL     1      -0.001   9.620  21.631  0.00  0.00    +0.000 A 
ATOM     15  C   UNL     1       0.748   8.456  21.455  0.00  0.00    +0.000 A 
ENDBRANCH   7  10
BRANCH   1  16
ATOM     16  N   UNL     1       6.177   5.531  18.418  0.00  0.00    +0.000 N 
ATOM     17  C   UNL     1       7.467   5.061  18.906  0.00  0.00    +0.000 C 
BRANCH  16  21
ATOM     18  N   UNL     1       6.147   4.908  14.656  0.00  0.00    +0.000 NA
ATOM     19  C   UNL     1       4.942   4.863  15.495  0.00  0.00    +0.000 C 
ATOM     20  C   UNL     1       4.771   6.070  16.402  0.00  0.00    +0.000 C 
ATOM     21  C   UNL     1       6.012   6.386  17.230  0.00  0.00    +0.000 C 
ATOM     22  C   UNL     1       7.241   6.452  16.329  0.00  0.00    +0.000 C 
ATOM     23  C   UNL     1       7.378   5.272  15.380  0.00  0.00    +0.000 C 
BRANCH  18  25
ATOM     24  C   UNL     1       5.768   3.528  12.587  0.00  0.00    +0.000 C 
ATOM     25  C   UNL     1       6.368   3.611  13.985  0.00  0.00    +0.000 C 
ENDBRANCH  18  25
ENDBRANCH  16  21
ENDBRANCH   1  16
TORSDOF 4
ENDMDL
MODEL 9
REMARK VINA RESULT:      -6.9      1.457      2.427
REMARK  Name = 
REMARK  6 active torsions:
REMARK  status: ('A' for Active; 'I' for Inactive)
REMARK    1  A    between atoms: C_1  and  C_2
REMARK    2  A    between atoms: C_2  and  N_3
REMARK    3  A    between atoms: C_6  and  N_7
REMARK    4  A    between atoms: N_7  and  C_8
REMARK    5  A    between atoms: N_7  and  C_9
REMARK    6  A    between atoms: C_15  and  C_16
REMARK                            x       y       z     vdW  Elec       q    Type
REMARK                         _______ _______ _______ _____ _____    ______ ____
ROOT
ATOM      1  C   UNL     1       5.066   4.128  18.706  0.00  0.00    +0.000 A 
ATOM      2  N   UNL     1       5.682   4.866  19.672  0.00  0.00    +0.000 NA
ATOM      3  C   UNL     1       6.749   5.616  19.369  0.00  0.00    +0.000 A 
ATOM      4  N   UNL     1       7.323   5.765  18.180  0.00  0.00    +0.000 NA
ATOM      5  C   UNL     1       6.685   5.070  17.221  0.00  0.00    +0.000 A 
ATOM      6  S   UNL     1       7.232   5.134  15.607  0.00  0.00    +0.000 S 
ATOM      7  C   UNL     1       5.974   4.116  15.063  0.00  0.00    +0.000 A 
ATOM      8  C   UNL     1       5.157   3.758  16.111  0.00  0.00    +0.000 A 
ATOM      9  C   UNL     1       5.574   4.263  17.390  0.00  0.00    +0.000 A 
ENDROOT
BRANCH   7  10
ATOM     10  C   UNL     1       5.823   3.731  13.651  0.00  0.00    +0.000 A 
ATOM     11  C   UNL     1       4.569   3.639  13.040  0.00  0.00    +0.000 A 
ATOM     12  C   UNL     1       4.456   3.283  11.693  0.00  0.00    +0.000 A 
ATOM     13  C   UNL     1       5.599   3.024  10.939  0.00  0.00    +0.000 A 
ATOM     14  C   UNL     1       6.857   3.135  11.521  0.00  0.00    +0.000 A 
ATOM     15  C   UNL     1       6.967   3.486  12.867  0.00  0.00    +0.000 A 
ENDBRANCH   7  10
BRANCH   1  16
ATOM     16  N   UNL     1       3.993   3.328  19.102  0.00  0.00    +0.000 N 
ATOM     17  C   UNL     1       4.366   2.334  20.099  0.00  0.00    +0.000 C 
BRANCH  16  21
ATOM     18  N   UNL     1       1.736   6.326  19.777  0.00  0.00    +0.000 NA
ATOM     19  C   UNL     1       2.593   6.208  18.591  0.00  0.00    +0.000 C 
ATOM     20  C   UNL     1       2.458   4.884  17.855  0.00  0.00    +0.000 C 
ATOM     21  C   UNL     1       2.600   3.669  18.767  0.00  0.00    +0.000 C 
ATOM     22  C   UNL     1       1.680   3.809  19.975  0.00  0.00    +0.000 C 
ATOM     23  C   UNL     1       1.773   5.156  20.673  0.00  0.00    +0.000 C 
BRANCH  18  25
ATOM     24  C   UNL     1       0.903   8.188  21.250  0.00  0.00    +0.000 C 
ATOM     25  C   UNL     1       2.090   7.525  20.563  0.00  0.00    +0.000 C 
ENDBRANCH  18  25
ENDBRANCH  16  21
ENDBRANCH   1  16
TORSDOF 4
ENDMDL
