MODEL 1
REMARK VINA RESULT:      -8.4      0.000      0.000
REMARK  Name = 
REMARK  12 active torsions:
REMARK  status: ('A' for Active; 'I' for Inactive)
REMARK    1  A    between atoms: C_1  and  N_2
REMARK    2  A    between atoms: N_2  and  C_3
REMARK    3  A    between atoms: N_2  and  C_4
REMARK    4  A    between atoms: C_4  and  C_5
REMARK    5  A    between atoms: C_5  and  C_6
REMARK    6  A    between atoms: C_6  and  C_7
REMARK    7  A    between atoms: C_7  and  O_8
REMARK    8  A    between atoms: O_8  and  C_9
REMARK    9  A    between atoms: N_11  and  C_12
REMARK   10  A    between atoms: C_16  and  C_17
REMARK   11  A    between atoms: C_17  and  N_18
REMARK   12  A    between atoms: N_21  and  C_22
REMARK                            x       y       z     vdW  Elec       q    Type
REMARK                         _______ _______ _______ _____ _____    ______ ____
ROOT
ATOM      1  C   UNL     1       6.445   6.837  16.974  0.00  0.00    +0.000 A 
ATOM      2  C   UNL     1       5.686   6.613  15.823  0.00  0.00    +0.000 A 
ATOM      3  C   UNL     1       4.882   5.480  15.711  0.00  0.00    +0.000 A 
ATOM      4  C   UNL     1       4.800   4.579  16.768  0.00  0.00    +0.000 A 
ATOM      5  C   UNL     1       5.542   4.787  17.938  0.00  0.00    +0.000 A 
ATOM      6  C   UNL     1       6.411   5.891  18.007  0.00  0.00    +0.000 A 
ENDROOT
BRANCH   1   9
ATOM      7  C   UNL     1       8.196   8.187  18.106  0.00  0.00    +0.000 C 
ATOM      8  O   UNL     1       8.615   7.390  18.931  0.00  0.00    +0.000 OA
ATOM      9  N   UNL     1       7.245   7.982  17.142  0.00  0.00    +0.000 N 
ATOM     10  H   UNL     1       7.117   8.756  16.506  0.00  0.00    +0.000 HD
BRANCH   7  11
ATOM     11  O   UNL     1       8.576   9.493  18.065  0.00  0.00    +0.000 OA
BRANCH  11  12
ATOM     12  C   UNL     1       9.098   9.968  19.312  0.00  0.00    +0.000 C 
BRANCH  12  13
ATOM     13  C   UNL     1      10.086  11.119  19.178  0.00  0.00    +0.000 C 
BRANCH  13  14
ATOM     14  C   UNL     1      10.143  11.681  17.756  0.00  0.00    +0.000 C 
BRANCH  14  15
ATOM     15  C   UNL     1       9.782  13.175  17.688  0.00  0.00    +0.000 C 
BRANCH  15  17
ATOM     16  C   UNL     1      11.432  14.609  18.758  0.00  0.00    +0.000 C 
ATOM     17  N   UNL     1      10.936  14.067  17.492  0.00  0.00    +0.000 NA
ATOM     18  C   UNL     1      12.017  13.365  16.796  0.00  0.00    +0.000 C 
ENDBRANCH  15  17
ENDBRANCH  14  15
ENDBRANCH  13  14
ENDBRANCH  12  13
ENDBRANCH  11  12
ENDBRANCH   7  11
ENDBRANCH   1   9
BRANCH   5  19
ATOM     19  C   UNL     1       5.387   3.838  19.110  0.00  0.00    +0.000 C 
BRANCH  19  20
ATOM     20  N   UNL     1       4.040   3.864  19.657  0.00  0.00    +0.000 N 
ATOM     21  N   UNL     1       3.482   5.111  19.818  0.00  0.00    +0.000 NA
ATOM     22  C   UNL     1       2.383   5.236  20.516  0.00  0.00    +0.000 A 
ATOM     23  N   UNL     1       1.837   6.477  20.746  0.00  0.00    +0.000 N 
ATOM     24  C   UNL     1       1.722   4.055  21.131  0.00  0.00    +0.000 A 
ATOM     25  C   UNL     1       2.227   2.846  20.893  0.00  0.00    +0.000 A 
ATOM     26  C   UNL     1       3.461   2.689  20.103  0.00  0.00    +0.000 A 
ATOM     27  O   UNL     1       3.909   1.560  19.922  0.00  0.00    +0.000 OA
ATOM     28  H   UNL     1       1.270   6.612  21.572  0.00  0.00    +0.000 HD
BRANCH  23  29
ATOM     29  C   UNL     1       1.841   7.568  19.859  0.00  0.00    +0.000 A 
ATOM     30  C   UNL     1       1.207   8.777  20.152  0.00  0.00    +0.000 A 
ATOM     31  C   UNL     1       1.216   9.836  19.237  0.00  0.00    +0.000 A 
ATOM     32  C   UNL     1       1.837   9.681  17.997  0.00  0.00    +0.000 A 
ATOM     33  C   UNL     1       2.449   8.471  17.680  0.00  0.00    +0.000 A 
ATOM     34  C   UNL     1       2.453   7.424  18.605  0.00  0.00    +0.000 A 
ENDBRANCH  23  29
ENDBRANCH  19  20
ENDBRANCH   5  19
TORSDOF 10
ENDMDL
MODEL 2
REMARK VINA RESULT:      -8.3      1.248      1.506
REMARK  Name = 
REMARK  12 active torsions:
REMARK  status: ('A' for Active; 'I' for Inactive)
REMARK    1  A    between atoms: C_1  and  N_2
REMARK    2  A    between atoms: N_2  and  C_3
REMARK    3  A    between atoms: N_2  and  C_4
REMARK    4  A    between atoms: C_4  and  C_5
REMARK    5  A    between atoms: C_5  and  C_6
REMARK    6  A    between atoms: C_6  and  C_7
REMARK    7  A    between atoms: C_7  and  O_8
REMARK    8  A    between atoms: O_8  and  C_9
REMARK    9  A    between atoms: N_11  and  C_12
REMARK   10  A    between atoms: C_16  and  C_17
REMARK   11  A    between atoms: C_17  and  N_18
REMARK   12  A    between atoms: N_21  and  C_22
REMARK                            x       y       z     vdW  Elec       q    Type
REMARK                         _______ _______ _______ _____ _____    ______ ____
ROOT
ATOM      1  C   UNL     1       6.232   6.050  16.597  0.00  0.00    +0.000 A 
ATOM      2  C   UNL     1       7.025   5.063  16.007  0.00  0.00    +0.000 A 
ATOM      3  C   UNL     1       6.515   3.789  15.769  0.00  0.00    +0.000 A 
ATOM      4  C   UNL     1       5.191   3.500  16.085  0.00  0.00    +0.000 A 
ATOM      5  C   UNL     1       4.370   4.476  16.666  0.00  0.00    +0.000 A 
ATOM      6  C   UNL     1       4.920   5.733  16.976  0.00  0.00    +0.000 A 
ENDROOT
BRANCH   1   9
ATOM      7  C   UNL     1       7.603   7.755  17.773  0.00  0.00    +0.000 C 
ATOM      8  O   UNL     1       8.267   7.052  18.521  0.00  0.00    +0.000 OA
ATOM      9  N   UNL     1       6.696   7.358  16.828  0.00  0.00    +0.000 N 
ATOM     10  H   UNL     1       6.328   8.106  16.257  0.00  0.00    +0.000 HD
BRANCH   7  11
ATOM     11  O   UNL     1       7.608   9.114  17.821  0.00  0.00    +0.000 OA
BRANCH  11  12
ATOM     12  C   UNL     1       8.747   9.651  18.505  0.00  0.00    +0.000 C 
BRANCH  12  13
ATOM     13  C   UNL     1       9.042  11.108  18.179  0.00  0.00    +0.000 C 
BRANCH  13  14
ATOM     14  C   UNL     1       9.558  11.889  19.390  0.00  0.00    +0.000 C 
BRANCH  14  15
ATOM     15  C   UNL     1      11.071  12.162  19.326  0.00  0.00    +0.000 C 
BRANCH  15  17
ATOM     16  C   UNL     1      12.301  14.262  19.369  0.00  0.00    +0.000 C 
ATOM     17  N   UNL     1      11.433  13.381  18.585  0.00  0.00    +0.000 NA
ATOM     18  C   UNL     1      12.088  13.040  17.320  0.00  0.00    +0.000 C 
ENDBRANCH  15  17
ENDBRANCH  14  15
ENDBRANCH  13  14
ENDBRANCH  12  13
ENDBRANCH  11  12
ENDBRANCH   7  11
ENDBRANCH   1   9
BRANCH   5  19
ATOM     19  C   UNL     1       2.910   4.172  16.936  0.00  0.00    +0.000 C 
BRANCH  19  20
ATOM     20  N   UNL     1       2.574   4.317  18.343  0.00  0.00    +0.000 N 
ATOM     21  N   UNL     1       2.441   5.608  18.797  0.00  0.00    +0.000 NA
ATOM     22  C   UNL     1       2.376   5.832  20.084  0.00  0.00    +0.000 A 
ATOM     23  N   UNL     1       2.304   7.116  20.569  0.00  0.00    +0.000 N 
ATOM     24  C   UNL     1       2.434   4.716  21.064  0.00  0.00    +0.000 A 
ATOM     25  C   UNL     1       2.476   3.466  20.605  0.00  0.00    +0.000 A 
ATOM     26  C   UNL     1       2.543   3.199  19.157  0.00  0.00    +0.000 A 
ATOM     27  O   UNL     1       2.602   2.034  18.772  0.00  0.00    +0.000 OA
ATOM     28  H   UNL     1       2.654   7.304  21.500  0.00  0.00    +0.000 HD
BRANCH  23  29
ATOM     29  C   UNL     1       1.639   8.200  19.969  0.00  0.00    +0.000 A 
ATOM     30  C   UNL     1       0.622   8.909  20.614  0.00  0.00    +0.000 A 
ATOM     31  C   UNL     1      -0.031   9.970  19.979  0.00  0.00    +0.000 A 
ATOM     32  C   UNL     1       0.306  10.313  18.669  0.00  0.00    +0.000 A 
ATOM     33  C   UNL     1       1.297   9.597  18.003  0.00  0.00    +0.000 A 
ATOM     34  C   UNL     1       1.960   8.550  18.650  0.00  0.00    +0.000 A 
ENDBRANCH  23  29
ENDBRANCH  19  20
ENDBRANCH   5  19
TORSDOF 10
ENDMDL
MODEL 3
REMARK VINA RESULT:      -8.1      1.342      1.740
REMARK  Name = 
REMARK  12 active torsions:
REMARK  status: ('A' for Active; 'I' for Inactive)
REMARK    1  A    between atoms: C_1  and  N_2
REMARK    2  A    between atoms: N_2  and  C_3
REMARK    3  A    between atoms: N_2  and  C_4
REMARK    4  A    between atoms: C_4  and  C_5
REMARK    5  A    between atoms: C_5  and  C_6
REMARK    6  A    between atoms: C_6  and  C_7
REMARK    7  A    between atoms: C_7  and  O_8
REMARK    8  A    between atoms: O_8  and  C_9
REMARK    9  A    between atoms: N_11  and  C_12
REMARK   10  A    between atoms: C_16  and  C_17
REMARK   11  A    between atoms: C_17  and  N_18
REMARK   12  A    between atoms: N_21  and  C_22
REMARK                            x       y       z     vdW  Elec       q    Type
REMARK                         _______ _______ _______ _____ _____    ______ ____
ROOT
ATOM      1  C   UNL     1       6.339   6.303  16.828  0.00  0.00    +0.000 A 
ATOM      2  C   UNL     1       7.130   5.236  16.395  0.00  0.00    +0.000 A 
ATOM      3  C   UNL     1       6.580   3.966  16.231  0.00  0.00    +0.000 A 
ATOM      4  C   UNL     1       5.223   3.760  16.461  0.00  0.00    +0.000 A 
ATOM      5  C   UNL     1       4.406   4.818  16.883  0.00  0.00    +0.000 A 
ATOM      6  C   UNL     1       4.989   6.075  17.124  0.00  0.00    +0.000 A 
ENDROOT
BRANCH   1   9
ATOM      7  C   UNL     1       7.770   8.031  17.895  0.00  0.00    +0.000 C 
ATOM      8  O   UNL     1       8.417   7.354  18.679  0.00  0.00    +0.000 OA
ATOM      9  N   UNL     1       6.845   7.608  16.979  0.00  0.00    +0.000 N 
ATOM     10  H   UNL     1       6.496   8.332  16.367  0.00  0.00    +0.000 HD
BRANCH   7  11
ATOM     11  O   UNL     1       7.817   9.390  17.862  0.00  0.00    +0.000 OA
BRANCH  11  12
ATOM     12  C   UNL     1       8.872   9.938  18.663  0.00  0.00    +0.000 C 
BRANCH  12  13
ATOM     13  C   UNL     1       9.606  11.105  18.016  0.00  0.00    +0.000 C 
BRANCH  13  14
ATOM     14  C   UNL     1       8.937  12.451  18.301  0.00  0.00    +0.000 C 
BRANCH  14  15
ATOM     15  C   UNL     1       9.942  13.545  18.703  0.00  0.00    +0.000 C 
BRANCH  15  17
ATOM     16  C   UNL     1       8.223  15.105  17.969  0.00  0.00    +0.000 C 
ATOM     17  N   UNL     1       9.659  14.867  18.120  0.00  0.00    +0.000 NA
ATOM     18  C   UNL     1      10.254  15.928  18.936  0.00  0.00    +0.000 C 
ENDBRANCH  15  17
ENDBRANCH  14  15
ENDBRANCH  13  14
ENDBRANCH  12  13
ENDBRANCH  11  12
ENDBRANCH   7  11
ENDBRANCH   1   9
BRANCH   5  19
ATOM     19  C   UNL     1       2.917   4.598  17.058  0.00  0.00    +0.000 C 
BRANCH  19  20
ATOM     20  N   UNL     1       2.523   4.621  18.458  0.00  0.00    +0.000 N 
ATOM     21  N   UNL     1       2.315   5.867  19.002  0.00  0.00    +0.000 NA
ATOM     22  C   UNL     1       2.193   5.988  20.298  0.00  0.00    +0.000 A 
ATOM     23  N   UNL     1       2.046   7.227  20.875  0.00  0.00    +0.000 N 
ATOM     24  C   UNL     1       2.265   4.803  21.193  0.00  0.00    +0.000 A 
ATOM     25  C   UNL     1       2.381   3.595  20.644  0.00  0.00    +0.000 A 
ATOM     26  C   UNL     1       2.513   3.443  19.184  0.00  0.00    +0.000 A 
ATOM     27  O   UNL     1       2.638   2.315  18.715  0.00  0.00    +0.000 OA
ATOM     28  H   UNL     1       2.352   7.357  21.830  0.00  0.00    +0.000 HD
BRANCH  23  29
ATOM     29  C   UNL     1       1.355   8.324  20.331  0.00  0.00    +0.000 A 
ATOM     30  C   UNL     1       0.300   8.954  20.998  0.00  0.00    +0.000 A 
ATOM     31  C   UNL     1      -0.377  10.032  20.418  0.00  0.00    +0.000 A 
ATOM     32  C   UNL     1      -0.025  10.472  19.141  0.00  0.00    +0.000 A 
ATOM     33  C   UNL     1       1.005   9.836  18.453  0.00  0.00    +0.000 A 
ATOM     34  C   UNL     1       1.690   8.772  19.046  0.00  0.00    +0.000 A 
ENDBRANCH  23  29
ENDBRANCH  19  20
ENDBRANCH   5  19
TORSDOF 10
ENDMDL
MODEL 4
REMARK VINA RESULT:      -8.1      1.649      2.180
REMARK  Name = 
REMARK  12 active torsions:
REMARK  status: ('A' for Active; 'I' for Inactive)
REMARK    1  A    between atoms: C_1  and  N_2
REMARK    2  A    between atoms: N_2  and  C_3
REMARK    3  A    between atoms: N_2  and  C_4
REMARK    4  A    between atoms: C_4  and  C_5
REMARK    5  A    between atoms: C_5  and  C_6
REMARK    6  A    between atoms: C_6  and  C_7
REMARK    7  A    between atoms: C_7  and  O_8
REMARK    8  A    between atoms: O_8  and  C_9
REMARK    9  A    between atoms: N_11  and  C_12
REMARK   10  A    between atoms: C_16  and  C_17
REMARK   11  A    between atoms: C_17  and  N_18
REMARK   12  A    between atoms: N_21  and  C_22
REMARK                            x       y       z     vdW  Elec       q    Type
REMARK                         _______ _______ _______ _____ _____    ______ ____
ROOT
ATOM      1  C   UNL     1       6.550   5.434  16.984  0.00  0.00    +0.000 A 
ATOM      2  C   UNL     1       7.032   4.432  16.138  0.00  0.00    +0.000 A 
ATOM      3  C   UNL     1       6.174   3.459  15.630  0.00  0.00    +0.000 A 
ATOM      4  C   UNL     1       4.817   3.499  15.934  0.00  0.00    +0.000 A 
ATOM      5  C   UNL     1       4.307   4.501  16.771  0.00  0.00    +0.000 A 
ATOM      6  C   UNL     1       5.195   5.431  17.342  0.00  0.00    +0.000 A 
ENDROOT
BRANCH   1   9
ATOM      7  C   UNL     1       8.002   6.474  18.711  0.00  0.00    +0.000 C 
ATOM      8  O   UNL     1       8.068   5.577  19.538  0.00  0.00    +0.000 OA
ATOM      9  N   UNL     1       7.373   6.455  17.495  0.00  0.00    +0.000 N 
ATOM     10  H   UNL     1       7.523   7.279  16.931  0.00  0.00    +0.000 HD
BRANCH   7  11
ATOM     11  O   UNL     1       8.506   7.721  18.915  0.00  0.00    +0.000 OA
BRANCH  11  12
ATOM     12  C   UNL     1       8.029   8.684  17.967  0.00  0.00    +0.000 C 
BRANCH  12  13
ATOM     13  C   UNL     1       8.712  10.042  18.059  0.00  0.00    +0.000 C 
BRANCH  13  14
ATOM     14  C   UNL     1       9.309  10.307  19.442  0.00  0.00    +0.000 C 
BRANCH  14  15
ATOM     15  C   UNL     1      10.547  11.219  19.395  0.00  0.00    +0.000 C 
BRANCH  15  17
ATOM     16  C   UNL     1      11.057  13.444  20.239  0.00  0.00    +0.000 C 
ATOM     17  N   UNL     1      10.721  12.063  20.588  0.00  0.00    +0.000 NA
ATOM     18  C   UNL     1       9.512  12.041  21.416  0.00  0.00    +0.000 C 
ENDBRANCH  15  17
ENDBRANCH  14  15
ENDBRANCH  13  14
ENDBRANCH  12  13
ENDBRANCH  11  12
ENDBRANCH   7  11
ENDBRANCH   1   9
BRANCH   5  19
ATOM     19  C   UNL     1       2.816   4.578  17.034  0.00  0.00    +0.000 C 
BRANCH  19  20
ATOM     20  N   UNL     1       2.510   4.527  18.454  0.00  0.00    +0.000 N 
ATOM     21  N   UNL     1       2.311   5.741  19.069  0.00  0.00    +0.000 NA
ATOM     22  C   UNL     1       2.267   5.799  20.374  0.00  0.00    +0.000 A 
ATOM     23  N   UNL     1       2.131   7.006  21.018  0.00  0.00    +0.000 N 
ATOM     24  C   UNL     1       2.418   4.575  21.205  0.00  0.00    +0.000 A 
ATOM     25  C   UNL     1       2.524   3.398  20.593  0.00  0.00    +0.000 A 
ATOM     26  C   UNL     1       2.568   3.317  19.122  0.00  0.00    +0.000 A 
ATOM     27  O   UNL     1       2.687   2.215  18.592  0.00  0.00    +0.000 OA
ATOM     28  H   UNL     1       2.494   7.098  21.958  0.00  0.00    +0.000 HD
BRANCH  23  29
ATOM     29  C   UNL     1       1.386   8.111  20.571  0.00  0.00    +0.000 A 
ATOM     30  C   UNL     1       0.328   8.651  21.306  0.00  0.00    +0.000 A 
ATOM     31  C   UNL     1      -0.404   9.741  20.822  0.00  0.00    +0.000 A 
ATOM     32  C   UNL     1      -0.103  10.282  19.572  0.00  0.00    +0.000 A 
ATOM     33  C   UNL     1       0.930   9.737  18.815  0.00  0.00    +0.000 A 
ATOM     34  C   UNL     1       1.670   8.660  19.313  0.00  0.00    +0.000 A 
ENDBRANCH  23  29
ENDBRANCH  19  20
ENDBRANCH   5  19
TORSDOF 10
ENDMDL
MODEL 5
REMARK VINA RESULT:      -8.0      1.358      1.919
REMARK  Name = 
REMARK  12 active torsions:
REMARK  status: ('A' for Active; 'I' for Inactive)
REMARK    1  A    between atoms: C_1  and  N_2
REMARK    2  A    between atoms: N_2  and  C_3
REMARK    3  A    between atoms: N_2  and  C_4
REMARK    4  A    between atoms: C_4  and  C_5
REMARK    5  A    between atoms: C_5  and  C_6
REMARK    6  A    between atoms: C_6  and  C_7
REMARK    7  A    between atoms: C_7  and  O_8
REMARK    8  A    between atoms: O_8  and  C_9
REMARK    9  A    between atoms: N_11  and  C_12
REMARK   10  A    between atoms: C_16  and  C_17
REMARK   11  A    between atoms: C_17  and  N_18
REMARK   12  A    between atoms: N_21  and  C_22
REMARK                            x       y       z     vdW  Elec       q    Type
REMARK                         _______ _______ _______ _____ _____    ______ ____
ROOT
ATOM      1  C   UNL     1       6.706   5.431  17.380  0.00  0.00    +0.000 A 
ATOM      2  C   UNL     1       7.337   4.707  16.366  0.00  0.00    +0.000 A 
ATOM      3  C   UNL     1       6.619   3.797  15.592  0.00  0.00    +0.000 A 
ATOM      4  C   UNL     1       5.254   3.631  15.800  0.00  0.00    +0.000 A 
ATOM      5  C   UNL     1       4.595   4.356  16.802  0.00  0.00    +0.000 A 
ATOM      6  C   UNL     1       5.345   5.211  17.630  0.00  0.00    +0.000 A 
ENDROOT
BRANCH   1   9
ATOM      7  C   UNL     1       7.663   7.680  17.828  0.00  0.00    +0.000 C 
ATOM      8  O   UNL     1       7.288   8.298  16.844  0.00  0.00    +0.000 OA
ATOM      9  N   UNL     1       7.384   6.382  18.165  0.00  0.00    +0.000 N 
ATOM     10  H   UNL     1       7.723   6.101  19.074  0.00  0.00    +0.000 HD
BRANCH   7  11
ATOM     11  O   UNL     1       8.521   8.189  18.752  0.00  0.00    +0.000 OA
BRANCH  11  12
ATOM     12  C   UNL     1       8.997   9.499  18.418  0.00  0.00    +0.000 C 
BRANCH  12  13
ATOM     13  C   UNL     1       9.316  10.373  19.623  0.00  0.00    +0.000 C 
BRANCH  13  14
ATOM     14  C   UNL     1      10.024  11.673  19.236  0.00  0.00    +0.000 C 
BRANCH  14  15
ATOM     15  C   UNL     1       9.048  12.782  18.806  0.00  0.00    +0.000 C 
BRANCH  15  17
ATOM     16  C   UNL     1      10.917  14.297  18.439  0.00  0.00    +0.000 C 
ATOM     17  N   UNL     1       9.567  14.147  18.985  0.00  0.00    +0.000 NA
ATOM     18  C   UNL     1       8.670  15.125  18.365  0.00  0.00    +0.000 C 
ENDBRANCH  15  17
ENDBRANCH  14  15
ENDBRANCH  13  14
ENDBRANCH  12  13
ENDBRANCH  11  12
ENDBRANCH   7  11
ENDBRANCH   1   9
BRANCH   5  19
ATOM     19  C   UNL     1       3.094   4.222  16.969  0.00  0.00    +0.000 C 
BRANCH  19  20
ATOM     20  N   UNL     1       2.690   4.319  18.362  0.00  0.00    +0.000 N 
ATOM     21  N   UNL     1       2.502   5.593  18.845  0.00  0.00    +0.000 NA
ATOM     22  C   UNL     1       2.371   5.778  20.132  0.00  0.00    +0.000 A 
ATOM     23  N   UNL     1       2.244   7.046  20.649  0.00  0.00    +0.000 N 
ATOM     24  C   UNL     1       2.413   4.636  21.083  0.00  0.00    +0.000 A 
ATOM     25  C   UNL     1       2.510   3.401  20.593  0.00  0.00    +0.000 A 
ATOM     26  C   UNL     1       2.651   3.177  19.143  0.00  0.00    +0.000 A 
ATOM     27  O   UNL     1       2.758   2.025  18.729  0.00  0.00    +0.000 OA
ATOM     28  H   UNL     1       2.545   7.215  21.599  0.00  0.00    +0.000 HD
BRANCH  23  29
ATOM     29  C   UNL     1       1.579   8.129  20.048  0.00  0.00    +0.000 A 
ATOM     30  C   UNL     1       1.874   8.568  18.755  0.00  0.00    +0.000 A 
ATOM     31  C   UNL     1       1.204   9.662  18.195  0.00  0.00    +0.000 A 
ATOM     32  C   UNL     1       0.248  10.351  18.942  0.00  0.00    +0.000 A 
ATOM     33  C   UNL     1      -0.036   9.942  20.242  0.00  0.00    +0.000 A 
ATOM     34  C   UNL     1       0.623   8.837  20.789  0.00  0.00    +0.000 A 
ENDBRANCH  23  29
ENDBRANCH  19  20
ENDBRANCH   5  19
TORSDOF 10
ENDMDL
MODEL 6
REMARK VINA RESULT:      -7.9      4.322      8.531
REMARK  Name = 
REMARK  12 active torsions:
REMARK  status: ('A' for Active; 'I' for Inactive)
REMARK    1  A    between atoms: C_1  and  N_2
REMARK    2  A    between atoms: N_2  and  C_3
REMARK    3  A    between atoms: N_2  and  C_4
REMARK    4  A    between atoms: C_4  and  C_5
REMARK    5  A    between atoms: C_5  and  C_6
REMARK    6  A    between atoms: C_6  and  C_7
REMARK    7  A    between atoms: C_7  and  O_8
REMARK    8  A    between atoms: O_8  and  C_9
REMARK    9  A    between atoms: N_11  and  C_12
REMARK   10  A    between atoms: C_16  and  C_17
REMARK   11  A    between atoms: C_17  and  N_18
REMARK   12  A    between atoms: N_21  and  C_22
REMARK                            x       y       z     vdW  Elec       q    Type
REMARK                         _______ _______ _______ _____ _____    ______ ____
ROOT
ATOM      1  C   UNL     1       1.576   8.318  20.468  0.00  0.00    +0.000 A 
ATOM      2  C   UNL     1       1.976   8.822  19.227  0.00  0.00    +0.000 A 
ATOM      3  C   UNL     1       2.246   7.962  18.165  0.00  0.00    +0.000 A 
ATOM      4  C   UNL     1       2.083   6.589  18.322  0.00  0.00    +0.000 A 
ATOM      5  C   UNL     1       1.671   6.059  19.552  0.00  0.00    +0.000 A 
ATOM      6  C   UNL     1       1.479   6.931  20.640  0.00  0.00    +0.000 A 
ENDROOT
BRANCH   1   9
ATOM      7  C   UNL     1       0.098   9.161  22.278  0.00  0.00    +0.000 C 
ATOM      8  O   UNL     1      -0.844   8.388  22.194  0.00  0.00    +0.000 OA
ATOM      9  N   UNL     1       1.263   9.150  21.558  0.00  0.00    +0.000 N 
ATOM     10  H   UNL     1       1.948   9.831  21.855  0.00  0.00    +0.000 HD
BRANCH   7  11
ATOM     11  O   UNL     1       0.103  10.253  23.089  0.00  0.00    +0.000 OA
BRANCH  11  12
ATOM     12  C   UNL     1      -1.176  10.894  23.180  0.00  0.00    +0.000 C 
BRANCH  12  13
ATOM     13  C   UNL     1      -1.492  11.825  22.018  0.00  0.00    +0.000 C 
BRANCH  13  14
ATOM     14  C   UNL     1      -2.336  13.028  22.441  0.00  0.00    +0.000 C 
BRANCH  14  15
ATOM     15  C   UNL     1      -3.848  12.769  22.328  0.00  0.00    +0.000 C 
BRANCH  15  17
ATOM     16  C   UNL     1      -4.320  12.399  24.687  0.00  0.00    +0.000 C 
ATOM     17  N   UNL     1      -4.625  13.201  23.501  0.00  0.00    +0.000 NA
ATOM     18  C   UNL     1      -4.383  14.618  23.785  0.00  0.00    +0.000 C 
ENDBRANCH  15  17
ENDBRANCH  14  15
ENDBRANCH  13  14
ENDBRANCH  12  13
ENDBRANCH  11  12
ENDBRANCH   7  11
ENDBRANCH   1   9
BRANCH   5  19
ATOM     19  C   UNL     1       1.424   4.570  19.689  0.00  0.00    +0.000 C 
BRANCH  19  20
ATOM     20  N   UNL     1       2.635   3.847  20.042  0.00  0.00    +0.000 N 
ATOM     21  N   UNL     1       3.761   4.176  19.324  0.00  0.00    +0.000 NA
ATOM     22  C   UNL     1       4.823   3.418  19.413  0.00  0.00    +0.000 A 
ATOM     23  N   UNL     1       5.941   3.687  18.660  0.00  0.00    +0.000 N 
ATOM     24  C   UNL     1       4.838   2.212  20.282  0.00  0.00    +0.000 A 
ATOM     25  C   UNL     1       3.770   1.956  21.036  0.00  0.00    +0.000 A 
ATOM     26  C   UNL     1       2.569   2.806  20.952  0.00  0.00    +0.000 A 
ATOM     27  O   UNL     1       1.595   2.527  21.647  0.00  0.00    +0.000 OA
ATOM     28  H   UNL     1       6.562   2.924  18.423  0.00  0.00    +0.000 HD
BRANCH  23  29
ATOM     29  C   UNL     1       6.422   4.960  18.305  0.00  0.00    +0.000 A 
ATOM     30  C   UNL     1       5.872   5.706  17.259  0.00  0.00    +0.000 A 
ATOM     31  C   UNL     1       6.388   6.962  16.922  0.00  0.00    +0.000 A 
ATOM     32  C   UNL     1       7.489   7.472  17.611  0.00  0.00    +0.000 A 
ATOM     33  C   UNL     1       8.065   6.727  18.636  0.00  0.00    +0.000 A 
ATOM     34  C   UNL     1       7.533   5.481  18.981  0.00  0.00    +0.000 A 
ENDBRANCH  23  29
ENDBRANCH  19  20
ENDBRANCH   5  19
TORSDOF 10
ENDMDL
MODEL 7
REMARK VINA RESULT:      -7.9      1.399      2.103
REMARK  Name = 
REMARK  12 active torsions:
REMARK  status: ('A' for Active; 'I' for Inactive)
REMARK    1  A    between atoms: C_1  and  N_2
REMARK    2  A    between atoms: N_2  and  C_3
REMARK    3  A    between atoms: N_2  and  C_4
REMARK    4  A    between atoms: C_4  and  C_5
REMARK    5  A    between atoms: C_5  and  C_6
REMARK    6  A    between atoms: C_6  and  C_7
REMARK    7  A    between atoms: C_7  and  O_8
REMARK    8  A    between atoms: O_8  and  C_9
REMARK    9  A    between atoms: N_11  and  C_12
REMARK   10  A    between atoms: C_16  and  C_17
REMARK   11  A    between atoms: C_17  and  N_18
REMARK   12  A    between atoms: N_21  and  C_22
REMARK                            x       y       z     vdW  Elec       q    Type
REMARK                         _______ _______ _______ _____ _____    ______ ____
ROOT
ATOM      1  C   UNL     1       7.408   7.568  17.825  0.00  0.00    +0.000 A 
ATOM      2  C   UNL     1       8.144   6.666  18.599  0.00  0.00    +0.000 A 
ATOM      3  C   UNL     1       7.633   5.405  18.898  0.00  0.00    +0.000 A 
ATOM      4  C   UNL     1       6.395   5.019  18.393  0.00  0.00    +0.000 A 
ATOM      5  C   UNL     1       5.643   5.900  17.604  0.00  0.00    +0.000 A 
ATOM      6  C   UNL     1       6.133   7.199  17.377  0.00  0.00    +0.000 A 
ENDROOT
BRANCH   1   9
ATOM      7  C   UNL     1       8.614   9.695  18.267  0.00  0.00    +0.000 C 
ATOM      8  O   UNL     1       9.062   9.486  19.384  0.00  0.00    +0.000 OA
ATOM      9  N   UNL     1       7.898   8.839  17.473  0.00  0.00    +0.000 N 
ATOM     10  H   UNL     1       7.705   9.189  16.545  0.00  0.00    +0.000 HD
BRANCH   7  11
ATOM     11  O   UNL     1       8.697  10.898  17.638  0.00  0.00    +0.000 OA
BRANCH  11  12
ATOM     12  C   UNL     1       9.505  11.849  18.344  0.00  0.00    +0.000 C 
BRANCH  12  13
ATOM     13  C   UNL     1      10.873  12.088  17.722  0.00  0.00    +0.000 C 
BRANCH  13  14
ATOM     14  C   UNL     1      10.944  13.403  16.943  0.00  0.00    +0.000 C 
BRANCH  14  15
ATOM     15  C   UNL     1      10.217  14.559  17.653  0.00  0.00    +0.000 C 
BRANCH  15  17
ATOM     16  C   UNL     1      12.305  15.765  17.984  0.00  0.00    +0.000 C 
ATOM     17  N   UNL     1      11.058  15.309  18.600  0.00  0.00    +0.000 NA
ATOM     18  C   UNL     1      10.325  16.456  19.143  0.00  0.00    +0.000 C 
ENDBRANCH  15  17
ENDBRANCH  14  15
ENDBRANCH  13  14
ENDBRANCH  12  13
ENDBRANCH  11  12
ENDBRANCH   7  11
ENDBRANCH   1   9
BRANCH   5  19
ATOM     19  C   UNL     1       4.331   5.441  17.000  0.00  0.00    +0.000 C 
BRANCH  19  20
ATOM     20  N   UNL     1       3.353   5.094  18.018  0.00  0.00    +0.000 N 
ATOM     21  N   UNL     1       2.949   6.123  18.836  0.00  0.00    +0.000 NA
ATOM     22  C   UNL     1       2.262   5.852  19.915  0.00  0.00    +0.000 A 
ATOM     23  N   UNL     1       1.897   6.854  20.783  0.00  0.00    +0.000 N 
ATOM     24  C   UNL     1       1.902   4.454  20.269  0.00  0.00    +0.000 A 
ATOM     25  C   UNL     1       2.227   3.478  19.423  0.00  0.00    +0.000 A 
ATOM     26  C   UNL     1       2.996   3.770  18.200  0.00  0.00    +0.000 A 
ATOM     27  O   UNL     1       3.295   2.841  17.453  0.00  0.00    +0.000 OA
ATOM     28  H   UNL     1       1.746   6.622  21.756  0.00  0.00    +0.000 HD
BRANCH  23  29
ATOM     29  C   UNL     1       1.544   8.171  20.437  0.00  0.00    +0.000 A 
ATOM     30  C   UNL     1       1.025   9.078  21.364  0.00  0.00    +0.000 A 
ATOM     31  C   UNL     1       0.668  10.375  20.981  0.00  0.00    +0.000 A 
ATOM     32  C   UNL     1       0.796  10.768  19.648  0.00  0.00    +0.000 A 
ATOM     33  C   UNL     1       1.284   9.865  18.707  0.00  0.00    +0.000 A 
ATOM     34  C   UNL     1       1.657   8.577  19.101  0.00  0.00    +0.000 A 
ENDBRANCH  23  29
ENDBRANCH  19  20
ENDBRANCH   5  19
TORSDOF 10
ENDMDL
MODEL 8
REMARK VINA RESULT:      -7.8      4.184      8.386
REMARK  Name = 
REMARK  12 active torsions:
REMARK  status: ('A' for Active; 'I' for Inactive)
REMARK    1  A    between atoms: C_1  and  N_2
REMARK    2  A    between atoms: N_2  and  C_3
REMARK    3  A    between atoms: N_2  and  C_4
REMARK    4  A    between atoms: C_4  and  C_5
REMARK    5  A    between atoms: C_5  and  C_6
REMARK    6  A    between atoms: C_6  and  C_7
REMARK    7  A    between atoms: C_7  and  O_8
REMARK    8  A    between atoms: O_8  and  C_9
REMARK    9  A    between atoms: N_11  and  C_12
REMARK   10  A    between atoms: C_16  and  C_17
REMARK   11  A    between atoms: C_17  and  N_18
REMARK   12  A    between atoms: N_21  and  C_22
REMARK                            x       y       z     vdW  Elec       q    Type
REMARK                         _______ _______ _______ _____ _____    ______ ____
ROOT
ATOM      1  C   UNL     1       1.661   8.713  19.636  0.00  0.00    +0.000 A 
ATOM      2  C   UNL     1       2.217   8.630  18.357  0.00  0.00    +0.000 A 
ATOM      3  C   UNL     1       2.598   7.399  17.826  0.00  0.00    +0.000 A 
ATOM      4  C   UNL     1       2.391   6.233  18.556  0.00  0.00    +0.000 A 
ATOM      5  C   UNL     1       1.823   6.288  19.837  0.00  0.00    +0.000 A 
ATOM      6  C   UNL     1       1.518   7.543  20.393  0.00  0.00    +0.000 A 
ENDROOT
BRANCH   1   9
ATOM      7  C   UNL     1       0.257  10.760  19.720  0.00  0.00    +0.000 C 
ATOM      8  O   UNL     1      -0.508  10.562  18.787  0.00  0.00    +0.000 OA
ATOM      9  N   UNL     1       1.234   9.930  20.199  0.00  0.00    +0.000 N 
ATOM     10  H   UNL     1       1.689  10.256  21.039  0.00  0.00    +0.000 HD
BRANCH   7  11
ATOM     11  O   UNL     1       0.306  11.928  20.414  0.00  0.00    +0.000 OA
BRANCH  11  12
ATOM     12  C   UNL     1      -0.938  12.266  21.040  0.00  0.00    +0.000 C 
BRANCH  12  13
ATOM     13  C   UNL     1      -0.893  12.257  22.562  0.00  0.00    +0.000 C 
BRANCH  13  14
ATOM     14  C   UNL     1      -2.239  11.885  23.188  0.00  0.00    +0.000 C 
BRANCH  14  15
ATOM     15  C   UNL     1      -3.432  12.555  22.484  0.00  0.00    +0.000 C 
BRANCH  15  17
ATOM     16  C   UNL     1      -4.382  12.373  24.718  0.00  0.00    +0.000 C 
ATOM     17  N   UNL     1      -4.654  12.623  23.301  0.00  0.00    +0.000 NA
ATOM     18  C   UNL     1      -5.307  13.925  23.144  0.00  0.00    +0.000 C 
ENDBRANCH  15  17
ENDBRANCH  14  15
ENDBRANCH  13  14
ENDBRANCH  12  13
ENDBRANCH  11  12
ENDBRANCH   7  11
ENDBRANCH   1   9
BRANCH   5  19
ATOM     19  C   UNL     1       1.534   5.005  20.590  0.00  0.00    +0.000 C 
BRANCH  19  20
ATOM     20  N   UNL     1       2.670   4.097  20.577  0.00  0.00    +0.000 N 
ATOM     21  N   UNL     1       3.670   4.401  19.683  0.00  0.00    +0.000 NA
ATOM     22  C   UNL     1       4.604   3.519  19.441  0.00  0.00    +0.000 A 
ATOM     23  N   UNL     1       5.581   3.770  18.507  0.00  0.00    +0.000 N 
ATOM     24  C   UNL     1       4.610   2.196  20.121  0.00  0.00    +0.000 A 
ATOM     25  C   UNL     1       3.684   1.952  21.046  0.00  0.00    +0.000 A 
ATOM     26  C   UNL     1       2.629   2.940  21.334  0.00  0.00    +0.000 A 
ATOM     27  O   UNL     1       1.780   2.671  22.180  0.00  0.00    +0.000 OA
ATOM     28  H   UNL     1       6.023   2.987  18.044  0.00  0.00    +0.000 HD
BRANCH  23  29
ATOM     29  C   UNL     1       6.166   5.017  18.227  0.00  0.00    +0.000 A 
ATOM     30  C   UNL     1       5.732   5.833  17.179  0.00  0.00    +0.000 A 
ATOM     31  C   UNL     1       6.350   7.061  16.917  0.00  0.00    +0.000 A 
ATOM     32  C   UNL     1       7.439   7.471  17.688  0.00  0.00    +0.000 A 
ATOM     33  C   UNL     1       7.901   6.656  18.717  0.00  0.00    +0.000 A 
ATOM     34  C   UNL     1       7.267   5.439  18.985  0.00  0.00    +0.000 A 
ENDBRANCH  23  29
ENDBRANCH  19  20
ENDBRANCH   5  19
TORSDOF 10
ENDMDL
MODEL 9
REMARK VINA RESULT:      -7.7      1.333      1.915
REMARK  Name = 
REMARK  12 active torsions:
REMARK  status: ('A' for Active; 'I' for Inactive)
REMARK    1  A    between atoms: C_1  and  N_2
REMARK    2  A    between atoms: N_2  and  C_3
REMARK    3  A    between atoms: N_2  and  C_4
REMARK    4  A    between atoms: C_4  and  C_5
REMARK    5  A    between atoms: C_5  and  C_6
REMARK    6  A    between atoms: C_6  and  C_7
REMARK    7  A    between atoms: C_7  and  O_8
REMARK    8  A    between atoms: O_8  and  C_9
REMARK    9  A    between atoms: N_11  and  C_12
REMARK   10  A    between atoms: C_16  and  C_17
REMARK   11  A    between atoms: C_17  and  N_18
REMARK   12  A    between atoms: N_21  and  C_22
REMARK                            x       y       z     vdW  Elec       q    Type
REMARK                         _______ _______ _______ _____ _____    ______ ____
ROOT
ATOM      1  C   UNL     1       6.531   6.482  16.953  0.00  0.00    +0.000 A 
ATOM      2  C   UNL     1       7.255   5.334  16.620  0.00  0.00    +0.000 A 
ATOM      3  C   UNL     1       6.608   4.112  16.449  0.00  0.00    +0.000 A 
ATOM      4  C   UNL     1       5.224   4.034  16.571  0.00  0.00    +0.000 A 
ATOM      5  C   UNL     1       4.474   5.174  16.892  0.00  0.00    +0.000 A 
ATOM      6  C   UNL     1       5.146   6.384  17.142  0.00  0.00    +0.000 A 
ENDROOT
BRANCH   1   9
ATOM      7  C   UNL     1       8.061   8.103  18.051  0.00  0.00    +0.000 C 
ATOM      8  O   UNL     1       8.619   7.386  18.869  0.00  0.00    +0.000 OA
ATOM      9  N   UNL     1       7.139   7.742  17.106  0.00  0.00    +0.000 N 
ATOM     10  H   UNL     1       6.875   8.483  16.472  0.00  0.00    +0.000 HD
BRANCH   7  11
ATOM     11  O   UNL     1       8.223   9.452  18.002  0.00  0.00    +0.000 OA
BRANCH  11  12
ATOM     12  C   UNL     1       8.984   9.969  19.102  0.00  0.00    +0.000 C 
BRANCH  12  13
ATOM     13  C   UNL     1       9.879  11.148  18.742  0.00  0.00    +0.000 C 
BRANCH  13  14
ATOM     14  C   UNL     1       9.176  12.166  17.841  0.00  0.00    +0.000 C 
BRANCH  14  15
ATOM     15  C   UNL     1      10.142  13.207  17.249  0.00  0.00    +0.000 C 
BRANCH  15  17
ATOM     16  C   UNL     1      10.796  15.551  17.214  0.00  0.00    +0.000 C 
ATOM     17  N   UNL     1      10.206  14.469  18.003  0.00  0.00    +0.000 NA
ATOM     18  C   UNL     1       8.872  14.862  18.464  0.00  0.00    +0.000 C 
ENDBRANCH  15  17
ENDBRANCH  14  15
ENDBRANCH  13  14
ENDBRANCH  12  13
ENDBRANCH  11  12
ENDBRANCH   7  11
ENDBRANCH   1   9
BRANCH   5  19
ATOM     19  C   UNL     1       2.962   5.092  16.949  0.00  0.00    +0.000 C 
BRANCH  19  20
ATOM     20  N   UNL     1       2.474   4.968  18.313  0.00  0.00    +0.000 N 
ATOM     21  N   UNL     1       2.290   6.149  18.993  0.00  0.00    +0.000 NA
ATOM     22  C   UNL     1       2.084   6.120  20.284  0.00  0.00    +0.000 A 
ATOM     23  N   UNL     1       1.959   7.287  21.000  0.00  0.00    +0.000 N 
ATOM     24  C   UNL     1       2.036   4.833  21.028  0.00  0.00    +0.000 A 
ATOM     25  C   UNL     1       2.129   3.696  20.341  0.00  0.00    +0.000 A 
ATOM     26  C   UNL     1       2.355   3.714  18.885  0.00  0.00    +0.000 A 
ATOM     27  O   UNL     1       2.457   2.645  18.288  0.00  0.00    +0.000 OA
ATOM     28  H   UNL     1       2.204   7.283  21.981  0.00  0.00    +0.000 HD
BRANCH  23  29
ATOM     29  C   UNL     1       1.362   8.479  20.555  0.00  0.00    +0.000 A 
ATOM     30  C   UNL     1       1.432   8.905  19.226  0.00  0.00    +0.000 A 
ATOM     31  C   UNL     1       0.841  10.107  18.822  0.00  0.00    +0.000 A 
ATOM     32  C   UNL     1       0.198  10.917  19.759  0.00  0.00    +0.000 A 
ATOM     33  C   UNL     1       0.145  10.520  21.092  0.00  0.00    +0.000 A 
ATOM     34  C   UNL     1       0.721   9.309  21.486  0.00  0.00    +0.000 A 
ENDBRANCH  23  29
ENDBRANCH  19  20
ENDBRANCH   5  19
TORSDOF 10
ENDMDL
