MODEL 1
REMARK VINA RESULT:      -7.0      0.000      0.000
REMARK  Name = 
REMARK  8 active torsions:
REMARK  status: ('A' for Active; 'I' for Inactive)
REMARK    1  A    between atoms: C_1  and  C_2
REMARK    2  A    between atoms: C_2  and  O_3
REMARK    3  A    between atoms: O_3  and  C_4
REMARK    4  A    between atoms: C_4  and  C_6
REMARK    5  A    between atoms: C_6  and  N_7
REMARK    6  A    between atoms: N_15  and  C_16
REMARK    7  A    between atoms: C_16  and  C_17
REMARK    8  A    between atoms: N_24  and  C_25
REMARK                            x       y       z     vdW  Elec       q    Type
REMARK                         _______ _______ _______ _____ _____    ______ ____
ROOT
ATOM      1  N   UNL     1       3.499   6.224  18.107  0.00  0.00    +0.000 N 
ATOM      2  C   UNL     1       2.923   7.499  18.173  0.00  0.00    +0.000 A 
ATOM      3  O   UNL     1       3.090   8.357  17.316  0.00  0.00    +0.000 OA
ATOM      4  C   UNL     1       2.119   7.693  19.333  0.00  0.00    +0.000 A 
ATOM      5  C   UNL     1       1.964   6.722  20.282  0.00  0.00    +0.000 A 
ATOM      6  N   UNL     1       1.159   7.122  21.295  0.00  0.00    +0.000 NA
ATOM      7  C   UNL     1       0.802   8.350  20.980  0.00  0.00    +0.000 A 
ATOM      8 BR   UNL     1      -0.314   9.347  22.109  0.00  0.00    +0.000 Br
ATOM      9  N   UNL     1       1.368   8.754  19.785  0.00  0.00    +0.000 N 
ATOM     10  N   UNL     1       2.587   5.501  20.190  0.00  0.00    +0.000 N 
ATOM     11  C   UNL     1       2.429   4.477  21.202  0.00  0.00    +0.000 C 
ATOM     12  C   UNL     1       3.347   5.206  19.061  0.00  0.00    +0.000 A 
ATOM     13  O   UNL     1       3.858   4.093  18.899  0.00  0.00    +0.000 OA
ENDROOT
BRANCH   1  14
ATOM     14  C   UNL     1       4.195   5.863  16.875  0.00  0.00    +0.000 C 
BRANCH  14  15
ATOM     15  C   UNL     1       5.703   6.055  16.996  0.00  0.00    +0.000 C 
ATOM     16  O   UNL     1       6.228   7.149  17.167  0.00  0.00    +0.000 OA
BRANCH  15  17
ATOM     17  O   UNL     1       6.385   4.890  16.801  0.00  0.00    +0.000 OA
BRANCH  17  19
ATOM     18  C   UNL     1       6.409   4.207  14.518  0.00  0.00    +0.000 C 
ATOM     19  C   UNL     1       5.795   3.960  15.884  0.00  0.00    +0.000 C 
ENDBRANCH  17  19
ENDBRANCH  15  17
ENDBRANCH  14  15
ENDBRANCH   1  14
BRANCH   9  20
ATOM     20  C   UNL     1       1.354  10.108  19.246  0.00  0.00    +0.000 C 
BRANCH  20  21
ATOM     21  C   UNL     1       0.041  10.514  18.616  0.00  0.00    +0.000 A 
ATOM     22  C   UNL     1      -0.620   9.673  17.704  0.00  0.00    +0.000 A 
ATOM     23  C   UNL     1      -1.883  10.009  17.205  0.00  0.00    +0.000 A 
ATOM     24  C   UNL     1      -2.500  11.188  17.612  0.00  0.00    +0.000 A 
ATOM     25 CL   UNL     1      -4.074  11.578  17.038  0.00  0.00    +0.000 Cl
ATOM     26  C   UNL     1      -1.856  12.041  18.501  0.00  0.00    +0.000 A 
ATOM     27  C   UNL     1      -0.593  11.705  18.998  0.00  0.00    +0.000 A 
ENDBRANCH  20  21
ENDBRANCH   9  20
TORSDOF 6
ENDMDL
MODEL 2
REMARK VINA RESULT:      -6.9      0.936      1.325
REMARK  Name = 
REMARK  8 active torsions:
REMARK  status: ('A' for Active; 'I' for Inactive)
REMARK    1  A    between atoms: C_1  and  C_2
REMARK    2  A    between atoms: C_2  and  O_3
REMARK    3  A    between atoms: O_3  and  C_4
REMARK    4  A    between atoms: C_4  and  C_6
REMARK    5  A    between atoms: C_6  and  N_7
REMARK    6  A    between atoms: N_15  and  C_16
REMARK    7  A    between atoms: C_16  and  C_17
REMARK    8  A    between atoms: N_24  and  C_25
REMARK                            x       y       z     vdW  Elec       q    Type
REMARK                         _______ _______ _______ _____ _____    ______ ____
ROOT
ATOM      1  N   UNL     1       3.296   6.185  18.122  0.00  0.00    +0.000 N 
ATOM      2  C   UNL     1       2.754   7.475  18.178  0.00  0.00    +0.000 A 
ATOM      3  O   UNL     1       2.897   8.303  17.289  0.00  0.00    +0.000 OA
ATOM      4  C   UNL     1       2.013   7.721  19.369  0.00  0.00    +0.000 A 
ATOM      5  C   UNL     1       1.884   6.782  20.354  0.00  0.00    +0.000 A 
ATOM      6  N   UNL     1       1.139   7.230  21.393  0.00  0.00    +0.000 NA
ATOM      7  C   UNL     1       0.794   8.457  21.059  0.00  0.00    +0.000 A 
ATOM      8 BR   UNL     1      -0.241   9.512  22.211  0.00  0.00    +0.000 Br
ATOM      9  N   UNL     1       1.310   8.813  19.827  0.00  0.00    +0.000 N 
ATOM     10  N   UNL     1       2.474   5.544  20.267  0.00  0.00    +0.000 N 
ATOM     11  C   UNL     1       2.343   4.553  21.316  0.00  0.00    +0.000 C 
ATOM     12  C   UNL     1       3.170   5.199  19.111  0.00  0.00    +0.000 A 
ATOM     13  O   UNL     1       3.647   4.070  18.958  0.00  0.00    +0.000 OA
ENDROOT
BRANCH   1  14
ATOM     14  C   UNL     1       3.921   5.773  16.868  0.00  0.00    +0.000 C 
BRANCH  14  15
ATOM     15  C   UNL     1       5.255   6.477  16.638  0.00  0.00    +0.000 C 
ATOM     16  O   UNL     1       5.603   6.912  15.546  0.00  0.00    +0.000 OA
BRANCH  15  17
ATOM     17  O   UNL     1       6.033   6.479  17.757  0.00  0.00    +0.000 OA
BRANCH  17  19
ATOM     18  C   UNL     1       7.788   8.091  17.702  0.00  0.00    +0.000 C 
ATOM     19  C   UNL     1       7.444   6.621  17.544  0.00  0.00    +0.000 C 
ENDBRANCH  17  19
ENDBRANCH  15  17
ENDBRANCH  14  15
ENDBRANCH   1  14
BRANCH   9  20
ATOM     20  C   UNL     1       1.299  10.150  19.248  0.00  0.00    +0.000 C 
BRANCH  20  21
ATOM     21  C   UNL     1      -0.027  10.559  18.649  0.00  0.00    +0.000 A 
ATOM     22  C   UNL     1      -0.671   9.759  17.689  0.00  0.00    +0.000 A 
ATOM     23  C   UNL     1      -1.945  10.092  17.216  0.00  0.00    +0.000 A 
ATOM     24  C   UNL     1      -2.590  11.227  17.696  0.00  0.00    +0.000 A 
ATOM     25 CL   UNL     1      -4.176  11.609  17.152  0.00  0.00    +0.000 Cl
ATOM     26  C   UNL     1      -1.964  12.041  18.634  0.00  0.00    +0.000 A 
ATOM     27  C   UNL     1      -0.690  11.709  19.105  0.00  0.00    +0.000 A 
ENDBRANCH  20  21
ENDBRANCH   9  20
TORSDOF 6
ENDMDL
MODEL 3
REMARK VINA RESULT:      -6.9      0.948      1.402
REMARK  Name = 
REMARK  8 active torsions:
REMARK  status: ('A' for Active; 'I' for Inactive)
REMARK    1  A    between atoms: C_1  and  C_2
REMARK    2  A    between atoms: C_2  and  O_3
REMARK    3  A    between atoms: O_3  and  C_4
REMARK    4  A    between atoms: C_4  and  C_6
REMARK    5  A    between atoms: C_6  and  N_7
REMARK    6  A    between atoms: N_15  and  C_16
REMARK    7  A    between atoms: C_16  and  C_17
REMARK    8  A    between atoms: N_24  and  C_25
REMARK                            x       y       z     vdW  Elec       q    Type
REMARK                         _______ _______ _______ _____ _____    ______ ____
ROOT
ATOM      1  N   UNL     1       3.278   6.216  18.133  0.00  0.00    +0.000 N 
ATOM      2  C   UNL     1       2.675   7.478  18.206  0.00  0.00    +0.000 A 
ATOM      3  O   UNL     1       2.754   8.313  17.315  0.00  0.00    +0.000 OA
ATOM      4  C   UNL     1       1.954   7.687  19.416  0.00  0.00    +0.000 A 
ATOM      5  C   UNL     1       1.896   6.741  20.402  0.00  0.00    +0.000 A 
ATOM      6  N   UNL     1       1.157   7.152  21.461  0.00  0.00    +0.000 NA
ATOM      7  C   UNL     1       0.745   8.361  21.139  0.00  0.00    +0.000 A 
ATOM      8 BR   UNL     1      -0.310   9.364  22.319  0.00  0.00    +0.000 Br
ATOM      9  N   UNL     1       1.210   8.743  19.894  0.00  0.00    +0.000 N 
ATOM     10  N   UNL     1       2.543   5.534  20.297  0.00  0.00    +0.000 N 
ATOM     11  C   UNL     1       2.487   4.537  21.347  0.00  0.00    +0.000 C 
ATOM     12  C   UNL     1       3.225   5.224  19.123  0.00  0.00    +0.000 A 
ATOM     13  O   UNL     1       3.752   4.119  18.955  0.00  0.00    +0.000 OA
ENDROOT
BRANCH   1  14
ATOM     14  C   UNL     1       3.889   5.836  16.862  0.00  0.00    +0.000 C 
BRANCH  14  15
ATOM     15  C   UNL     1       5.255   6.487  16.670  0.00  0.00    +0.000 C 
ATOM     16  O   UNL     1       5.645   6.923  15.593  0.00  0.00    +0.000 OA
BRANCH  15  17
ATOM     17  O   UNL     1       6.009   6.441  17.805  0.00  0.00    +0.000 OA
BRANCH  17  19
ATOM     18  C   UNL     1       7.552   4.627  17.699  0.00  0.00    +0.000 C 
ATOM     19  C   UNL     1       7.399   6.136  17.628  0.00  0.00    +0.000 C 
ENDBRANCH  17  19
ENDBRANCH  15  17
ENDBRANCH  14  15
ENDBRANCH   1  14
BRANCH   9  20
ATOM     20  C   UNL     1       1.120  10.078  19.319  0.00  0.00    +0.000 C 
BRANCH  20  21
ATOM     21  C   UNL     1      -0.241  10.426  18.762  0.00  0.00    +0.000 A 
ATOM     22  C   UNL     1      -0.964  11.532  19.241  0.00  0.00    +0.000 A 
ATOM     23  C   UNL     1      -2.176  11.908  18.651  0.00  0.00    +0.000 A 
ATOM     24  C   UNL     1      -2.678  11.184  17.573  0.00  0.00    +0.000 A 
ATOM     25 CL   UNL     1      -4.141  11.674  16.814  0.00  0.00    +0.000 Cl
ATOM     26  C   UNL     1      -1.986  10.077  17.094  0.00  0.00    +0.000 A 
ATOM     27  C   UNL     1      -0.776   9.701  17.686  0.00  0.00    +0.000 A 
ENDBRANCH  20  21
ENDBRANCH   9  20
TORSDOF 6
ENDMDL
MODEL 4
REMARK VINA RESULT:      -6.8      1.030      1.871
REMARK  Name = 
REMARK  8 active torsions:
REMARK  status: ('A' for Active; 'I' for Inactive)
REMARK    1  A    between atoms: C_1  and  C_2
REMARK    2  A    between atoms: C_2  and  O_3
REMARK    3  A    between atoms: O_3  and  C_4
REMARK    4  A    between atoms: C_4  and  C_6
REMARK    5  A    between atoms: C_6  and  N_7
REMARK    6  A    between atoms: N_15  and  C_16
REMARK    7  A    between atoms: C_16  and  C_17
REMARK    8  A    between atoms: N_24  and  C_25
REMARK                            x       y       z     vdW  Elec       q    Type
REMARK                         _______ _______ _______ _____ _____    ______ ____
ROOT
ATOM      1  N   UNL     1       3.695   6.653  17.697  0.00  0.00    +0.000 N 
ATOM      2  C   UNL     1       2.984   7.841  17.904  0.00  0.00    +0.000 A 
ATOM      3  O   UNL     1       3.014   8.786  17.127  0.00  0.00    +0.000 OA
ATOM      4  C   UNL     1       2.216   7.834  19.104  0.00  0.00    +0.000 A 
ATOM      5  C   UNL     1       2.215   6.771  19.962  0.00  0.00    +0.000 A 
ATOM      6  N   UNL     1       1.417   6.981  21.036  0.00  0.00    +0.000 NA
ATOM      7  C   UNL     1       0.910   8.183  20.851  0.00  0.00    +0.000 A 
ATOM      8 BR   UNL     1      -0.258   8.938  22.108  0.00  0.00    +0.000 Br
ATOM      9  N   UNL     1       1.372   8.757  19.682  0.00  0.00    +0.000 N 
ATOM     10  N   UNL     1       2.967   5.643  19.732  0.00  0.00    +0.000 N 
ATOM     11  C   UNL     1       2.971   4.521  20.647  0.00  0.00    +0.000 C 
ATOM     12  C   UNL     1       3.703   5.542  18.554  0.00  0.00    +0.000 A 
ATOM     13  O   UNL     1       4.328   4.515  18.270  0.00  0.00    +0.000 OA
ENDROOT
BRANCH   1  14
ATOM     14  C   UNL     1       4.370   6.488  16.412  0.00  0.00    +0.000 C 
BRANCH  14  15
ATOM     15  C   UNL     1       5.888   6.548  16.555  0.00  0.00    +0.000 C 
ATOM     16  O   UNL     1       6.649   5.820  15.928  0.00  0.00    +0.000 OA
BRANCH  15  17
ATOM     17  O   UNL     1       6.277   7.432  17.517  0.00  0.00    +0.000 OA
BRANCH  17  19
ATOM     18  C   UNL     1       8.129   8.883  17.897  0.00  0.00    +0.000 C 
ATOM     19  C   UNL     1       7.673   7.436  17.842  0.00  0.00    +0.000 C 
ENDBRANCH  17  19
ENDBRANCH  15  17
ENDBRANCH  14  15
ENDBRANCH   1  14
BRANCH   9  20
ATOM     20  C   UNL     1       1.182  10.142  19.274  0.00  0.00    +0.000 C 
BRANCH  20  21
ATOM     21  C   UNL     1      -0.208  10.457  18.768  0.00  0.00    +0.000 A 
ATOM     22  C   UNL     1      -0.952  11.525  19.300  0.00  0.00    +0.000 A 
ATOM     23  C   UNL     1      -2.193  11.874  18.758  0.00  0.00    +0.000 A 
ATOM     24  C   UNL     1      -2.705  11.162  17.677  0.00  0.00    +0.000 A 
ATOM     25 CL   UNL     1      -4.207  11.621  16.978  0.00  0.00    +0.000 Cl
ATOM     26  C   UNL     1      -1.992  10.092  17.147  0.00  0.00    +0.000 A 
ATOM     27  C   UNL     1      -0.752   9.742  17.691  0.00  0.00    +0.000 A 
ENDBRANCH  20  21
ENDBRANCH   9  20
TORSDOF 6
ENDMDL
MODEL 5
REMARK VINA RESULT:      -6.8      1.065      1.631
REMARK  Name = 
REMARK  8 active torsions:
REMARK  status: ('A' for Active; 'I' for Inactive)
REMARK    1  A    between atoms: C_1  and  C_2
REMARK    2  A    between atoms: C_2  and  O_3
REMARK    3  A    between atoms: O_3  and  C_4
REMARK    4  A    between atoms: C_4  and  C_6
REMARK    5  A    between atoms: C_6  and  N_7
REMARK    6  A    between atoms: N_15  and  C_16
REMARK    7  A    between atoms: C_16  and  C_17
REMARK    8  A    between atoms: N_24  and  C_25
REMARK                            x       y       z     vdW  Elec       q    Type
REMARK                         _______ _______ _______ _____ _____    ______ ____
ROOT
ATOM      1  N   UNL     1       3.987   5.731  17.684  0.00  0.00    +0.000 N 
ATOM      2  C   UNL     1       3.433   7.014  17.763  0.00  0.00    +0.000 A 
ATOM      3  O   UNL     1       3.644   7.889  16.932  0.00  0.00    +0.000 OA
ATOM      4  C   UNL     1       2.594   7.196  18.899  0.00  0.00    +0.000 A 
ATOM      5  C   UNL     1       2.390   6.206  19.819  0.00  0.00    +0.000 A 
ATOM      6  N   UNL     1       1.558   6.597  20.814  0.00  0.00    +0.000 NA
ATOM      7  C   UNL     1       1.235   7.840  20.517  0.00  0.00    +0.000 A 
ATOM      8 BR   UNL     1       0.100   8.831  21.632  0.00  0.00    +0.000 Br
ATOM      9  N   UNL     1       1.848   8.261  19.352  0.00  0.00    +0.000 N 
ATOM     10  N   UNL     1       2.993   4.976  19.718  0.00  0.00    +0.000 N 
ATOM     11  C   UNL     1       2.782   3.931  20.699  0.00  0.00    +0.000 C 
ATOM     12  C   UNL     1       3.785   4.693  18.607  0.00  0.00    +0.000 A 
ATOM     13  O   UNL     1       4.281   3.575  18.436  0.00  0.00    +0.000 OA
ENDROOT
BRANCH   1  14
ATOM     14  C   UNL     1       4.717   5.386  16.467  0.00  0.00    +0.000 C 
BRANCH  14  15
ATOM     15  C   UNL     1       6.227   5.448  16.672  0.00  0.00    +0.000 C 
ATOM     16  O   UNL     1       6.916   4.456  16.881  0.00  0.00    +0.000 OA
BRANCH  15  17
ATOM     17  O   UNL     1       6.690   6.730  16.686  0.00  0.00    +0.000 OA
BRANCH  17  19
ATOM     18  C   UNL     1       7.848   8.564  17.673  0.00  0.00    +0.000 C 
ATOM     19  C   UNL     1       7.540   7.082  17.786  0.00  0.00    +0.000 C 
ENDBRANCH  17  19
ENDBRANCH  15  17
ENDBRANCH  14  15
ENDBRANCH   1  14
BRANCH   9  20
ATOM     20  C   UNL     1       1.877   9.626  18.845  0.00  0.00    +0.000 C 
BRANCH  20  21
ATOM     21  C   UNL     1       0.523  10.174  18.453  0.00  0.00    +0.000 A 
ATOM     22  C   UNL     1      -0.351   9.438  17.635  0.00  0.00    +0.000 A 
ATOM     23  C   UNL     1      -1.641   9.906  17.360  0.00  0.00    +0.000 A 
ATOM     24  C   UNL     1      -2.073  11.112  17.902  0.00  0.00    +0.000 A 
ATOM     25 CL   UNL     1      -3.675  11.664  17.607  0.00  0.00    +0.000 Cl
ATOM     26  C   UNL     1      -1.218  11.864  18.702  0.00  0.00    +0.000 A 
ATOM     27  C   UNL     1       0.072  11.396  18.973  0.00  0.00    +0.000 A 
ENDBRANCH  20  21
ENDBRANCH   9  20
TORSDOF 6
ENDMDL
MODEL 6
REMARK VINA RESULT:      -6.6      1.275      1.482
REMARK  Name = 
REMARK  8 active torsions:
REMARK  status: ('A' for Active; 'I' for Inactive)
REMARK    1  A    between atoms: C_1  and  C_2
REMARK    2  A    between atoms: C_2  and  O_3
REMARK    3  A    between atoms: O_3  and  C_4
REMARK    4  A    between atoms: C_4  and  C_6
REMARK    5  A    between atoms: C_6  and  N_7
REMARK    6  A    between atoms: N_15  and  C_16
REMARK    7  A    between atoms: C_16  and  C_17
REMARK    8  A    between atoms: N_24  and  C_25
REMARK                            x       y       z     vdW  Elec       q    Type
REMARK                         _______ _______ _______ _____ _____    ______ ____
ROOT
ATOM      1  N   UNL     1       4.065   4.786  17.897  0.00  0.00    +0.000 N 
ATOM      2  C   UNL     1       3.657   6.124  17.837  0.00  0.00    +0.000 A 
ATOM      3  O   UNL     1       3.979   6.884  16.933  0.00  0.00    +0.000 OA
ATOM      4  C   UNL     1       2.824   6.507  18.927  0.00  0.00    +0.000 A 
ATOM      5  C   UNL     1       2.495   5.641  19.932  0.00  0.00    +0.000 A 
ATOM      6  N   UNL     1       1.696   6.217  20.861  0.00  0.00    +0.000 NA
ATOM      7  C   UNL     1       1.518   7.452  20.438  0.00  0.00    +0.000 A 
ATOM      8 BR   UNL     1       0.483   8.666  21.422  0.00  0.00    +0.000 Br
ATOM      9  N   UNL     1       2.195   7.687  19.256  0.00  0.00    +0.000 N 
ATOM     10  N   UNL     1       2.959   4.348  19.965  0.00  0.00    +0.000 N 
ATOM     11  C   UNL     1       2.615   3.434  21.035  0.00  0.00    +0.000 C 
ATOM     12  C   UNL     1       3.733   3.873  18.909  0.00  0.00    +0.000 A 
ATOM     13  O   UNL     1       4.103   2.695  18.860  0.00  0.00    +0.000 OA
ENDROOT
BRANCH   1  14
ATOM     14  C   UNL     1       4.772   4.246  16.740  0.00  0.00    +0.000 C 
BRANCH  14  15
ATOM     15  C   UNL     1       6.276   4.489  16.826  0.00  0.00    +0.000 C 
ATOM     16  O   UNL     1       6.890   4.515  17.887  0.00  0.00    +0.000 OA
BRANCH  15  17
ATOM     17  O   UNL     1       6.822   4.761  15.607  0.00  0.00    +0.000 OA
BRANCH  17  19
ATOM     18  C   UNL     1       6.312   3.873  13.455  0.00  0.00    +0.000 C 
ATOM     19  C   UNL     1       5.901   4.878  14.515  0.00  0.00    +0.000 C 
ENDBRANCH  17  19
ENDBRANCH  15  17
ENDBRANCH  14  15
ENDBRANCH   1  14
BRANCH   9  20
ATOM     20  C   UNL     1       2.385   8.985  18.622  0.00  0.00    +0.000 C 
BRANCH  20  21
ATOM     21  C   UNL     1       1.104   9.742  18.356  0.00  0.00    +0.000 A 
ATOM     22  C   UNL     1       0.032   9.144  17.671  0.00  0.00    +0.000 A 
ATOM     23  C   UNL     1      -1.187   9.815  17.520  0.00  0.00    +0.000 A 
ATOM     24  C   UNL     1      -1.349  11.090  18.053  0.00  0.00    +0.000 A 
ATOM     25 CL   UNL     1      -2.862  11.895  17.912  0.00  0.00    +0.000 Cl
ATOM     26  C   UNL     1      -0.296  11.706  18.721  0.00  0.00    +0.000 A 
ATOM     27  C   UNL     1       0.922  11.036  18.870  0.00  0.00    +0.000 A 
ENDBRANCH  20  21
ENDBRANCH   9  20
TORSDOF 6
ENDMDL
MODEL 7
REMARK VINA RESULT:      -6.5      1.380      2.150
REMARK  Name = 
REMARK  8 active torsions:
REMARK  status: ('A' for Active; 'I' for Inactive)
REMARK    1  A    between atoms: C_1  and  C_2
REMARK    2  A    between atoms: C_2  and  O_3
REMARK    3  A    between atoms: O_3  and  C_4
REMARK    4  A    between atoms: C_4  and  C_6
REMARK    5  A    between atoms: C_6  and  N_7
REMARK    6  A    between atoms: N_15  and  C_16
REMARK    7  A    between atoms: C_16  and  C_17
REMARK    8  A    between atoms: N_24  and  C_25
REMARK                            x       y       z     vdW  Elec       q    Type
REMARK                         _______ _______ _______ _____ _____    ______ ____
ROOT
ATOM      1  N   UNL     1       4.467   5.418  17.396  0.00  0.00    +0.000 N 
ATOM      2  C   UNL     1       3.883   6.684  17.522  0.00  0.00    +0.000 A 
ATOM      3  O   UNL     1       4.089   7.600  16.736  0.00  0.00    +0.000 OA
ATOM      4  C   UNL     1       3.020   6.795  18.649  0.00  0.00    +0.000 A 
ATOM      5  C   UNL     1       2.822   5.761  19.519  0.00  0.00    +0.000 A 
ATOM      6  N   UNL     1       1.964   6.088  20.515  0.00  0.00    +0.000 NA
ATOM      7  C   UNL     1       1.617   7.335  20.269  0.00  0.00    +0.000 A 
ATOM      8 BR   UNL     1       0.441   8.249  21.406  0.00  0.00    +0.000 Br
ATOM      9  N   UNL     1       2.242   7.822  19.136  0.00  0.00    +0.000 N 
ATOM     10  N   UNL     1       3.454   4.550  19.374  0.00  0.00    +0.000 N 
ATOM     11  C   UNL     1       3.250   3.457  20.303  0.00  0.00    +0.000 C 
ATOM     12  C   UNL     1       4.272   4.336  18.267  0.00  0.00    +0.000 A 
ATOM     13  O   UNL     1       4.796   3.237  18.055  0.00  0.00    +0.000 OA
ENDROOT
BRANCH   1  14
ATOM     14  C   UNL     1       5.226   5.145  16.179  0.00  0.00    +0.000 C 
BRANCH  14  15
ATOM     15  C   UNL     1       6.729   5.286  16.401  0.00  0.00    +0.000 C 
ATOM     16  O   UNL     1       7.474   4.328  16.573  0.00  0.00    +0.000 OA
BRANCH  15  17
ATOM     17  O   UNL     1       7.115   6.591  16.476  0.00  0.00    +0.000 OA
BRANCH  17  19
ATOM     18  C   UNL     1       7.809   8.541  17.658  0.00  0.00    +0.000 C 
ATOM     19  C   UNL     1       7.534   7.052  17.767  0.00  0.00    +0.000 C 
ENDBRANCH  17  19
ENDBRANCH  15  17
ENDBRANCH  14  15
ENDBRANCH   1  14
BRANCH   9  20
ATOM     20  C   UNL     1       2.249   9.210  18.692  0.00  0.00    +0.000 C 
BRANCH  20  21
ATOM     21  C   UNL     1       0.874   9.809  18.499  0.00  0.00    +0.000 A 
ATOM     22  C   UNL     1       0.545  11.065  19.036  0.00  0.00    +0.000 A 
ATOM     23  C   UNL     1      -0.693  11.659  18.767  0.00  0.00    +0.000 A 
ATOM     24  C   UNL     1      -1.616  11.004  17.956  0.00  0.00    +0.000 A 
ATOM     25 CL   UNL     1      -3.118  11.754  17.583  0.00  0.00    +0.000 Cl
ATOM     26  C   UNL     1      -1.316   9.753  17.428  0.00  0.00    +0.000 A 
ATOM     27  C   UNL     1      -0.079   9.160  17.699  0.00  0.00    +0.000 A 
ENDBRANCH  20  21
ENDBRANCH   9  20
TORSDOF 6
ENDMDL
MODEL 8
REMARK VINA RESULT:      -6.4      1.455      1.923
REMARK  Name = 
REMARK  8 active torsions:
REMARK  status: ('A' for Active; 'I' for Inactive)
REMARK    1  A    between atoms: C_1  and  C_2
REMARK    2  A    between atoms: C_2  and  O_3
REMARK    3  A    between atoms: O_3  and  C_4
REMARK    4  A    between atoms: C_4  and  C_6
REMARK    5  A    between atoms: C_6  and  N_7
REMARK    6  A    between atoms: N_15  and  C_16
REMARK    7  A    between atoms: C_16  and  C_17
REMARK    8  A    between atoms: N_24  and  C_25
REMARK                            x       y       z     vdW  Elec       q    Type
REMARK                         _______ _______ _______ _____ _____    ______ ____
ROOT
ATOM      1  N   UNL     1       3.833   4.603  17.947  0.00  0.00    +0.000 N 
ATOM      2  C   UNL     1       3.490   5.959  17.875  0.00  0.00    +0.000 A 
ATOM      3  O   UNL     1       3.814   6.686  16.945  0.00  0.00    +0.000 OA
ATOM      4  C   UNL     1       2.719   6.403  18.987  0.00  0.00    +0.000 A 
ATOM      5  C   UNL     1       2.386   5.572  20.020  0.00  0.00    +0.000 A 
ATOM      6  N   UNL     1       1.651   6.204  20.967  0.00  0.00    +0.000 NA
ATOM      7  C   UNL     1       1.519   7.439  20.526  0.00  0.00    +0.000 A 
ATOM      8 BR   UNL     1       0.583   8.721  21.523  0.00  0.00    +0.000 Br
ATOM      9  N   UNL     1       2.161   7.618  19.315  0.00  0.00    +0.000 N 
ATOM     10  N   UNL     1       2.785   4.258  20.062  0.00  0.00    +0.000 N 
ATOM     11  C   UNL     1       2.438   3.382  21.162  0.00  0.00    +0.000 C 
ATOM     12  C   UNL     1       3.494   3.726  18.988  0.00  0.00    +0.000 A 
ATOM     13  O   UNL     1       3.804   2.531  18.948  0.00  0.00    +0.000 OA
ENDROOT
BRANCH   1  14
ATOM     14  C   UNL     1       4.468   4.007  16.775  0.00  0.00    +0.000 C 
BRANCH  14  15
ATOM     15  C   UNL     1       5.972   4.262  16.751  0.00  0.00    +0.000 C 
ATOM     16  O   UNL     1       6.619   4.358  15.714  0.00  0.00    +0.000 OA
BRANCH  15  17
ATOM     17  O   UNL     1       6.509   4.278  18.003  0.00  0.00    +0.000 OA
BRANCH  17  19
ATOM     18  C   UNL     1       7.773   5.815  19.315  0.00  0.00    +0.000 C 
ATOM     19  C   UNL     1       7.808   4.871  18.126  0.00  0.00    +0.000 C 
ENDBRANCH  17  19
ENDBRANCH  15  17
ENDBRANCH  14  15
ENDBRANCH   1  14
BRANCH   9  20
ATOM     20  C   UNL     1       2.391   8.893  18.649  0.00  0.00    +0.000 C 
BRANCH  20  21
ATOM     21  C   UNL     1       1.139   9.705  18.408  0.00  0.00    +0.000 A 
ATOM     22  C   UNL     1       0.040   9.163  17.719  0.00  0.00    +0.000 A 
ATOM     23  C   UNL     1      -1.152   9.883  17.589  0.00  0.00    +0.000 A 
ATOM     24  C   UNL     1      -1.261  11.153  18.149  0.00  0.00    +0.000 A 
ATOM     25 CL   UNL     1      -2.743  12.018  18.034  0.00  0.00    +0.000 Cl
ATOM     26  C   UNL     1      -0.181  11.714  18.821  0.00  0.00    +0.000 A 
ATOM     27  C   UNL     1       1.011  10.994  18.948  0.00  0.00    +0.000 A 
ENDBRANCH  20  21
ENDBRANCH   9  20
TORSDOF 6
ENDMDL
MODEL 9
REMARK VINA RESULT:      -6.2      1.455      1.777
REMARK  Name = 
REMARK  8 active torsions:
REMARK  status: ('A' for Active; 'I' for Inactive)
REMARK    1  A    between atoms: C_1  and  C_2
REMARK    2  A    between atoms: C_2  and  O_3
REMARK    3  A    between atoms: O_3  and  C_4
REMARK    4  A    between atoms: C_4  and  C_6
REMARK    5  A    between atoms: C_6  and  N_7
REMARK    6  A    between atoms: N_15  and  C_16
REMARK    7  A    between atoms: C_16  and  C_17
REMARK    8  A    between atoms: N_24  and  C_25
REMARK                            x       y       z     vdW  Elec       q    Type
REMARK                         _______ _______ _______ _____ _____    ______ ____
ROOT
ATOM      1  N   UNL     1       4.448   5.481  16.763  0.00  0.00    +0.000 N 
ATOM      2  C   UNL     1       3.932   6.765  16.974  0.00  0.00    +0.000 A 
ATOM      3  O   UNL     1       4.089   7.690  16.187  0.00  0.00    +0.000 OA
ATOM      4  C   UNL     1       3.201   6.884  18.190  0.00  0.00    +0.000 A 
ATOM      5  C   UNL     1       3.056   5.838  19.058  0.00  0.00    +0.000 A 
ATOM      6  N   UNL     1       2.324   6.176  20.147  0.00  0.00    +0.000 NA
ATOM      7  C   UNL     1       2.003   7.440  19.961  0.00  0.00    +0.000 A 
ATOM      8 BR   UNL     1       0.994   8.373  21.236  0.00  0.00    +0.000 Br
ATOM      9  N   UNL     1       2.521   7.929  18.777  0.00  0.00    +0.000 N 
ATOM     10  N   UNL     1       3.620   4.608  18.823  0.00  0.00    +0.000 N 
ATOM     11  C   UNL     1       3.473   3.504  19.748  0.00  0.00    +0.000 C 
ATOM     12  C   UNL     1       4.305   4.388  17.630  0.00  0.00    +0.000 A 
ATOM     13  O   UNL     1       4.758   3.275  17.343  0.00  0.00    +0.000 OA
ENDROOT
BRANCH   1  14
ATOM     14  C   UNL     1       5.061   5.206  15.466  0.00  0.00    +0.000 C 
BRANCH  14  15
ATOM     15  C   UNL     1       6.583   5.283  15.527  0.00  0.00    +0.000 C 
ATOM     16  O   UNL     1       7.186   6.034  16.285  0.00  0.00    +0.000 OA
BRANCH  15  17
ATOM     17  O   UNL     1       7.174   4.493  14.586  0.00  0.00    +0.000 OA
BRANCH  17  19
ATOM     18  C   UNL     1       6.834   3.915  12.299  0.00  0.00    +0.000 C 
ATOM     19  C   UNL     1       6.288   3.785  13.710  0.00  0.00    +0.000 C 
ENDBRANCH  17  19
ENDBRANCH  15  17
ENDBRANCH  14  15
ENDBRANCH   1  14
BRANCH   9  20
ATOM     20  C   UNL     1       2.536   9.324  18.359  0.00  0.00    +0.000 C 
BRANCH  20  21
ATOM     21  C   UNL     1       1.169   9.964  18.276  0.00  0.00    +0.000 A 
ATOM     22  C   UNL     1       0.102   9.321  17.625  0.00  0.00    +0.000 A 
ATOM     23  C   UNL     1      -1.184   9.872  17.640  0.00  0.00    +0.000 A 
ATOM     24  C   UNL     1      -1.419  11.070  18.308  0.00  0.00    +0.000 A 
ATOM     25 CL   UNL     1      -3.009  11.721  18.371  0.00  0.00    +0.000 Cl
ATOM     26  C   UNL     1      -0.374  11.730  18.945  0.00  0.00    +0.000 A 
ATOM     27  C   UNL     1       0.912  11.180  18.927  0.00  0.00    +0.000 A 
ENDBRANCH  20  21
ENDBRANCH   9  20
TORSDOF 6
ENDMDL
