MODEL 1
REMARK VINA RESULT:      -7.6      0.000      0.000
REMARK  Name = 
REMARK  7 active torsions:
REMARK  status: ('A' for Active; 'I' for Inactive)
REMARK    1  A    between atoms: C_1  and  C_2
REMARK    2  A    between atoms: C_2  and  O_3
REMARK    3  A    between atoms: O_3  and  C_4
REMARK    4  A    between atoms: C_4  and  C_6
REMARK    5  A    between atoms: N_8  and  C_9
REMARK    6  A    between atoms: C_9  and  C_10
REMARK    7  A    between atoms: C_15  and  C_16
REMARK                            x       y       z     vdW  Elec       q    Type
REMARK                         _______ _______ _______ _____ _____    ______ ____
ROOT
ATOM      1  C   UNL     1       3.342   4.354  17.837  0.00  0.00    +0.000 C 
ATOM      2  C   UNL     1       4.191   3.919  16.898  0.00  0.00    +0.000 C 
ATOM      3  N   UNL     1       5.540   4.357  16.869  0.00  0.00    +0.000 N 
ATOM      4  S   UNL     1       6.074   5.608  17.832  0.00  0.00    +0.000 S 
ATOM      5  O   UNL     1       5.844   6.852  17.139  0.00  0.00    +0.000 OA
ATOM      6  O   UNL     1       7.392   5.284  18.323  0.00  0.00    +0.000 OA
ATOM      7  N   UNL     1       5.067   5.540  19.143  0.00  0.00    +0.000 NA
ATOM      8  C   UNL     1       3.635   5.275  18.971  0.00  0.00    +0.000 C 
ATOM      9  H   UNL     1       5.241   6.345  19.745  0.00  0.00    +0.000 HD
ENDROOT
BRANCH   8  10
ATOM     10  C   UNL     1       2.805   6.553  19.021  0.00  0.00    +0.000 A 
ATOM     11  C   UNL     1       2.681   7.403  17.913  0.00  0.00    +0.000 A 
ATOM     12  C   UNL     1       2.026   8.631  18.021  0.00  0.00    +0.000 A 
ATOM     13  C   UNL     1       1.448   9.012  19.228  0.00  0.00    +0.000 A 
ATOM     14  C   UNL     1       1.508   8.156  20.324  0.00  0.00    +0.000 A 
ATOM     15  C   UNL     1       2.182   6.938  20.222  0.00  0.00    +0.000 A 
ENDBRANCH   8  10
BRANCH   1  16
ATOM     16  C   UNL     1       1.975   3.752  17.852  0.00  0.00    +0.000 C 
ATOM     17  O   UNL     1       1.062   4.139  17.136  0.00  0.00    +0.000 OA
BRANCH  16  18
ATOM     18  O   UNL     1       1.900   2.742  18.749  0.00  0.00    +0.000 OA
BRANCH  18  20
ATOM     19  C   UNL     1       1.345   3.171  21.053  0.00  0.00    +0.000 C 
ATOM     20  C   UNL     1       0.816   2.784  19.688  0.00  0.00    +0.000 C 
ENDBRANCH  18  20
ENDBRANCH  16  18
ENDBRANCH   1  16
BRANCH   3  21
ATOM     21  C   UNL     1       6.374   4.029  15.687  0.00  0.00    +0.000 C 
ATOM     22  C   UNL     1       5.637   4.291  14.380  0.00  0.00    +0.000 C 
ENDBRANCH   3  21
TORSDOF 5
ENDMDL
MODEL 2
REMARK VINA RESULT:      -7.5      0.254      1.079
REMARK  Name = 
REMARK  7 active torsions:
REMARK  status: ('A' for Active; 'I' for Inactive)
REMARK    1  A    between atoms: C_1  and  C_2
REMARK    2  A    between atoms: C_2  and  O_3
REMARK    3  A    between atoms: O_3  and  C_4
REMARK    4  A    between atoms: C_4  and  C_6
REMARK    5  A    between atoms: N_8  and  C_9
REMARK    6  A    between atoms: C_9  and  C_10
REMARK    7  A    between atoms: C_15  and  C_16
REMARK                            x       y       z     vdW  Elec       q    Type
REMARK                         _______ _______ _______ _____ _____    ______ ____
ROOT
ATOM      1  C   UNL     1       3.308   4.394  17.881  0.00  0.00    +0.000 C 
ATOM      2  C   UNL     1       4.097   3.884  16.926  0.00  0.00    +0.000 C 
ATOM      3  N   UNL     1       5.471   4.227  16.850  0.00  0.00    +0.000 N 
ATOM      4  S   UNL     1       6.118   5.457  17.771  0.00  0.00    +0.000 S 
ATOM      5  O   UNL     1       5.952   6.700  17.059  0.00  0.00    +0.000 OA
ATOM      6  O   UNL     1       7.426   5.052  18.231  0.00  0.00    +0.000 OA
ATOM      7  N   UNL     1       5.149   5.483  19.111  0.00  0.00    +0.000 NA
ATOM      8  C   UNL     1       3.698   5.313  18.987  0.00  0.00    +0.000 C 
ATOM      9  H   UNL     1       5.395   6.284  19.692  0.00  0.00    +0.000 HD
ENDROOT
BRANCH   8  10
ATOM     10  C   UNL     1       2.959   6.646  19.035  0.00  0.00    +0.000 A 
ATOM     11  C   UNL     1       2.250   7.063  20.170  0.00  0.00    +0.000 A 
ATOM     12  C   UNL     1       1.473   8.223  20.145  0.00  0.00    +0.000 A 
ATOM     13  C   UNL     1       1.424   9.007  18.998  0.00  0.00    +0.000 A 
ATOM     14  C   UNL     1       2.168   8.643  17.879  0.00  0.00    +0.000 A 
ATOM     15  C   UNL     1       2.927   7.471  17.896  0.00  0.00    +0.000 A 
ENDBRANCH   8  10
BRANCH   1  16
ATOM     16  C   UNL     1       1.905   3.887  17.948  0.00  0.00    +0.000 C 
ATOM     17  O   UNL     1       1.023   4.247  17.181  0.00  0.00    +0.000 OA
BRANCH  16  18
ATOM     18  O   UNL     1       1.758   2.994  18.953  0.00  0.00    +0.000 OA
BRANCH  18  20
ATOM     19  C   UNL     1       1.421   2.801  21.331  0.00  0.00    +0.000 C 
ATOM     20  C   UNL     1       0.886   3.364  20.031  0.00  0.00    +0.000 C 
ENDBRANCH  18  20
ENDBRANCH  16  18
ENDBRANCH   1  16
BRANCH   3  21
ATOM     21  C   UNL     1       6.244   3.821  15.651  0.00  0.00    +0.000 C 
ATOM     22  C   UNL     1       5.607   4.327  14.364  0.00  0.00    +0.000 C 
ENDBRANCH   3  21
TORSDOF 5
ENDMDL
MODEL 3
REMARK VINA RESULT:      -7.0      2.208      4.022
REMARK  Name = 
REMARK  7 active torsions:
REMARK  status: ('A' for Active; 'I' for Inactive)
REMARK    1  A    between atoms: C_1  and  C_2
REMARK    2  A    between atoms: C_2  and  O_3
REMARK    3  A    between atoms: O_3  and  C_4
REMARK    4  A    between atoms: C_4  and  C_6
REMARK    5  A    between atoms: N_8  and  C_9
REMARK    6  A    between atoms: C_9  and  C_10
REMARK    7  A    between atoms: C_15  and  C_16
REMARK                            x       y       z     vdW  Elec       q    Type
REMARK                         _______ _______ _______ _____ _____    ______ ____
ROOT
ATOM      1  C   UNL     1       3.746   6.676  17.924  0.00  0.00    +0.000 C 
ATOM      2  C   UNL     1       5.010   7.113  17.867  0.00  0.00    +0.000 C 
ATOM      3  N   UNL     1       6.077   6.233  17.552  0.00  0.00    +0.000 N 
ATOM      4  S   UNL     1       5.857   4.583  17.482  0.00  0.00    +0.000 S 
ATOM      5  O   UNL     1       6.037   4.038  18.805  0.00  0.00    +0.000 OA
ATOM      6  O   UNL     1       6.619   4.060  16.372  0.00  0.00    +0.000 OA
ATOM      7  N   UNL     1       4.265   4.425  17.059  0.00  0.00    +0.000 NA
ATOM      8  C   UNL     1       3.246   5.300  17.647  0.00  0.00    +0.000 C 
ATOM      9  H   UNL     1       4.000   3.441  17.101  0.00  0.00    +0.000 HD
ENDROOT
BRANCH   8  10
ATOM     10  C   UNL     1       2.498   4.622  18.789  0.00  0.00    +0.000 A 
ATOM     11  C   UNL     1       2.918   4.732  20.122  0.00  0.00    +0.000 A 
ATOM     12  C   UNL     1       2.296   3.997  21.134  0.00  0.00    +0.000 A 
ATOM     13  C   UNL     1       1.218   3.171  20.836  0.00  0.00    +0.000 A 
ATOM     14  C   UNL     1       0.747   3.093  19.528  0.00  0.00    +0.000 A 
ATOM     15  C   UNL     1       1.383   3.811  18.513  0.00  0.00    +0.000 A 
ENDBRANCH   8  10
BRANCH   1  16
ATOM     16  C   UNL     1       2.681   7.698  18.154  0.00  0.00    +0.000 C 
ATOM     17  O   UNL     1       2.316   8.492  17.298  0.00  0.00    +0.000 OA
BRANCH  16  18
ATOM     18  O   UNL     1       2.192   7.615  19.412  0.00  0.00    +0.000 OA
BRANCH  18  20
ATOM     19  C   UNL     1       1.148   8.554  21.370  0.00  0.00    +0.000 C 
ATOM     20  C   UNL     1       1.450   8.743  19.899  0.00  0.00    +0.000 C 
ENDBRANCH  18  20
ENDBRANCH  16  18
ENDBRANCH   1  16
BRANCH   3  21
ATOM     21  C   UNL     1       7.471   6.709  17.723  0.00  0.00    +0.000 C 
ATOM     22  C   UNL     1       7.583   8.218  17.553  0.00  0.00    +0.000 C 
ENDBRANCH   3  21
TORSDOF 5
ENDMDL
MODEL 4
REMARK VINA RESULT:      -7.0      2.516      4.164
REMARK  Name = 
REMARK  7 active torsions:
REMARK  status: ('A' for Active; 'I' for Inactive)
REMARK    1  A    between atoms: C_1  and  C_2
REMARK    2  A    between atoms: C_2  and  O_3
REMARK    3  A    between atoms: O_3  and  C_4
REMARK    4  A    between atoms: C_4  and  C_6
REMARK    5  A    between atoms: N_8  and  C_9
REMARK    6  A    between atoms: C_9  and  C_10
REMARK    7  A    between atoms: C_15  and  C_16
REMARK                            x       y       z     vdW  Elec       q    Type
REMARK                         _______ _______ _______ _____ _____    ______ ____
ROOT
ATOM      1  C   UNL     1       4.404   6.429  17.699  0.00  0.00    +0.000 C 
ATOM      2  C   UNL     1       5.520   7.154  17.837  0.00  0.00    +0.000 C 
ATOM      3  N   UNL     1       6.715   6.798  17.159  0.00  0.00    +0.000 N 
ATOM      4  S   UNL     1       6.868   5.341  16.366  0.00  0.00    +0.000 S 
ATOM      5  O   UNL     1       7.321   4.349  17.311  0.00  0.00    +0.000 OA
ATOM      6  O   UNL     1       7.594   5.557  15.137  0.00  0.00    +0.000 OA
ATOM      7  N   UNL     1       5.316   4.979  15.924  0.00  0.00    +0.000 NA
ATOM      8  C   UNL     1       4.201   5.226  16.843  0.00  0.00    +0.000 C 
ATOM      9  H   UNL     1       5.287   4.040  15.526  0.00  0.00    +0.000 HD
ENDROOT
BRANCH   8  10
ATOM     10  C   UNL     1       3.764   3.959  17.569  0.00  0.00    +0.000 A 
ATOM     11  C   UNL     1       2.610   3.253  17.204  0.00  0.00    +0.000 A 
ATOM     12  C   UNL     1       2.159   2.173  17.965  0.00  0.00    +0.000 A 
ATOM     13  C   UNL     1       2.876   1.755  19.081  0.00  0.00    +0.000 A 
ATOM     14  C   UNL     1       4.058   2.405  19.426  0.00  0.00    +0.000 A 
ATOM     15  C   UNL     1       4.497   3.499  18.678  0.00  0.00    +0.000 A 
ENDBRANCH   8  10
BRANCH   1  16
ATOM     16  C   UNL     1       3.169   6.945  18.362  0.00  0.00    +0.000 C 
ATOM     17  O   UNL     1       2.319   7.605  17.780  0.00  0.00    +0.000 OA
BRANCH  16  18
ATOM     18  O   UNL     1       3.129   6.583  19.665  0.00  0.00    +0.000 OA
BRANCH  18  20
ATOM     19  C   UNL     1       1.580   4.963  20.546  0.00  0.00    +0.000 C 
ATOM     20  C   UNL     1       1.833   6.428  20.259  0.00  0.00    +0.000 C 
ENDBRANCH  18  20
ENDBRANCH  16  18
ENDBRANCH   1  16
BRANCH   3  21
ATOM     21  C   UNL     1       7.975   7.493  17.518  0.00  0.00    +0.000 C 
ATOM     22  C   UNL     1       7.758   8.982  17.753  0.00  0.00    +0.000 C 
ENDBRANCH   3  21
TORSDOF 5
ENDMDL
MODEL 5
REMARK VINA RESULT:      -7.0      1.950      5.309
REMARK  Name = 
REMARK  7 active torsions:
REMARK  status: ('A' for Active; 'I' for Inactive)
REMARK    1  A    between atoms: C_1  and  C_2
REMARK    2  A    between atoms: C_2  and  O_3
REMARK    3  A    between atoms: O_3  and  C_4
REMARK    4  A    between atoms: C_4  and  C_6
REMARK    5  A    between atoms: N_8  and  C_9
REMARK    6  A    between atoms: C_9  and  C_10
REMARK    7  A    between atoms: C_15  and  C_16
REMARK                            x       y       z     vdW  Elec       q    Type
REMARK                         _______ _______ _______ _____ _____    ______ ____
ROOT
ATOM      1  C   UNL     1       3.814   5.320  18.487  0.00  0.00    +0.000 C 
ATOM      2  C   UNL     1       2.792   4.735  19.124  0.00  0.00    +0.000 C 
ATOM      3  N   UNL     1       2.943   3.468  19.744  0.00  0.00    +0.000 N 
ATOM      4  S   UNL     1       4.303   2.534  19.503  0.00  0.00    +0.000 S 
ATOM      5  O   UNL     1       4.107   1.732  18.321  0.00  0.00    +0.000 OA
ATOM      6  O   UNL     1       4.661   1.907  20.754  0.00  0.00    +0.000 OA
ATOM      7  N   UNL     1       5.485   3.649  19.195  0.00  0.00    +0.000 NA
ATOM      8  C   UNL     1       5.209   4.815  18.351  0.00  0.00    +0.000 C 
ATOM      9  H   UNL     1       6.341   3.167  18.921  0.00  0.00    +0.000 HD
ENDROOT
BRANCH   8  10
ATOM     10  C   UNL     1       5.709   4.621  16.924  0.00  0.00    +0.000 A 
ATOM     11  C   UNL     1       7.006   4.983  16.535  0.00  0.00    +0.000 A 
ATOM     12  C   UNL     1       7.398   4.919  15.196  0.00  0.00    +0.000 A 
ATOM     13  C   UNL     1       6.513   4.454  14.230  0.00  0.00    +0.000 A 
ATOM     14  C   UNL     1       5.240   4.031  14.604  0.00  0.00    +0.000 A 
ATOM     15  C   UNL     1       4.841   4.117  15.939  0.00  0.00    +0.000 A 
ENDBRANCH   8  10
BRANCH   1  16
ATOM     16  C   UNL     1       3.590   6.701  17.964  0.00  0.00    +0.000 C 
ATOM     17  O   UNL     1       4.472   7.378  17.454  0.00  0.00    +0.000 OA
BRANCH  16  18
ATOM     18  O   UNL     1       2.302   7.081  18.131  0.00  0.00    +0.000 OA
BRANCH  18  20
ATOM     19  C   UNL     1       1.392   9.295  17.866  0.00  0.00    +0.000 C 
ATOM     20  C   UNL     1       2.072   8.324  18.808  0.00  0.00    +0.000 C 
ENDBRANCH  18  20
ENDBRANCH  16  18
ENDBRANCH   1  16
BRANCH   3  21
ATOM     21  C   UNL     1       1.734   2.763  20.236  0.00  0.00    +0.000 C 
ATOM     22  C   UNL     1       0.733   2.502  19.118  0.00  0.00    +0.000 C 
ENDBRANCH   3  21
TORSDOF 5
ENDMDL
MODEL 6
REMARK VINA RESULT:      -7.0      2.215      3.920
REMARK  Name = 
REMARK  7 active torsions:
REMARK  status: ('A' for Active; 'I' for Inactive)
REMARK    1  A    between atoms: C_1  and  C_2
REMARK    2  A    between atoms: C_2  and  O_3
REMARK    3  A    between atoms: O_3  and  C_4
REMARK    4  A    between atoms: C_4  and  C_6
REMARK    5  A    between atoms: N_8  and  C_9
REMARK    6  A    between atoms: C_9  and  C_10
REMARK    7  A    between atoms: C_15  and  C_16
REMARK                            x       y       z     vdW  Elec       q    Type
REMARK                         _______ _______ _______ _____ _____    ______ ____
ROOT
ATOM      1  C   UNL     1       3.847   6.695  17.878  0.00  0.00    +0.000 C 
ATOM      2  C   UNL     1       5.102   7.162  17.860  0.00  0.00    +0.000 C 
ATOM      3  N   UNL     1       6.196   6.316  17.543  0.00  0.00    +0.000 N 
ATOM      4  S   UNL     1       6.016   4.663  17.426  0.00  0.00    +0.000 S 
ATOM      5  O   UNL     1       6.183   4.088  18.738  0.00  0.00    +0.000 OA
ATOM      6  O   UNL     1       6.814   4.189  16.319  0.00  0.00    +0.000 OA
ATOM      7  N   UNL     1       4.438   4.480  16.965  0.00  0.00    +0.000 NA
ATOM      8  C   UNL     1       3.387   5.315  17.554  0.00  0.00    +0.000 C 
ATOM      9  H   UNL     1       4.196   3.490  16.975  0.00  0.00    +0.000 HD
ENDROOT
BRANCH   8  10
ATOM     10  C   UNL     1       2.632   4.589  18.662  0.00  0.00    +0.000 A 
ATOM     11  C   UNL     1       1.475   3.840  18.406  0.00  0.00    +0.000 A 
ATOM     12  C   UNL     1       0.727   3.295  19.451  0.00  0.00    +0.000 A 
ATOM     13  C   UNL     1       1.145   3.455  20.768  0.00  0.00    +0.000 A 
ATOM     14  C   UNL     1       2.324   4.144  21.040  0.00  0.00    +0.000 A 
ATOM     15  C   UNL     1       3.060   4.708  19.997  0.00  0.00    +0.000 A 
ENDBRANCH   8  10
BRANCH   1  16
ATOM     16  C   UNL     1       2.754   7.685  18.112  0.00  0.00    +0.000 C 
ATOM     17  O   UNL     1       2.277   8.381  17.226  0.00  0.00    +0.000 OA
BRANCH  16  18
ATOM     18  O   UNL     1       2.378   7.695  19.411  0.00  0.00    +0.000 OA
BRANCH  18  20
ATOM     19  C   UNL     1       0.914   8.387  21.194  0.00  0.00    +0.000 C 
ATOM     20  C   UNL     1       1.438   8.703  19.810  0.00  0.00    +0.000 C 
ENDBRANCH  18  20
ENDBRANCH  16  18
ENDBRANCH   1  16
BRANCH   3  21
ATOM     21  C   UNL     1       7.575   6.819  17.757  0.00  0.00    +0.000 C 
ATOM     22  C   UNL     1       7.667   8.327  17.565  0.00  0.00    +0.000 C 
ENDBRANCH   3  21
TORSDOF 5
ENDMDL
MODEL 7
REMARK VINA RESULT:      -6.9      1.950      5.396
REMARK  Name = 
REMARK  7 active torsions:
REMARK  status: ('A' for Active; 'I' for Inactive)
REMARK    1  A    between atoms: C_1  and  C_2
REMARK    2  A    between atoms: C_2  and  O_3
REMARK    3  A    between atoms: O_3  and  C_4
REMARK    4  A    between atoms: C_4  and  C_6
REMARK    5  A    between atoms: N_8  and  C_9
REMARK    6  A    between atoms: C_9  and  C_10
REMARK    7  A    between atoms: C_15  and  C_16
REMARK                            x       y       z     vdW  Elec       q    Type
REMARK                         _______ _______ _______ _____ _____    ______ ____
ROOT
ATOM      1  C   UNL     1       3.771   5.300  18.490  0.00  0.00    +0.000 C 
ATOM      2  C   UNL     1       2.785   4.658  19.130  0.00  0.00    +0.000 C 
ATOM      3  N   UNL     1       2.986   3.365  19.677  0.00  0.00    +0.000 N 
ATOM      4  S   UNL     1       4.357   2.479  19.344  0.00  0.00    +0.000 S 
ATOM      5  O   UNL     1       4.139   1.733  18.128  0.00  0.00    +0.000 OA
ATOM      6  O   UNL     1       4.772   1.798  20.548  0.00  0.00    +0.000 OA
ATOM      7  N   UNL     1       5.503   3.636  19.055  0.00  0.00    +0.000 NA
ATOM      8  C   UNL     1       5.172   4.837  18.281  0.00  0.00    +0.000 C 
ATOM      9  H   UNL     1       6.359   3.191  18.728  0.00  0.00    +0.000 HD
ENDROOT
BRANCH   8  10
ATOM     10  C   UNL     1       5.627   4.728  16.831  0.00  0.00    +0.000 A 
ATOM     11  C   UNL     1       4.808   4.179  15.834  0.00  0.00    +0.000 A 
ATOM     12  C   UNL     1       5.294   3.968  14.542  0.00  0.00    +0.000 A 
ATOM     13  C   UNL     1       6.593   4.341  14.213  0.00  0.00    +0.000 A 
ATOM     14  C   UNL     1       7.403   4.944  15.173  0.00  0.00    +0.000 A 
ATOM     15  C   UNL     1       6.924   5.134  16.470  0.00  0.00    +0.000 A 
ENDBRANCH   8  10
BRANCH   1  16
ATOM     16  C   UNL     1       3.498   6.700  18.047  0.00  0.00    +0.000 C 
ATOM     17  O   UNL     1       4.340   7.416  17.523  0.00  0.00    +0.000 OA
BRANCH  16  18
ATOM     18  O   UNL     1       2.216   7.049  18.301  0.00  0.00    +0.000 OA
BRANCH  18  20
ATOM     19  C   UNL     1       1.429   9.283  17.864  0.00  0.00    +0.000 C 
ATOM     20  C   UNL     1       1.996   8.335  18.898  0.00  0.00    +0.000 C 
ENDBRANCH  18  20
ENDBRANCH  16  18
ENDBRANCH   1  16
BRANCH   3  21
ATOM     21  C   UNL     1       1.811   2.607  20.172  0.00  0.00    +0.000 C 
ATOM     22  C   UNL     1       1.518   2.903  21.637  0.00  0.00    +0.000 C 
ENDBRANCH   3  21
TORSDOF 5
ENDMDL
MODEL 8
REMARK VINA RESULT:      -6.9      2.532      4.251
REMARK  Name = 
REMARK  7 active torsions:
REMARK  status: ('A' for Active; 'I' for Inactive)
REMARK    1  A    between atoms: C_1  and  C_2
REMARK    2  A    between atoms: C_2  and  O_3
REMARK    3  A    between atoms: O_3  and  C_4
REMARK    4  A    between atoms: C_4  and  C_6
REMARK    5  A    between atoms: N_8  and  C_9
REMARK    6  A    between atoms: C_9  and  C_10
REMARK    7  A    between atoms: C_15  and  C_16
REMARK                            x       y       z     vdW  Elec       q    Type
REMARK                         _______ _______ _______ _____ _____    ______ ____
ROOT
ATOM      1  C   UNL     1       4.419   6.467  17.685  0.00  0.00    +0.000 C 
ATOM      2  C   UNL     1       5.540   7.192  17.791  0.00  0.00    +0.000 C 
ATOM      3  N   UNL     1       6.730   6.804  17.124  0.00  0.00    +0.000 N 
ATOM      4  S   UNL     1       6.874   5.317  16.387  0.00  0.00    +0.000 S 
ATOM      5  O   UNL     1       7.325   4.359  17.367  0.00  0.00    +0.000 OA
ATOM      6  O   UNL     1       7.598   5.483  15.148  0.00  0.00    +0.000 OA
ATOM      7  N   UNL     1       5.319   4.946  15.963  0.00  0.00    +0.000 NA
ATOM      8  C   UNL     1       4.208   5.233  16.876  0.00  0.00    +0.000 C 
ATOM      9  H   UNL     1       5.285   3.993  15.602  0.00  0.00    +0.000 HD
ENDROOT
BRANCH   8  10
ATOM     10  C   UNL     1       3.768   3.997  17.651  0.00  0.00    +0.000 A 
ATOM     11  C   UNL     1       4.496   3.505  18.743  0.00  0.00    +0.000 A 
ATOM     12  C   UNL     1       4.148   2.299  19.353  0.00  0.00    +0.000 A 
ATOM     13  C   UNL     1       3.041   1.585  18.909  0.00  0.00    +0.000 A 
ATOM     14  C   UNL     1       2.267   2.086  17.865  0.00  0.00    +0.000 A 
ATOM     15  C   UNL     1       2.629   3.281  17.240  0.00  0.00    +0.000 A 
ENDBRANCH   8  10
BRANCH   1  16
ATOM     16  C   UNL     1       3.189   7.014  18.331  0.00  0.00    +0.000 C 
ATOM     17  O   UNL     1       2.376   7.715  17.745  0.00  0.00    +0.000 OA
BRANCH  16  18
ATOM     18  O   UNL     1       3.107   6.628  19.625  0.00  0.00    +0.000 OA
BRANCH  18  20
ATOM     19  C   UNL     1       1.736   4.946  20.671  0.00  0.00    +0.000 C 
ATOM     20  C   UNL     1       1.797   6.365  20.146  0.00  0.00    +0.000 C 
ENDBRANCH  18  20
ENDBRANCH  16  18
ENDBRANCH   1  16
BRANCH   3  21
ATOM     21  C   UNL     1       7.995   7.506  17.453  0.00  0.00    +0.000 C 
ATOM     22  C   UNL     1       7.764   8.978  17.770  0.00  0.00    +0.000 C 
ENDBRANCH   3  21
TORSDOF 5
ENDMDL
MODEL 9
REMARK VINA RESULT:      -6.9      2.243      4.298
REMARK  Name = 
REMARK  7 active torsions:
REMARK  status: ('A' for Active; 'I' for Inactive)
REMARK    1  A    between atoms: C_1  and  C_2
REMARK    2  A    between atoms: C_2  and  O_3
REMARK    3  A    between atoms: O_3  and  C_4
REMARK    4  A    between atoms: C_4  and  C_6
REMARK    5  A    between atoms: N_8  and  C_9
REMARK    6  A    between atoms: C_9  and  C_10
REMARK    7  A    between atoms: C_15  and  C_16
REMARK                            x       y       z     vdW  Elec       q    Type
REMARK                         _______ _______ _______ _____ _____    ______ ____
ROOT
ATOM      1  C   UNL     1       3.704   6.484  18.177  0.00  0.00    +0.000 C 
ATOM      2  C   UNL     1       4.956   6.958  18.129  0.00  0.00    +0.000 C 
ATOM      3  N   UNL     1       6.023   6.164  17.639  0.00  0.00    +0.000 N 
ATOM      4  S   UNL     1       5.833   4.536  17.334  0.00  0.00    +0.000 S 
ATOM      5  O   UNL     1       6.088   3.807  18.552  0.00  0.00    +0.000 OA
ATOM      6  O   UNL     1       6.551   4.205  16.126  0.00  0.00    +0.000 OA
ATOM      7  N   UNL     1       4.227   4.400  16.964  0.00  0.00    +0.000 NA
ATOM      8  C   UNL     1       3.220   5.151  17.721  0.00  0.00    +0.000 C 
ATOM      9  H   UNL     1       3.983   3.415  16.870  0.00  0.00    +0.000 HD
ENDROOT
BRANCH   8  10
ATOM     10  C   UNL     1       2.541   4.292  18.781  0.00  0.00    +0.000 A 
ATOM     11  C   UNL     1       1.353   3.593  18.524  0.00  0.00    +0.000 A 
ATOM     12  C   UNL     1       0.680   2.921  19.546  0.00  0.00    +0.000 A 
ATOM     13  C   UNL     1       1.205   2.902  20.834  0.00  0.00    +0.000 A 
ATOM     14  C   UNL     1       2.415   3.538  21.097  0.00  0.00    +0.000 A 
ATOM     15  C   UNL     1       3.076   4.229  20.080  0.00  0.00    +0.000 A 
ENDBRANCH   8  10
BRANCH   1  16
ATOM     16  C   UNL     1       2.632   7.432  18.603  0.00  0.00    +0.000 C 
ATOM     17  O   UNL     1       2.187   7.476  19.742  0.00  0.00    +0.000 OA
BRANCH  16  18
ATOM     18  O   UNL     1       2.237   8.214  17.573  0.00  0.00    +0.000 OA
BRANCH  18  20
ATOM     19  C   UNL     1       0.467   9.783  18.027  0.00  0.00    +0.000 C 
ATOM     20  C   UNL     1       1.960   9.591  17.868  0.00  0.00    +0.000 C 
ENDBRANCH  18  20
ENDBRANCH  16  18
ENDBRANCH   1  16
BRANCH   3  21
ATOM     21  C   UNL     1       7.415   6.646  17.817  0.00  0.00    +0.000 C 
ATOM     22  C   UNL     1       7.551   8.127  17.490  0.00  0.00    +0.000 C 
ENDBRANCH   3  21
TORSDOF 5
ENDMDL
