MODEL 1
REMARK VINA RESULT:      -7.3      0.000      0.000
REMARK  Name = 
REMARK  6 active torsions:
REMARK  status: ('A' for Active; 'I' for Inactive)
REMARK    1  A    between atoms: C_1  and  O_2
REMARK    2  A    between atoms: O_2  and  C_3
REMARK    3  A    between atoms: C_6  and  C_7
REMARK    4  A    between atoms: C_15  and  C_16
REMARK    5  A    between atoms: C_16  and  C_17
REMARK    6  A    between atoms: C_17  and  C_18
REMARK                            x       y       z     vdW  Elec       q    Type
REMARK                         _______ _______ _______ _____ _____    ______ ____
ROOT
ATOM      1  C   UNL     1       3.447   6.599  17.893  0.00  0.00    +0.000 A 
ATOM      2  N   UNL     1       4.648   7.066  17.388  0.00  0.00    +0.000 N 
ATOM      3  C   UNL     1       5.313   6.082  16.723  0.00  0.00    +0.000 A 
ATOM      4  N   UNL     1       6.523   6.201  16.136  0.00  0.00    +0.000 NA
ATOM      5  C   UNL     1       6.911   5.026  15.588  0.00  0.00    +0.000 A 
ATOM      6  C   UNL     1       6.152   3.861  15.626  0.00  0.00    +0.000 A 
ATOM      7  N   UNL     1       4.934   3.767  16.211  0.00  0.00    +0.000 NA
ATOM      8  C   UNL     1       4.528   4.938  16.777  0.00  0.00    +0.000 A 
ATOM      9  C   UNL     1       3.341   5.256  17.501  0.00  0.00    +0.000 A 
ATOM     10  H   UNL     1       5.019   7.997  17.514  0.00  0.00    +0.000 HD
ENDROOT
BRANCH   1  14
ATOM     11  C   UNL     1       0.917   9.181  20.216  0.00  0.00    +0.000 A 
ATOM     12  C   UNL     1       1.414   7.998  20.763  0.00  0.00    +0.000 A 
ATOM     13  C   UNL     1       2.243   7.158  20.010  0.00  0.00    +0.000 A 
ATOM     14  C   UNL     1       2.562   7.469  18.682  0.00  0.00    +0.000 A 
ATOM     15  C   UNL     1       2.016   8.636  18.132  0.00  0.00    +0.000 A 
ATOM     16  C   UNL     1       1.214   9.495  18.894  0.00  0.00    +0.000 A 
BRANCH  11  18
ATOM     17  C   UNL     1      -0.373   9.245  22.194  0.00  0.00    +0.000 C 
ATOM     18  O   UNL     1       0.130   9.925  21.051  0.00  0.00    +0.000 OA
ENDBRANCH  11  18
ENDBRANCH   1  14
BRANCH   9  19
ATOM     19  C   UNL     1       2.242   4.273  17.782  0.00  0.00    +0.000 C 
BRANCH  19  20
ATOM     20  C   UNL     1       2.444   3.482  19.079  0.00  0.00    +0.000 C 
BRANCH  20  21
ATOM     21  C   UNL     1       1.184   3.408  19.933  0.00  0.00    +0.000 C 
ATOM     22 CL   UNL     1       1.544   3.017  21.634  0.00  0.00    +0.000 Cl
ENDBRANCH  20  21
ENDBRANCH  19  20
ENDBRANCH   9  19
TORSDOF 5
ENDMDL
MODEL 2
REMARK VINA RESULT:      -7.2      0.842      1.404
REMARK  Name = 
REMARK  6 active torsions:
REMARK  status: ('A' for Active; 'I' for Inactive)
REMARK    1  A    between atoms: C_1  and  O_2
REMARK    2  A    between atoms: O_2  and  C_3
REMARK    3  A    between atoms: C_6  and  C_7
REMARK    4  A    between atoms: C_15  and  C_16
REMARK    5  A    between atoms: C_16  and  C_17
REMARK    6  A    between atoms: C_17  and  C_18
REMARK                            x       y       z     vdW  Elec       q    Type
REMARK                         _______ _______ _______ _____ _____    ______ ____
ROOT
ATOM      1  C   UNL     1       3.480   6.568  17.714  0.00  0.00    +0.000 A 
ATOM      2  N   UNL     1       4.373   7.044  16.769  0.00  0.00    +0.000 N 
ATOM      3  C   UNL     1       5.083   6.023  16.213  0.00  0.00    +0.000 A 
ATOM      4  N   UNL     1       6.050   6.149  15.280  0.00  0.00    +0.000 NA
ATOM      5  C   UNL     1       6.575   4.942  14.963  0.00  0.00    +0.000 A 
ATOM      6  C   UNL     1       6.160   3.741  15.528  0.00  0.00    +0.000 A 
ATOM      7  N   UNL     1       5.178   3.637  16.456  0.00  0.00    +0.000 NA
ATOM      8  C   UNL     1       4.642   4.842  16.794  0.00  0.00    +0.000 A 
ATOM      9  C   UNL     1       3.620   5.172  17.733  0.00  0.00    +0.000 A 
ATOM     10  H   UNL     1       4.520   8.014  16.533  0.00  0.00    +0.000 HD
ENDROOT
BRANCH   1  14
ATOM     11  C   UNL     1       0.915   9.203  19.937  0.00  0.00    +0.000 A 
ATOM     12  C   UNL     1       1.228   9.477  18.606  0.00  0.00    +0.000 A 
ATOM     13  C   UNL     1       2.058   8.617  17.877  0.00  0.00    +0.000 A 
ATOM     14  C   UNL     1       2.621   7.484  18.479  0.00  0.00    +0.000 A 
ATOM     15  C   UNL     1       2.336   7.249  19.831  0.00  0.00    +0.000 A 
ATOM     16  C   UNL     1       1.478   8.089  20.551  0.00  0.00    +0.000 A 
BRANCH  11  18
ATOM     17  C   UNL     1      -0.836  10.768  19.680  0.00  0.00    +0.000 C 
ATOM     18  O   UNL     1       0.084  10.107  20.539  0.00  0.00    +0.000 OA
ENDBRANCH  11  18
ENDBRANCH   1  14
BRANCH   9  19
ATOM     19  C   UNL     1       2.898   4.161  18.575  0.00  0.00    +0.000 C 
BRANCH  19  20
ATOM     20  C   UNL     1       1.497   3.818  18.057  0.00  0.00    +0.000 C 
BRANCH  20  21
ATOM     21  C   UNL     1       0.810   2.728  18.871  0.00  0.00    +0.000 C 
ATOM     22 CL   UNL     1       0.950   3.008  20.625  0.00  0.00    +0.000 Cl
ENDBRANCH  20  21
ENDBRANCH  19  20
ENDBRANCH   9  19
TORSDOF 5
ENDMDL
MODEL 3
REMARK VINA RESULT:      -7.1      1.111      1.236
REMARK  Name = 
REMARK  6 active torsions:
REMARK  status: ('A' for Active; 'I' for Inactive)
REMARK    1  A    between atoms: C_1  and  O_2
REMARK    2  A    between atoms: O_2  and  C_3
REMARK    3  A    between atoms: C_6  and  C_7
REMARK    4  A    between atoms: C_15  and  C_16
REMARK    5  A    between atoms: C_16  and  C_17
REMARK    6  A    between atoms: C_17  and  C_18
REMARK                            x       y       z     vdW  Elec       q    Type
REMARK                         _______ _______ _______ _____ _____    ______ ____
ROOT
ATOM      1  C   UNL     1       3.436   6.655  17.814  0.00  0.00    +0.000 A 
ATOM      2  N   UNL     1       4.604   7.125  17.236  0.00  0.00    +0.000 N 
ATOM      3  C   UNL     1       5.299   6.112  16.648  0.00  0.00    +0.000 A 
ATOM      4  N   UNL     1       6.488   6.228  16.021  0.00  0.00    +0.000 NA
ATOM      5  C   UNL     1       6.918   5.024  15.576  0.00  0.00    +0.000 A 
ATOM      6  C   UNL     1       6.216   3.836  15.744  0.00  0.00    +0.000 A 
ATOM      7  N   UNL     1       5.016   3.745  16.367  0.00  0.00    +0.000 NA
ATOM      8  C   UNL     1       4.569   4.945  16.831  0.00  0.00    +0.000 A 
ATOM      9  C   UNL     1       3.385   5.278  17.553  0.00  0.00    +0.000 A 
ATOM     10  H   UNL     1       4.933   8.078  17.264  0.00  0.00    +0.000 HD
ENDROOT
BRANCH   1  14
ATOM     11  C   UNL     1       0.842   9.331  19.951  0.00  0.00    +0.000 A 
ATOM     12  C   UNL     1       1.390   8.218  20.588  0.00  0.00    +0.000 A 
ATOM     13  C   UNL     1       2.241   7.348  19.896  0.00  0.00    +0.000 A 
ATOM     14  C   UNL     1       2.530   7.556  18.541  0.00  0.00    +0.000 A 
ATOM     15  C   UNL     1       1.933   8.651  17.903  0.00  0.00    +0.000 A 
ATOM     16  C   UNL     1       1.109   9.542  18.603  0.00  0.00    +0.000 A 
BRANCH  11  18
ATOM     17  C   UNL     1      -0.263  11.404  20.213  0.00  0.00    +0.000 C 
ATOM     18  O   UNL     1       0.038  10.114  20.733  0.00  0.00    +0.000 OA
ENDBRANCH  11  18
ENDBRANCH   1  14
BRANCH   9  19
ATOM     19  C   UNL     1       2.340   4.278  17.954  0.00  0.00    +0.000 C 
BRANCH  19  20
ATOM     20  C   UNL     1       2.466   3.808  19.408  0.00  0.00    +0.000 C 
BRANCH  20  21
ATOM     21  C   UNL     1       3.561   2.767  19.605  0.00  0.00    +0.000 C 
ATOM     22 CL   UNL     1       3.443   1.434  18.428  0.00  0.00    +0.000 Cl
ENDBRANCH  20  21
ENDBRANCH  19  20
ENDBRANCH   9  19
TORSDOF 5
ENDMDL
MODEL 4
REMARK VINA RESULT:      -7.1      0.966      1.475
REMARK  Name = 
REMARK  6 active torsions:
REMARK  status: ('A' for Active; 'I' for Inactive)
REMARK    1  A    between atoms: C_1  and  O_2
REMARK    2  A    between atoms: O_2  and  C_3
REMARK    3  A    between atoms: C_6  and  C_7
REMARK    4  A    between atoms: C_15  and  C_16
REMARK    5  A    between atoms: C_16  and  C_17
REMARK    6  A    between atoms: C_17  and  C_18
REMARK                            x       y       z     vdW  Elec       q    Type
REMARK                         _______ _______ _______ _____ _____    ______ ____
ROOT
ATOM      1  C   UNL     1       3.385   6.754  17.879  0.00  0.00    +0.000 A 
ATOM      2  N   UNL     1       4.588   7.188  17.348  0.00  0.00    +0.000 N 
ATOM      3  C   UNL     1       5.260   6.161  16.759  0.00  0.00    +0.000 A 
ATOM      4  N   UNL     1       6.472   6.242  16.171  0.00  0.00    +0.000 NA
ATOM      5  C   UNL     1       6.867   5.031  15.711  0.00  0.00    +0.000 A 
ATOM      6  C   UNL     1       6.112   3.870  15.830  0.00  0.00    +0.000 A 
ATOM      7  N   UNL     1       4.891   3.814  16.414  0.00  0.00    +0.000 NA
ATOM      8  C   UNL     1       4.478   5.021  16.892  0.00  0.00    +0.000 A 
ATOM      9  C   UNL     1       3.286   5.386  17.584  0.00  0.00    +0.000 A 
ATOM     10  H   UNL     1       4.954   8.127  17.409  0.00  0.00    +0.000 HD
ENDROOT
BRANCH   1  14
ATOM     11  C   UNL     1       0.725   9.403  19.969  0.00  0.00    +0.000 A 
ATOM     12  C   UNL     1       1.062   9.645  18.637  0.00  0.00    +0.000 A 
ATOM     13  C   UNL     1       1.924   8.780  17.952  0.00  0.00    +0.000 A 
ATOM     14  C   UNL     1       2.494   7.675  18.599  0.00  0.00    +0.000 A 
ATOM     15  C   UNL     1       2.183   7.475  19.950  0.00  0.00    +0.000 A 
ATOM     16  C   UNL     1       1.294   8.319  20.627  0.00  0.00    +0.000 A 
BRANCH  11  18
ATOM     17  C   UNL     1      -0.236  10.272  21.945  0.00  0.00    +0.000 C 
ATOM     18  O   UNL     1      -0.135  10.309  20.527  0.00  0.00    +0.000 OA
ENDBRANCH  11  18
ENDBRANCH   1  14
BRANCH   9  19
ATOM     19  C   UNL     1       2.189   4.421  17.930  0.00  0.00    +0.000 C 
BRANCH  19  20
ATOM     20  C   UNL     1       2.226   3.947  19.387  0.00  0.00    +0.000 C 
BRANCH  20  21
ATOM     21  C   UNL     1       3.288   2.882  19.640  0.00  0.00    +0.000 C 
ATOM     22 CL   UNL     1       3.213   1.560  18.448  0.00  0.00    +0.000 Cl
ENDBRANCH  20  21
ENDBRANCH  19  20
ENDBRANCH   9  19
TORSDOF 5
ENDMDL
MODEL 5
REMARK VINA RESULT:      -7.0      3.452      6.639
REMARK  Name = 
REMARK  6 active torsions:
REMARK  status: ('A' for Active; 'I' for Inactive)
REMARK    1  A    between atoms: C_1  and  O_2
REMARK    2  A    between atoms: O_2  and  C_3
REMARK    3  A    between atoms: C_6  and  C_7
REMARK    4  A    between atoms: C_15  and  C_16
REMARK    5  A    between atoms: C_16  and  C_17
REMARK    6  A    between atoms: C_17  and  C_18
REMARK                            x       y       z     vdW  Elec       q    Type
REMARK                         _______ _______ _______ _____ _____    ______ ____
ROOT
ATOM      1  C   UNL     1       4.305   4.224  18.071  0.00  0.00    +0.000 A 
ATOM      2  N   UNL     1       4.571   3.200  18.964  0.00  0.00    +0.000 N 
ATOM      3  C   UNL     1       3.588   3.104  19.902  0.00  0.00    +0.000 A 
ATOM      4  N   UNL     1       3.557   2.229  20.929  0.00  0.00    +0.000 NA
ATOM      5  C   UNL     1       2.456   2.419  21.692  0.00  0.00    +0.000 A 
ATOM      6  C   UNL     1       1.491   3.388  21.438  0.00  0.00    +0.000 A 
ATOM      7  N   UNL     1       1.537   4.250  20.394  0.00  0.00    +0.000 NA
ATOM      8  C   UNL     1       2.643   4.080  19.617  0.00  0.00    +0.000 A 
ATOM      9  C   UNL     1       3.077   4.783  18.455  0.00  0.00    +0.000 A 
ATOM     10  H   UNL     1       5.393   2.614  18.962  0.00  0.00    +0.000 HD
ENDROOT
BRANCH   1  14
ATOM     11  C   UNL     1       7.075   5.114  14.909  0.00  0.00    +0.000 A 
ATOM     12  C   UNL     1       7.186   5.748  16.146  0.00  0.00    +0.000 A 
ATOM     13  C   UNL     1       6.288   5.456  17.181  0.00  0.00    +0.000 A 
ATOM     14  C   UNL     1       5.240   4.547  16.983  0.00  0.00    +0.000 A 
ATOM     15  C   UNL     1       5.113   3.955  15.720  0.00  0.00    +0.000 A 
ATOM     16  C   UNL     1       6.031   4.221  14.695  0.00  0.00    +0.000 A 
BRANCH  11  18
ATOM     17  C   UNL     1       7.727   5.110  12.638  0.00  0.00    +0.000 C 
ATOM     18  O   UNL     1       8.016   5.471  13.983  0.00  0.00    +0.000 OA
ENDBRANCH  11  18
ENDBRANCH   1  14
BRANCH   9  19
ATOM     19  C   UNL     1       2.324   5.924  17.836  0.00  0.00    +0.000 C 
BRANCH  19  20
ATOM     20  C   UNL     1       2.984   7.289  18.060  0.00  0.00    +0.000 C 
BRANCH  20  21
ATOM     21  C   UNL     1       2.060   8.295  18.736  0.00  0.00    +0.000 C 
ATOM     22 CL   UNL     1       1.718   7.864  20.430  0.00  0.00    +0.000 Cl
ENDBRANCH  20  21
ENDBRANCH  19  20
ENDBRANCH   9  19
TORSDOF 5
ENDMDL
MODEL 6
REMARK VINA RESULT:      -7.0      3.048      6.220
REMARK  Name = 
REMARK  6 active torsions:
REMARK  status: ('A' for Active; 'I' for Inactive)
REMARK    1  A    between atoms: C_1  and  O_2
REMARK    2  A    between atoms: O_2  and  C_3
REMARK    3  A    between atoms: C_6  and  C_7
REMARK    4  A    between atoms: C_15  and  C_16
REMARK    5  A    between atoms: C_16  and  C_17
REMARK    6  A    between atoms: C_17  and  C_18
REMARK                            x       y       z     vdW  Elec       q    Type
REMARK                         _______ _______ _______ _____ _____    ______ ____
ROOT
ATOM      1  C   UNL     1       2.940   6.852  18.506  0.00  0.00    +0.000 A 
ATOM      2  N   UNL     1       2.580   8.137  18.136  0.00  0.00    +0.000 N 
ATOM      3  C   UNL     1       1.781   8.710  19.079  0.00  0.00    +0.000 A 
ATOM      4  N   UNL     1       1.238   9.944  19.012  0.00  0.00    +0.000 NA
ATOM      5  C   UNL     1       0.472  10.193  20.099  0.00  0.00    +0.000 A 
ATOM      6  C   UNL     1       0.282   9.292  21.141  0.00  0.00    +0.000 A 
ATOM      7  N   UNL     1       0.848   8.062  21.193  0.00  0.00    +0.000 NA
ATOM      8  C   UNL     1       1.617   7.787  20.103  0.00  0.00    +0.000 A 
ATOM      9  C   UNL     1       2.355   6.617  19.760  0.00  0.00    +0.000 A 
ATOM     10  H   UNL     1       2.835   8.595  17.274  0.00  0.00    +0.000 HD
ENDROOT
BRANCH   1  14
ATOM     11  C   UNL     1       5.339   4.418  15.902  0.00  0.00    +0.000 A 
ATOM     12  C   UNL     1       4.342   3.842  16.689  0.00  0.00    +0.000 A 
ATOM     13  C   UNL     1       3.555   4.634  17.535  0.00  0.00    +0.000 A 
ATOM     14  C   UNL     1       3.775   6.014  17.634  0.00  0.00    +0.000 A 
ATOM     15  C   UNL     1       4.812   6.569  16.872  0.00  0.00    +0.000 A 
ATOM     16  C   UNL     1       5.577   5.785  16.001  0.00  0.00    +0.000 A 
BRANCH  11  18
ATOM     17  C   UNL     1       6.208   3.950  13.755  0.00  0.00    +0.000 C 
ATOM     18  O   UNL     1       6.032   3.547  15.108  0.00  0.00    +0.000 OA
ENDBRANCH  11  18
ENDBRANCH   1  14
BRANCH   9  19
ATOM     19  C   UNL     1       2.418   5.385  20.616  0.00  0.00    +0.000 C 
BRANCH  19  20
ATOM     20  C   UNL     1       1.200   4.468  20.462  0.00  0.00    +0.000 C 
BRANCH  20  21
ATOM     21  C   UNL     1       1.536   2.993  20.653  0.00  0.00    +0.000 C 
ATOM     22 CL   UNL     1       1.440   2.077  19.129  0.00  0.00    +0.000 Cl
ENDBRANCH  20  21
ENDBRANCH  19  20
ENDBRANCH   9  19
TORSDOF 5
ENDMDL
MODEL 7
REMARK VINA RESULT:      -7.0      3.022      6.261
REMARK  Name = 
REMARK  6 active torsions:
REMARK  status: ('A' for Active; 'I' for Inactive)
REMARK    1  A    between atoms: C_1  and  O_2
REMARK    2  A    between atoms: O_2  and  C_3
REMARK    3  A    between atoms: C_6  and  C_7
REMARK    4  A    between atoms: C_15  and  C_16
REMARK    5  A    between atoms: C_16  and  C_17
REMARK    6  A    between atoms: C_17  and  C_18
REMARK                            x       y       z     vdW  Elec       q    Type
REMARK                         _______ _______ _______ _____ _____    ______ ____
ROOT
ATOM      1  C   UNL     1       2.939   6.804  18.463  0.00  0.00    +0.000 A 
ATOM      2  N   UNL     1       2.593   8.089  18.082  0.00  0.00    +0.000 N 
ATOM      3  C   UNL     1       1.821   8.688  19.030  0.00  0.00    +0.000 A 
ATOM      4  N   UNL     1       1.296   9.929  18.955  0.00  0.00    +0.000 NA
ATOM      5  C   UNL     1       0.554  10.206  20.053  0.00  0.00    +0.000 A 
ATOM      6  C   UNL     1       0.369   9.322  21.110  0.00  0.00    +0.000 A 
ATOM      7  N   UNL     1       0.915   8.084  21.169  0.00  0.00    +0.000 NA
ATOM      8  C   UNL     1       1.660   7.782  20.070  0.00  0.00    +0.000 A 
ATOM      9  C   UNL     1       2.373   6.595  19.730  0.00  0.00    +0.000 A 
ATOM     10  H   UNL     1       2.839   8.531  17.208  0.00  0.00    +0.000 HD
ENDROOT
BRANCH   1  14
ATOM     11  C   UNL     1       5.334   4.264  15.958  0.00  0.00    +0.000 A 
ATOM     12  C   UNL     1       5.545   5.643  15.975  0.00  0.00    +0.000 A 
ATOM     13  C   UNL     1       4.769   6.473  16.795  0.00  0.00    +0.000 A 
ATOM     14  C   UNL     1       3.744   5.940  17.587  0.00  0.00    +0.000 A 
ATOM     15  C   UNL     1       3.514   4.560  17.522  0.00  0.00    +0.000 A 
ATOM     16  C   UNL     1       4.311   3.724  16.730  0.00  0.00    +0.000 A 
BRANCH  11  18
ATOM     17  C   UNL     1       6.143   3.946  13.761  0.00  0.00    +0.000 C 
ATOM     18  O   UNL     1       6.161   3.558  15.130  0.00  0.00    +0.000 OA
ENDBRANCH  11  18
ENDBRANCH   1  14
BRANCH   9  19
ATOM     19  C   UNL     1       2.432   5.374  20.602  0.00  0.00    +0.000 C 
BRANCH  19  20
ATOM     20  C   UNL     1       1.179   4.496  20.512  0.00  0.00    +0.000 C 
BRANCH  20  21
ATOM     21  C   UNL     1       1.485   3.008  20.634  0.00  0.00    +0.000 C 
ATOM     22 CL   UNL     1       3.236   2.679  20.655  0.00  0.00    +0.000 Cl
ENDBRANCH  20  21
ENDBRANCH  19  20
ENDBRANCH   9  19
TORSDOF 5
ENDMDL
MODEL 8
REMARK VINA RESULT:      -7.0      3.795      5.221
REMARK  Name = 
REMARK  6 active torsions:
REMARK  status: ('A' for Active; 'I' for Inactive)
REMARK    1  A    between atoms: C_1  and  O_2
REMARK    2  A    between atoms: O_2  and  C_3
REMARK    3  A    between atoms: C_6  and  C_7
REMARK    4  A    between atoms: C_15  and  C_16
REMARK    5  A    between atoms: C_16  and  C_17
REMARK    6  A    between atoms: C_17  and  C_18
REMARK                            x       y       z     vdW  Elec       q    Type
REMARK                         _______ _______ _______ _____ _____    ______ ____
ROOT
ATOM      1  C   UNL     1       5.029   4.167  16.001  0.00  0.00    +0.000 A 
ATOM      2  N   UNL     1       4.951   3.551  14.764  0.00  0.00    +0.000 N 
ATOM      3  C   UNL     1       5.952   3.975  13.944  0.00  0.00    +0.000 A 
ATOM      4  N   UNL     1       6.144   3.588  12.665  0.00  0.00    +0.000 NA
ATOM      5  C   UNL     1       7.212   4.221  12.126  0.00  0.00    +0.000 A 
ATOM      6  C   UNL     1       7.999   5.141  12.810  0.00  0.00    +0.000 A 
ATOM      7  N   UNL     1       7.794   5.506  14.098  0.00  0.00    +0.000 NA
ATOM      8  C   UNL     1       6.718   4.886  14.658  0.00  0.00    +0.000 A 
ATOM      9  C   UNL     1       6.154   5.004  15.962  0.00  0.00    +0.000 A 
ATOM     10  H   UNL     1       4.237   2.898  14.475  0.00  0.00    +0.000 HD
ENDROOT
BRANCH   1  14
ATOM     11  C   UNL     1       2.078   3.365  19.019  0.00  0.00    +0.000 A 
ATOM     12  C   UNL     1       2.321   4.672  18.597  0.00  0.00    +0.000 A 
ATOM     13  C   UNL     1       3.278   4.936  17.609  0.00  0.00    +0.000 A 
ATOM     14  C   UNL     1       4.035   3.898  17.051  0.00  0.00    +0.000 A 
ATOM     15  C   UNL     1       3.813   2.597  17.521  0.00  0.00    +0.000 A 
ATOM     16  C   UNL     1       2.833   2.327  18.484  0.00  0.00    +0.000 A 
BRANCH  11  18
ATOM     17  C   UNL     1       1.576   3.202  21.323  0.00  0.00    +0.000 C 
ATOM     18  O   UNL     1       1.112   3.231  19.978  0.00  0.00    +0.000 OA
ENDBRANCH  11  18
ENDBRANCH   1  14
BRANCH   9  19
ATOM     19  C   UNL     1       6.699   5.907  17.032  0.00  0.00    +0.000 C 
BRANCH  19  20
ATOM     20  C   UNL     1       7.403   5.156  18.167  0.00  0.00    +0.000 C 
BRANCH  20  21
ATOM     21  C   UNL     1       8.028   6.088  19.200  0.00  0.00    +0.000 C 
ATOM     22 CL   UNL     1       8.345   7.711  18.538  0.00  0.00    +0.000 Cl
ENDBRANCH  20  21
ENDBRANCH  19  20
ENDBRANCH   9  19
TORSDOF 5
ENDMDL
MODEL 9
REMARK VINA RESULT:      -6.9      3.703      6.751
REMARK  Name = 
REMARK  6 active torsions:
REMARK  status: ('A' for Active; 'I' for Inactive)
REMARK    1  A    between atoms: C_1  and  O_2
REMARK    2  A    between atoms: O_2  and  C_3
REMARK    3  A    between atoms: C_6  and  C_7
REMARK    4  A    between atoms: C_15  and  C_16
REMARK    5  A    between atoms: C_16  and  C_17
REMARK    6  A    between atoms: C_17  and  C_18
REMARK                            x       y       z     vdW  Elec       q    Type
REMARK                         _______ _______ _______ _____ _____    ______ ____
ROOT
ATOM      1  C   UNL     1       4.328   4.172  18.245  0.00  0.00    +0.000 A 
ATOM      2  N   UNL     1       4.596   3.188  19.181  0.00  0.00    +0.000 N 
ATOM      3  C   UNL     1       3.573   3.072  20.072  0.00  0.00    +0.000 A 
ATOM      4  N   UNL     1       3.532   2.225  21.123  0.00  0.00    +0.000 NA
ATOM      5  C   UNL     1       2.386   2.385  21.826  0.00  0.00    +0.000 A 
ATOM      6  C   UNL     1       1.392   3.299  21.496  0.00  0.00    +0.000 A 
ATOM      7  N   UNL     1       1.449   4.132  20.429  0.00  0.00    +0.000 NA
ATOM      8  C   UNL     1       2.599   3.993  19.712  0.00  0.00    +0.000 A 
ATOM      9  C   UNL     1       3.058   4.683  18.552  0.00  0.00    +0.000 A 
ATOM     10  H   UNL     1       5.443   2.641  19.236  0.00  0.00    +0.000 HD
ENDROOT
BRANCH   1  14
ATOM     11  C   UNL     1       7.130   5.214  15.158  0.00  0.00    +0.000 A 
ATOM     12  C   UNL     1       6.113   4.292  14.909  0.00  0.00    +0.000 A 
ATOM     13  C   UNL     1       5.195   3.955  15.911  0.00  0.00    +0.000 A 
ATOM     14  C   UNL     1       5.299   4.509  17.194  0.00  0.00    +0.000 A 
ATOM     15  C   UNL     1       6.355   5.396  17.442  0.00  0.00    +0.000 A 
ATOM     16  C   UNL     1       7.253   5.760  16.431  0.00  0.00    +0.000 A 
BRANCH  11  18
ATOM     17  C   UNL     1       7.541   4.938  12.848  0.00  0.00    +0.000 C 
ATOM     18  O   UNL     1       7.955   5.472  14.099  0.00  0.00    +0.000 OA
ENDBRANCH  11  18
ENDBRANCH   1  14
BRANCH   9  19
ATOM     19  C   UNL     1       2.284   5.769  17.862  0.00  0.00    +0.000 C 
BRANCH  19  20
ATOM     20  C   UNL     1       2.932   7.153  17.979  0.00  0.00    +0.000 C 
BRANCH  20  21
ATOM     21  C   UNL     1       2.037   8.174  18.671  0.00  0.00    +0.000 C 
ATOM     22 CL   UNL     1       2.062   9.756  17.854  0.00  0.00    +0.000 Cl
ENDBRANCH  20  21
ENDBRANCH  19  20
ENDBRANCH   9  19
TORSDOF 5
ENDMDL
