MODEL 1
REMARK VINA RESULT:      -8.0      0.000      0.000
REMARK  Name = 
REMARK  0 active torsions:
REMARK  status: ('A' for Active; 'I' for Inactive)
REMARK                            x       y       z     vdW  Elec       q    Type
REMARK                         _______ _______ _______ _____ _____    ______ ____
ROOT
ATOM      1  O   UNL     1      -0.980   9.856  17.110  0.00  0.00    +0.000 OA
ATOM      2  C   UNL     1      -0.600  10.003  18.271  0.00  0.00    +0.000 C 
ATOM      3  N   UNL     1      -1.481  10.418  19.278  0.00  0.00    +0.000 N 
ATOM      4  C   UNL     1      -1.152  11.632  19.968  0.00  0.00    +0.000 A 
ATOM      5  C   UNL     1      -2.064  12.684  19.875  0.00  0.00    +0.000 A 
ATOM      6  C   UNL     1      -1.874  13.846  20.628  0.00  0.00    +0.000 A 
ATOM      7  C   UNL     1      -0.763  13.974  21.462  0.00  0.00    +0.000 A 
ATOM      8  C   UNL     1       0.153  12.929  21.563  0.00  0.00    +0.000 A 
ATOM      9  C   UNL     1      -0.044  11.750  20.830  0.00  0.00    +0.000 A 
ATOM     10  C   UNL     1       0.833  10.593  21.130  0.00  0.00    +0.000 C 
ATOM     11  O   UNL     1       1.285  10.474  22.265  0.00  0.00    +0.000 OA
ATOM     12  N   UNL     1       0.970   9.621  20.155  0.00  0.00    +0.000 N 
ATOM     13  C   UNL     1       0.997   8.233  20.599  0.00  0.00    +0.000 C 
ATOM     14  C   UNL     1       1.963   7.519  19.759  0.00  0.00    +0.000 A 
ATOM     15  N   UNL     1       2.660   6.420  20.162  0.00  0.00    +0.000 N 
ATOM     16  C   UNL     1       3.572   6.072  19.194  0.00  0.00    +0.000 A 
ATOM     17  C   UNL     1       4.531   5.054  19.199  0.00  0.00    +0.000 A 
ATOM     18  C   UNL     1       5.372   4.954  18.090  0.00  0.00    +0.000 A 
ATOM     19  C   UNL     1       5.248   5.833  17.017  0.00  0.00    +0.000 A 
ATOM     20  C   UNL     1       4.268   6.835  17.016  0.00  0.00    +0.000 A 
ATOM     21  C   UNL     1       3.408   6.963  18.127  0.00  0.00    +0.000 A 
ATOM     22  C   UNL     1       2.354   7.857  18.484  0.00  0.00    +0.000 A 
ATOM     23  C   UNL     1       1.772   9.039  17.772  0.00  0.00    +0.000 C 
ATOM     24  C   UNL     1       0.882   9.927  18.698  0.00  0.00    +0.000 C 
ATOM     25  H   UNL     1      -1.399   9.685  19.980  0.00  0.00    +0.000 HD
ATOM     26  H   UNL     1       2.580   5.963  21.060  0.00  0.00    +0.000 HD
ENDROOT
TORSDOF 0
ENDMDL
MODEL 2
REMARK VINA RESULT:      -7.8      2.513      7.439
REMARK  Name = 
REMARK  0 active torsions:
REMARK  status: ('A' for Active; 'I' for Inactive)
REMARK                            x       y       z     vdW  Elec       q    Type
REMARK                         _______ _______ _______ _____ _____    ______ ____
ROOT
ATOM      1  O   UNL     1       4.506   7.338  17.242  0.00  0.00    +0.000 OA
ATOM      2  C   UNL     1       3.818   6.677  18.020  0.00  0.00    +0.000 C 
ATOM      3  N   UNL     1       4.316   5.515  18.625  0.00  0.00    +0.000 N 
ATOM      4  C   UNL     1       3.600   4.298  18.378  0.00  0.00    +0.000 A 
ATOM      5  C   UNL     1       4.293   3.272  17.733  0.00  0.00    +0.000 A 
ATOM      6  C   UNL     1       3.701   2.014  17.579  0.00  0.00    +0.000 A 
ATOM      7  C   UNL     1       2.409   1.779  18.049  0.00  0.00    +0.000 A 
ATOM      8  C   UNL     1       1.709   2.796  18.695  0.00  0.00    +0.000 A 
ATOM      9  C   UNL     1       2.305   4.053  18.875  0.00  0.00    +0.000 A 
ATOM     10  C   UNL     1       1.612   5.029  19.750  0.00  0.00    +0.000 C 
ATOM     11  O   UNL     1       0.913   4.608  20.666  0.00  0.00    +0.000 OA
ATOM     12  N   UNL     1       1.915   6.368  19.583  0.00  0.00    +0.000 N 
ATOM     13  C   UNL     1       2.034   7.179  20.788  0.00  0.00    +0.000 C 
ATOM     14  C   UNL     1       1.468   8.498  20.493  0.00  0.00    +0.000 A 
ATOM     15  N   UNL     1       0.907   9.316  21.427  0.00  0.00    +0.000 N 
ATOM     16  C   UNL     1       0.358  10.414  20.808  0.00  0.00    +0.000 A 
ATOM     17  C   UNL     1      -0.363  11.478  21.359  0.00  0.00    +0.000 A 
ATOM     18  C   UNL     1      -0.855  12.446  20.483  0.00  0.00    +0.000 A 
ATOM     19  C   UNL     1      -0.624  12.354  19.112  0.00  0.00    +0.000 A 
ATOM     20  C   UNL     1       0.118  11.293  18.577  0.00  0.00    +0.000 A 
ATOM     21  C   UNL     1       0.622  10.296  19.439  0.00  0.00    +0.000 A 
ATOM     22  C   UNL     1       1.363   9.090  19.255  0.00  0.00    +0.000 A 
ATOM     23  C   UNL     1       1.878   8.421  18.018  0.00  0.00    +0.000 C 
ATOM     24  C   UNL     1       2.317   6.943  18.267  0.00  0.00    +0.000 C 
ATOM     25  H   UNL     1       4.194   5.696  19.619  0.00  0.00    +0.000 HD
ATOM     26  H   UNL     1       0.837   9.125  22.417  0.00  0.00    +0.000 HD
ENDROOT
TORSDOF 0
ENDMDL
MODEL 3
REMARK VINA RESULT:      -7.8      1.380      3.022
REMARK  Name = 
REMARK  0 active torsions:
REMARK  status: ('A' for Active; 'I' for Inactive)
REMARK                            x       y       z     vdW  Elec       q    Type
REMARK                         _______ _______ _______ _____ _____    ______ ____
ROOT
ATOM      1  O   UNL     1       0.721  10.731  22.354  0.00  0.00    +0.000 OA
ATOM      2  C   UNL     1       0.273  10.775  21.208  0.00  0.00    +0.000 C 
ATOM      3  N   UNL     1      -0.204  11.973  20.659  0.00  0.00    +0.000 N 
ATOM      4  C   UNL     1      -1.572  11.989  20.229  0.00  0.00    +0.000 A 
ATOM      5  C   UNL     1      -2.426  12.896  20.859  0.00  0.00    +0.000 A 
ATOM      6  C   UNL     1      -3.736  13.061  20.401  0.00  0.00    +0.000 A 
ATOM      7  C   UNL     1      -4.208  12.307  19.326  0.00  0.00    +0.000 A 
ATOM      8  C   UNL     1      -3.364  11.400  18.690  0.00  0.00    +0.000 A 
ATOM      9  C   UNL     1      -2.041  11.247  19.127  0.00  0.00    +0.000 A 
ATOM     10  C   UNL     1      -1.124  10.436  18.292  0.00  0.00    +0.000 C 
ATOM     11  O   UNL     1      -1.320  10.382  17.082  0.00  0.00    +0.000 OA
ATOM     12  N   UNL     1      -0.001   9.904  18.901  0.00  0.00    +0.000 N 
ATOM     13  C   UNL     1       1.240   9.920  18.137  0.00  0.00    +0.000 C 
ATOM     14  C   UNL     1       1.957   8.676  18.431  0.00  0.00    +0.000 A 
ATOM     15  N   UNL     1       2.823   8.071  17.571  0.00  0.00    +0.000 N 
ATOM     16  C   UNL     1       3.222   6.863  18.092  0.00  0.00    +0.000 A 
ATOM     17  C   UNL     1       4.055   5.886  17.538  0.00  0.00    +0.000 A 
ATOM     18  C   UNL     1       4.255   4.717  18.272  0.00  0.00    +0.000 A 
ATOM     19  C   UNL     1       3.654   4.541  19.516  0.00  0.00    +0.000 A 
ATOM     20  C   UNL     1       2.839   5.538  20.070  0.00  0.00    +0.000 A 
ATOM     21  C   UNL     1       2.614   6.728  19.346  0.00  0.00    +0.000 A 
ATOM     22  C   UNL     1       1.840   7.907  19.567  0.00  0.00    +0.000 A 
ATOM     23  C   UNL     1       0.941   8.306  20.696  0.00  0.00    +0.000 C 
ATOM     24  C   UNL     1       0.026   9.521  20.342  0.00  0.00    +0.000 C 
ATOM     25  H   UNL     1       0.342  12.074  19.806  0.00  0.00    +0.000 HD
ATOM     26  H   UNL     1       3.087   8.412  16.658  0.00  0.00    +0.000 HD
ENDROOT
TORSDOF 0
ENDMDL
MODEL 4
REMARK VINA RESULT:      -7.7      1.285      2.919
REMARK  Name = 
REMARK  0 active torsions:
REMARK  status: ('A' for Active; 'I' for Inactive)
REMARK                            x       y       z     vdW  Elec       q    Type
REMARK                         _______ _______ _______ _____ _____    ______ ____
ROOT
ATOM      1  O   UNL     1       1.507   9.705  22.767  0.00  0.00    +0.000 OA
ATOM      2  C   UNL     1       1.081   9.964  21.641  0.00  0.00    +0.000 C 
ATOM      3  N   UNL     1       0.826  11.284  21.247  0.00  0.00    +0.000 N 
ATOM      4  C   UNL     1      -0.515  11.592  20.843  0.00  0.00    +0.000 A 
ATOM      5  C   UNL     1      -1.200  12.552  21.590  0.00  0.00    +0.000 A 
ATOM      6  C   UNL     1      -2.459  12.997  21.175  0.00  0.00    +0.000 A 
ATOM      7  C   UNL     1      -3.049  12.474  20.025  0.00  0.00    +0.000 A 
ATOM      8  C   UNL     1      -2.374  11.516  19.272  0.00  0.00    +0.000 A 
ATOM      9  C   UNL     1      -1.101  11.082  19.667  0.00  0.00    +0.000 A 
ATOM     10  C   UNL     1      -0.336  10.229  18.727  0.00  0.00    +0.000 C 
ATOM     11  O   UNL     1      -0.531  10.357  17.522  0.00  0.00    +0.000 OA
ATOM     12  N   UNL     1       0.672   9.440  19.251  0.00  0.00    +0.000 N 
ATOM     13  C   UNL     1       1.902   9.330  18.476  0.00  0.00    +0.000 C 
ATOM     14  C   UNL     1       2.387   7.953  18.608  0.00  0.00    +0.000 A 
ATOM     15  N   UNL     1       3.138   7.314  17.668  0.00  0.00    +0.000 N 
ATOM     16  C   UNL     1       3.316   6.001  18.035  0.00  0.00    +0.000 A 
ATOM     17  C   UNL     1       3.967   4.967  17.355  0.00  0.00    +0.000 A 
ATOM     18  C   UNL     1       3.954   3.701  17.940  0.00  0.00    +0.000 A 
ATOM     19  C   UNL     1       3.323   3.484  19.163  0.00  0.00    +0.000 A 
ATOM     20  C   UNL     1       2.694   4.535  19.844  0.00  0.00    +0.000 A 
ATOM     21  C   UNL     1       2.685   5.824  19.272  0.00  0.00    +0.000 A 
ATOM     22  C   UNL     1       2.129   7.085  19.644  0.00  0.00    +0.000 A 
ATOM     23  C   UNL     1       1.308   7.496  20.827  0.00  0.00    +0.000 C 
ATOM     24  C   UNL     1       0.622   8.887  20.635  0.00  0.00    +0.000 C 
ATOM     25  H   UNL     1       1.386  11.390  20.404  0.00  0.00    +0.000 HD
ATOM     26  H   UNL     1       3.464   7.711  16.798  0.00  0.00    +0.000 HD
ENDROOT
TORSDOF 0
ENDMDL
MODEL 5
REMARK VINA RESULT:      -7.6      1.535      3.126
REMARK  Name = 
REMARK  0 active torsions:
REMARK  status: ('A' for Active; 'I' for Inactive)
REMARK                            x       y       z     vdW  Elec       q    Type
REMARK                         _______ _______ _______ _____ _____    ______ ____
ROOT
ATOM      1  O   UNL     1       0.332  10.026  23.445  0.00  0.00    +0.000 OA
ATOM      2  C   UNL     1       0.081  10.299  22.271  0.00  0.00    +0.000 C 
ATOM      3  N   UNL     1      -0.115  11.624  21.859  0.00  0.00    +0.000 N 
ATOM      4  C   UNL     1      -1.380  11.937  21.261  0.00  0.00    +0.000 A 
ATOM      5  C   UNL     1      -2.172  12.887  21.908  0.00  0.00    +0.000 A 
ATOM      6  C   UNL     1      -3.354  13.338  21.312  0.00  0.00    +0.000 A 
ATOM      7  C   UNL     1      -3.763  12.829  20.080  0.00  0.00    +0.000 A 
ATOM      8  C   UNL     1      -2.979  11.881  19.425  0.00  0.00    +0.000 A 
ATOM      9  C   UNL     1      -1.780  11.442  20.004  0.00  0.00    +0.000 A 
ATOM     10  C   UNL     1      -0.879  10.602  19.179  0.00  0.00    +0.000 C 
ATOM     11  O   UNL     1      -0.890  10.745  17.961  0.00  0.00    +0.000 OA
ATOM     12  N   UNL     1       0.039   9.806  19.840  0.00  0.00    +0.000 N 
ATOM     13  C   UNL     1       1.372   9.706  19.259  0.00  0.00    +0.000 C 
ATOM     14  C   UNL     1       1.835   8.327  19.445  0.00  0.00    +0.000 A 
ATOM     15  N   UNL     1       2.721   7.701  18.622  0.00  0.00    +0.000 N 
ATOM     16  C   UNL     1       2.844   6.383  18.995  0.00  0.00    +0.000 A 
ATOM     17  C   UNL     1       3.592   5.358  18.408  0.00  0.00    +0.000 A 
ATOM     18  C   UNL     1       3.494   4.084  18.969  0.00  0.00    +0.000 A 
ATOM     19  C   UNL     1       2.686   3.852  20.079  0.00  0.00    +0.000 A 
ATOM     20  C   UNL     1       1.958   4.894  20.670  0.00  0.00    +0.000 A 
ATOM     21  C   UNL     1       2.034   6.191  20.120  0.00  0.00    +0.000 A 
ATOM     22  C   UNL     1       1.425   7.446  20.419  0.00  0.00    +0.000 A 
ATOM     23  C   UNL     1       0.433   7.842  21.469  0.00  0.00    +0.000 C 
ATOM     24  C   UNL     1      -0.219   9.235  21.193  0.00  0.00    +0.000 C 
ATOM     25  H   UNL     1       0.566  11.742  21.113  0.00  0.00    +0.000 HD
ATOM     26  H   UNL     1       3.174   8.109  17.817  0.00  0.00    +0.000 HD
ENDROOT
TORSDOF 0
ENDMDL
MODEL 6
REMARK VINA RESULT:      -7.5      4.174      6.809
REMARK  Name = 
REMARK  0 active torsions:
REMARK  status: ('A' for Active; 'I' for Inactive)
REMARK                            x       y       z     vdW  Elec       q    Type
REMARK                         _______ _______ _______ _____ _____    ______ ____
ROOT
ATOM      1  O   UNL     1       3.856   2.498  18.582  0.00  0.00    +0.000 OA
ATOM      2  C   UNL     1       3.973   3.722  18.520  0.00  0.00    +0.000 C 
ATOM      3  N   UNL     1       4.041   4.506  19.679  0.00  0.00    +0.000 N 
ATOM      4  C   UNL     1       3.034   5.514  19.840  0.00  0.00    +0.000 A 
ATOM      5  C   UNL     1       2.197   5.404  20.953  0.00  0.00    +0.000 A 
ATOM      6  C   UNL     1       1.282   6.420  21.245  0.00  0.00    +0.000 A 
ATOM      7  C   UNL     1       1.182   7.540  20.419  0.00  0.00    +0.000 A 
ATOM      8  C   UNL     1       2.013   7.659  19.307  0.00  0.00    +0.000 A 
ATOM      9  C   UNL     1       2.950   6.656  19.021  0.00  0.00    +0.000 A 
ATOM     10  C   UNL     1       3.951   6.925  17.961  0.00  0.00    +0.000 C 
ATOM     11  O   UNL     1       4.296   8.085  17.755  0.00  0.00    +0.000 OA
ATOM     12  N   UNL     1       4.560   5.837  17.362  0.00  0.00    +0.000 N 
ATOM     13  C   UNL     1       5.984   5.948  17.071  0.00  0.00    +0.000 C 
ATOM     14  C   UNL     1       6.228   5.278  15.790  0.00  0.00    +0.000 A 
ATOM     15  N   UNL     1       7.238   5.605  14.937  0.00  0.00    +0.000 N 
ATOM     16  C   UNL     1       7.112   4.881  13.775  0.00  0.00    +0.000 A 
ATOM     17  C   UNL     1       7.882   4.929  12.609  0.00  0.00    +0.000 A 
ATOM     18  C   UNL     1       7.497   4.109  11.547  0.00  0.00    +0.000 A 
ATOM     19  C   UNL     1       6.392   3.269  11.657  0.00  0.00    +0.000 A 
ATOM     20  C   UNL     1       5.642   3.216  12.840  0.00  0.00    +0.000 A 
ATOM     21  C   UNL     1       6.004   4.039  13.927  0.00  0.00    +0.000 A 
ATOM     22  C   UNL     1       5.472   4.274  15.229  0.00  0.00    +0.000 A 
ATOM     23  C   UNL     1       4.274   3.709  15.929  0.00  0.00    +0.000 C 
ATOM     24  C   UNL     1       3.876   4.521  17.202  0.00  0.00    +0.000 C 
ATOM     25  H   UNL     1       4.912   5.020  19.565  0.00  0.00    +0.000 HD
ATOM     26  H   UNL     1       7.937   6.318  15.091  0.00  0.00    +0.000 HD
ENDROOT
TORSDOF 0
ENDMDL
MODEL 7
REMARK VINA RESULT:      -7.4      5.571      7.836
REMARK  Name = 
REMARK  0 active torsions:
REMARK  status: ('A' for Active; 'I' for Inactive)
REMARK                            x       y       z     vdW  Elec       q    Type
REMARK                         _______ _______ _______ _____ _____    ______ ____
ROOT
ATOM      1  O   UNL     1       4.376   0.936  17.860  0.00  0.00    +0.000 OA
ATOM      2  C   UNL     1       4.364   2.125  18.180  0.00  0.00    +0.000 C 
ATOM      3  N   UNL     1       4.354   2.515  19.526  0.00  0.00    +0.000 N 
ATOM      4  C   UNL     1       3.247   3.317  19.960  0.00  0.00    +0.000 A 
ATOM      5  C   UNL     1       2.431   2.786  20.962  0.00  0.00    +0.000 A 
ATOM      6  C   UNL     1       1.416   3.564  21.526  0.00  0.00    +0.000 A 
ATOM      7  C   UNL     1       1.196   4.867  21.082  0.00  0.00    +0.000 A 
ATOM      8  C   UNL     1       2.005   5.407  20.084  0.00  0.00    +0.000 A 
ATOM      9  C   UNL     1       3.041   4.642  19.530  0.00  0.00    +0.000 A 
ATOM     10  C   UNL     1       4.003   5.325  18.633  0.00  0.00    +0.000 C 
ATOM     11  O   UNL     1       4.224   6.520  18.804  0.00  0.00    +0.000 OA
ATOM     12  N   UNL     1       4.720   4.542  17.746  0.00  0.00    +0.000 N 
ATOM     13  C   UNL     1       6.123   4.881  17.543  0.00  0.00    +0.000 C 
ATOM     14  C   UNL     1       6.431   4.667  16.126  0.00  0.00    +0.000 A 
ATOM     15  N   UNL     1       7.396   5.342  15.444  0.00  0.00    +0.000 N 
ATOM     16  C   UNL     1       7.342   5.003  14.112  0.00  0.00    +0.000 A 
ATOM     17  C   UNL     1       8.098   5.486  13.039  0.00  0.00    +0.000 A 
ATOM     18  C   UNL     1       7.797   4.999  11.767  0.00  0.00    +0.000 A 
ATOM     19  C   UNL     1       6.786   4.059  11.581  0.00  0.00    +0.000 A 
ATOM     20  C   UNL     1       6.051   3.568  12.669  0.00  0.00    +0.000 A 
ATOM     21  C   UNL     1       6.330   4.048  13.966  0.00  0.00    +0.000 A 
ATOM     22  C   UNL     1       5.782   3.814  15.263  0.00  0.00    +0.000 A 
ATOM     23  C   UNL     1       4.653   2.943  15.720  0.00  0.00    +0.000 C 
ATOM     24  C   UNL     1       4.177   3.278  17.170  0.00  0.00    +0.000 C 
ATOM     25  H   UNL     1       5.166   3.125  19.600  0.00  0.00    +0.000 HD
ATOM     26  H   UNL     1       8.018   6.039  15.829  0.00  0.00    +0.000 HD
ENDROOT
TORSDOF 0
ENDMDL
MODEL 8
REMARK VINA RESULT:      -7.3      2.347      7.534
REMARK  Name = 
REMARK  0 active torsions:
REMARK  status: ('A' for Active; 'I' for Inactive)
REMARK                            x       y       z     vdW  Elec       q    Type
REMARK                         _______ _______ _______ _____ _____    ______ ____
ROOT
ATOM      1  O   UNL     1       1.362   4.160  19.402  0.00  0.00    +0.000 OA
ATOM      2  C   UNL     1       2.037   5.009  18.820  0.00  0.00    +0.000 C 
ATOM      3  N   UNL     1       2.529   4.787  17.527  0.00  0.00    +0.000 N 
ATOM      4  C   UNL     1       3.952   4.841  17.357  0.00  0.00    +0.000 A 
ATOM      5  C   UNL     1       4.585   3.679  16.910  0.00  0.00    +0.000 A 
ATOM      6  C   UNL     1       5.946   3.698  16.595  0.00  0.00    +0.000 A 
ATOM      7  C   UNL     1       6.690   4.869  16.744  0.00  0.00    +0.000 A 
ATOM      8  C   UNL     1       6.068   6.035  17.189  0.00  0.00    +0.000 A 
ATOM      9  C   UNL     1       4.697   6.030  17.483  0.00  0.00    +0.000 A 
ATOM     10  C   UNL     1       4.040   7.333  17.743  0.00  0.00    +0.000 C 
ATOM     11  O   UNL     1       4.491   8.340  17.205  0.00  0.00    +0.000 OA
ATOM     12  N   UNL     1       2.857   7.323  18.459  0.00  0.00    +0.000 N 
ATOM     13  C   UNL     1       1.807   8.235  18.022  0.00  0.00    +0.000 C 
ATOM     14  C   UNL     1       1.138   8.749  19.221  0.00  0.00    +0.000 A 
ATOM     15  N   UNL     1       0.521   9.961  19.291  0.00  0.00    +0.000 N 
ATOM     16  C   UNL     1       0.111  10.195  20.582  0.00  0.00    +0.000 A 
ATOM     17  C   UNL     1      -0.511  11.322  21.129  0.00  0.00    +0.000 A 
ATOM     18  C   UNL     1      -0.775  11.313  22.498  0.00  0.00    +0.000 A 
ATOM     19  C   UNL     1      -0.439  10.214  23.285  0.00  0.00    +0.000 A 
ATOM     20  C   UNL     1       0.164   9.082  22.720  0.00  0.00    +0.000 A 
ATOM     21  C   UNL     1       0.449   9.066  21.338  0.00  0.00    +0.000 A 
ATOM     22  C   UNL     1       1.070   8.136  20.451  0.00  0.00    +0.000 A 
ATOM     23  C   UNL     1       1.677   6.789  20.693  0.00  0.00    +0.000 C 
ATOM     24  C   UNL     1       2.554   6.297  19.498  0.00  0.00    +0.000 C 
ATOM     25  H   UNL     1       2.170   5.579  16.999  0.00  0.00    +0.000 HD
ATOM     26  H   UNL     1       0.431  10.626  18.536  0.00  0.00    +0.000 HD
ENDROOT
TORSDOF 0
ENDMDL
MODEL 9
REMARK VINA RESULT:      -7.2      2.670      4.990
REMARK  Name = 
REMARK  0 active torsions:
REMARK  status: ('A' for Active; 'I' for Inactive)
REMARK                            x       y       z     vdW  Elec       q    Type
REMARK                         _______ _______ _______ _____ _____    ______ ____
ROOT
ATOM      1  O   UNL     1      -0.518  13.352  23.488  0.00  0.00    +0.000 OA
ATOM      2  C   UNL     1      -1.334  13.272  22.569  0.00  0.00    +0.000 C 
ATOM      3  N   UNL     1      -2.150  14.358  22.225  0.00  0.00    +0.000 N 
ATOM      4  C   UNL     1      -3.567  14.152  22.298  0.00  0.00    +0.000 A 
ATOM      5  C   UNL     1      -4.282  14.954  23.190  0.00  0.00    +0.000 A 
ATOM      6  C   UNL     1      -5.678  14.901  23.217  0.00  0.00    +0.000 A 
ATOM      7  C   UNL     1      -6.369  14.034  22.370  0.00  0.00    +0.000 A 
ATOM      8  C   UNL     1      -5.665  13.230  21.476  0.00  0.00    +0.000 A 
ATOM      9  C   UNL     1      -4.266  13.296  21.425  0.00  0.00    +0.000 A 
ATOM     10  C   UNL     1      -3.579  12.587  20.319  0.00  0.00    +0.000 C 
ATOM     11  O   UNL     1      -4.168  12.445  19.252  0.00  0.00    +0.000 OA
ATOM     12  N   UNL     1      -2.247  12.257  20.497  0.00  0.00    +0.000 N 
ATOM     13  C   UNL     1      -1.363  12.417  19.350  0.00  0.00    +0.000 C 
ATOM     14  C   UNL     1      -0.405  11.307  19.371  0.00  0.00    +0.000 A 
ATOM     15  N   UNL     1       0.195  10.795  18.261  0.00  0.00    +0.000 N 
ATOM     16  C   UNL     1       0.931   9.686  18.605  0.00  0.00    +0.000 A 
ATOM     17  C   UNL     1       1.662   8.814  17.791  0.00  0.00    +0.000 A 
ATOM     18  C   UNL     1       2.282   7.725  18.405  0.00  0.00    +0.000 A 
ATOM     19  C   UNL     1       2.180   7.526  19.779  0.00  0.00    +0.000 A 
ATOM     20  C   UNL     1       1.462   8.419  20.586  0.00  0.00    +0.000 A 
ATOM     21  C   UNL     1       0.820   9.525  19.991  0.00  0.00    +0.000 A 
ATOM     22  C   UNL     1      -0.004  10.587  20.473  0.00  0.00    +0.000 A 
ATOM     23  C   UNL     1      -0.509  10.906  21.846  0.00  0.00    +0.000 C 
ATOM     24  C   UNL     1      -1.667  11.954  21.838  0.00  0.00    +0.000 C 
ATOM     25  H   UNL     1      -1.954  14.496  21.236  0.00  0.00    +0.000 HD
ATOM     26  H   UNL     1       0.072  11.125  17.314  0.00  0.00    +0.000 HD
ENDROOT
TORSDOF 0
ENDMDL
