MODEL 1
REMARK VINA RESULT:      -6.4      0.000      0.000
REMARK  Name = 
REMARK  9 active torsions:
REMARK  status: ('A' for Active; 'I' for Inactive)
REMARK    1  A    between atoms: C_1  and  C_2
REMARK    2  A    between atoms: C_2  and  C_3
REMARK    3  A    between atoms: C_3  and  C_4
REMARK    4  A    between atoms: C_4  and  O_5
REMARK    5  A    between atoms: O_5  and  C_6
REMARK    6  A    between atoms: C_6  and  C_8
REMARK    7  A    between atoms: C_10  and  C_11
REMARK    8  A    between atoms: C_12  and  O_13
REMARK    9  A    between atoms: C_14  and  C_15
REMARK                            x       y       z     vdW  Elec       q    Type
REMARK                         _______ _______ _______ _____ _____    ______ ____
ROOT
ATOM      1  C   UNL     1       3.759   3.698  17.477  0.00  0.00    +0.000 A 
ATOM      2  C   UNL     1       4.826   3.534  16.584  0.00  0.00    +0.000 A 
ATOM      3  C   UNL     1       5.484   4.649  16.037  0.00  0.00    +0.000 A 
ATOM      4  C   UNL     1       6.599   4.429  15.054  0.00  0.00    +0.000 C 
ATOM      5  C   UNL     1       5.051   5.933  16.403  0.00  0.00    +0.000 A 
ATOM      6  C   UNL     1       3.994   6.117  17.305  0.00  0.00    +0.000 A 
ATOM      7  C   UNL     1       3.478   7.471  17.701  0.00  0.00    +0.000 C 
ATOM      8  C   UNL     1       3.359   4.990  17.840  0.00  0.00    +0.000 A 
ENDROOT
BRANCH   1   9
ATOM      9  C   UNL     1       2.990   2.497  17.907  0.00  0.00    +0.000 C 
ATOM     10  O   UNL     1       3.494   1.438  18.239  0.00  0.00    +0.000 OA
BRANCH   9  11
ATOM     11  O   UNL     1       1.668   2.714  17.700  0.00  0.00    +0.000 OA
BRANCH  11  12
ATOM     12  C   UNL     1       0.830   2.251  18.761  0.00  0.00    +0.000 C 
BRANCH  12  13
ATOM     13  C   UNL     1       0.677   3.311  19.841  0.00  0.00    +0.000 C 
BRANCH  13  15
ATOM     14  C   UNL     1       2.396   3.740  21.640  0.00  0.00    +0.000 C 
ATOM     15  C   UNL     1       1.304   2.813  21.142  0.00  0.00    +0.000 C 
ENDBRANCH  13  15
ENDBRANCH  12  13
ENDBRANCH  11  12
ENDBRANCH   9  11
ENDBRANCH   1   9
BRANCH   5  16
ATOM     16  O   UNL     1       5.633   7.061  15.891  0.00  0.00    +0.000 OA
ATOM     17  H   UNL     1       6.325   6.816  15.258  0.00  0.00    +0.000 HD
ENDBRANCH   5  16
TORSDOF 6
ENDMDL
MODEL 2
REMARK VINA RESULT:      -6.4      1.763      2.567
REMARK  Name = 
REMARK  9 active torsions:
REMARK  status: ('A' for Active; 'I' for Inactive)
REMARK    1  A    between atoms: C_1  and  C_2
REMARK    2  A    between atoms: C_2  and  C_3
REMARK    3  A    between atoms: C_3  and  C_4
REMARK    4  A    between atoms: C_4  and  O_5
REMARK    5  A    between atoms: O_5  and  C_6
REMARK    6  A    between atoms: C_6  and  C_8
REMARK    7  A    between atoms: C_10  and  C_11
REMARK    8  A    between atoms: C_12  and  O_13
REMARK    9  A    between atoms: C_14  and  C_15
REMARK                            x       y       z     vdW  Elec       q    Type
REMARK                         _______ _______ _______ _____ _____    ______ ____
ROOT
ATOM      1  C   UNL     1       5.121   3.875  18.011  0.00  0.00    +0.000 A 
ATOM      2  C   UNL     1       5.967   4.851  18.553  0.00  0.00    +0.000 A 
ATOM      3  C   UNL     1       6.844   5.580  17.732  0.00  0.00    +0.000 A 
ATOM      4  C   UNL     1       7.761   6.592  18.359  0.00  0.00    +0.000 C 
ATOM      5  C   UNL     1       6.858   5.309  16.354  0.00  0.00    +0.000 A 
ATOM      6  C   UNL     1       6.011   4.345  15.792  0.00  0.00    +0.000 A 
ATOM      7  C   UNL     1       6.013   4.002  14.329  0.00  0.00    +0.000 C 
ATOM      8  C   UNL     1       5.141   3.638  16.630  0.00  0.00    +0.000 A 
ENDROOT
BRANCH   1   9
ATOM      9  C   UNL     1       4.324   3.019  18.934  0.00  0.00    +0.000 C 
ATOM     10  O   UNL     1       4.735   2.583  19.995  0.00  0.00    +0.000 OA
BRANCH   9  11
ATOM     11  O   UNL     1       3.164   2.667  18.329  0.00  0.00    +0.000 OA
BRANCH  11  12
ATOM     12  C   UNL     1       2.139   3.659  18.416  0.00  0.00    +0.000 C 
BRANCH  12  13
ATOM     13  C   UNL     1       0.956   3.156  19.229  0.00  0.00    +0.000 C 
BRANCH  13  15
ATOM     14  C   UNL     1       1.657   2.674  21.607  0.00  0.00    +0.000 C 
ATOM     15  C   UNL     1       1.050   3.689  20.658  0.00  0.00    +0.000 C 
ENDBRANCH  13  15
ENDBRANCH  12  13
ENDBRANCH  11  12
ENDBRANCH   9  11
ENDBRANCH   1   9
BRANCH   5  16
ATOM     16  O   UNL     1       7.704   5.966  15.502  0.00  0.00    +0.000 OA
ATOM     17  H   UNL     1       7.525   5.698  14.588  0.00  0.00    +0.000 HD
ENDBRANCH   5  16
TORSDOF 6
ENDMDL
MODEL 3
REMARK VINA RESULT:      -6.4      3.057      6.206
REMARK  Name = 
REMARK  9 active torsions:
REMARK  status: ('A' for Active; 'I' for Inactive)
REMARK    1  A    between atoms: C_1  and  C_2
REMARK    2  A    between atoms: C_2  and  C_3
REMARK    3  A    between atoms: C_3  and  C_4
REMARK    4  A    between atoms: C_4  and  O_5
REMARK    5  A    between atoms: O_5  and  C_6
REMARK    6  A    between atoms: C_6  and  C_8
REMARK    7  A    between atoms: C_10  and  C_11
REMARK    8  A    between atoms: C_12  and  O_13
REMARK    9  A    between atoms: C_14  and  C_15
REMARK                            x       y       z     vdW  Elec       q    Type
REMARK                         _______ _______ _______ _____ _____    ______ ____
ROOT
ATOM      1  C   UNL     1       6.346   4.868  15.771  0.00  0.00    +0.000 A 
ATOM      2  C   UNL     1       5.009   4.503  15.975  0.00  0.00    +0.000 A 
ATOM      3  C   UNL     1       4.447   4.518  17.263  0.00  0.00    +0.000 A 
ATOM      4  C   UNL     1       3.020   4.084  17.443  0.00  0.00    +0.000 C 
ATOM      5  C   UNL     1       5.253   4.906  18.344  0.00  0.00    +0.000 A 
ATOM      6  C   UNL     1       6.589   5.286  18.159  0.00  0.00    +0.000 A 
ATOM      7  C   UNL     1       7.497   5.679  19.290  0.00  0.00    +0.000 C 
ATOM      8  C   UNL     1       7.123   5.269  16.865  0.00  0.00    +0.000 A 
ENDROOT
BRANCH   1   9
ATOM      9  C   UNL     1       6.944   4.686  14.419  0.00  0.00    +0.000 C 
ATOM     10  O   UNL     1       7.691   5.486  13.883  0.00  0.00    +0.000 OA
BRANCH   9  11
ATOM     11  O   UNL     1       6.390   3.599  13.826  0.00  0.00    +0.000 OA
BRANCH  11  12
ATOM     12  C   UNL     1       6.498   3.596  12.401  0.00  0.00    +0.000 C 
BRANCH  12  13
ATOM     13  C   UNL     1       5.389   2.770  11.769  0.00  0.00    +0.000 C 
BRANCH  13  15
ATOM     14  C   UNL     1       3.378   3.333  10.348  0.00  0.00    +0.000 C 
ATOM     15  C   UNL     1       4.127   3.621  11.635  0.00  0.00    +0.000 C 
ENDBRANCH  13  15
ENDBRANCH  12  13
ENDBRANCH  11  12
ENDBRANCH   9  11
ENDBRANCH   1   9
BRANCH   5  16
ATOM     16  O   UNL     1       4.776   4.921  19.627  0.00  0.00    +0.000 OA
ATOM     17  H   UNL     1       3.840   5.170  19.628  0.00  0.00    +0.000 HD
ENDBRANCH   5  16
TORSDOF 6
ENDMDL
MODEL 4
REMARK VINA RESULT:      -6.4      0.591      2.270
REMARK  Name = 
REMARK  9 active torsions:
REMARK  status: ('A' for Active; 'I' for Inactive)
REMARK    1  A    between atoms: C_1  and  C_2
REMARK    2  A    between atoms: C_2  and  C_3
REMARK    3  A    between atoms: C_3  and  C_4
REMARK    4  A    between atoms: C_4  and  O_5
REMARK    5  A    between atoms: O_5  and  C_6
REMARK    6  A    between atoms: C_6  and  C_8
REMARK    7  A    between atoms: C_10  and  C_11
REMARK    8  A    between atoms: C_12  and  O_13
REMARK    9  A    between atoms: C_14  and  C_15
REMARK                            x       y       z     vdW  Elec       q    Type
REMARK                         _______ _______ _______ _____ _____    ______ ____
ROOT
ATOM      1  C   UNL     1       3.659   3.831  17.250  0.00  0.00    +0.000 A 
ATOM      2  C   UNL     1       3.213   5.105  17.624  0.00  0.00    +0.000 A 
ATOM      3  C   UNL     1       3.964   6.251  17.309  0.00  0.00    +0.000 A 
ATOM      4  C   UNL     1       3.469   7.596  17.762  0.00  0.00    +0.000 C 
ATOM      5  C   UNL     1       5.172   6.094  16.612  0.00  0.00    +0.000 A 
ATOM      6  C   UNL     1       5.628   4.829  16.219  0.00  0.00    +0.000 A 
ATOM      7  C   UNL     1       6.929   4.611  15.499  0.00  0.00    +0.000 C 
ATOM      8  C   UNL     1       4.859   3.704  16.538  0.00  0.00    +0.000 A 
ENDROOT
BRANCH   1   9
ATOM      9  C   UNL     1       2.916   2.636  17.740  0.00  0.00    +0.000 C 
ATOM     10  O   UNL     1       3.409   1.531  17.885  0.00  0.00    +0.000 OA
BRANCH   9  11
ATOM     11  O   UNL     1       1.596   2.932  17.820  0.00  0.00    +0.000 OA
BRANCH  11  12
ATOM     12  C   UNL     1       0.905   2.227  18.854  0.00  0.00    +0.000 C 
BRANCH  12  13
ATOM     13  C   UNL     1       1.305   2.739  20.229  0.00  0.00    +0.000 C 
BRANCH  13  15
ATOM     14  C   UNL     1       2.033   5.047  20.951  0.00  0.00    +0.000 C 
ATOM     15  C   UNL     1       0.913   4.209  20.366  0.00  0.00    +0.000 C 
ENDBRANCH  13  15
ENDBRANCH  12  13
ENDBRANCH  11  12
ENDBRANCH   9  11
ENDBRANCH   1   9
BRANCH   5  16
ATOM     16  O   UNL     1       5.963   7.166  16.295  0.00  0.00    +0.000 OA
ATOM     17  H   UNL     1       6.368   7.526  17.097  0.00  0.00    +0.000 HD
ENDBRANCH   5  16
TORSDOF 6
ENDMDL
MODEL 5
REMARK VINA RESULT:      -6.3      2.273      3.376
REMARK  Name = 
REMARK  9 active torsions:
REMARK  status: ('A' for Active; 'I' for Inactive)
REMARK    1  A    between atoms: C_1  and  C_2
REMARK    2  A    between atoms: C_2  and  C_3
REMARK    3  A    between atoms: C_3  and  C_4
REMARK    4  A    between atoms: C_4  and  O_5
REMARK    5  A    between atoms: O_5  and  C_6
REMARK    6  A    between atoms: C_6  and  C_8
REMARK    7  A    between atoms: C_10  and  C_11
REMARK    8  A    between atoms: C_12  and  O_13
REMARK    9  A    between atoms: C_14  and  C_15
REMARK                            x       y       z     vdW  Elec       q    Type
REMARK                         _______ _______ _______ _____ _____    ______ ____
ROOT
ATOM      1  C   UNL     1       4.227   5.531  17.803  0.00  0.00    +0.000 A 
ATOM      2  C   UNL     1       5.237   5.761  18.746  0.00  0.00    +0.000 A 
ATOM      3  C   UNL     1       6.553   5.326  18.511  0.00  0.00    +0.000 A 
ATOM      4  C   UNL     1       7.598   5.560  19.566  0.00  0.00    +0.000 C 
ATOM      5  C   UNL     1       6.837   4.656  17.311  0.00  0.00    +0.000 A 
ATOM      6  C   UNL     1       5.843   4.428  16.350  0.00  0.00    +0.000 A 
ATOM      7  C   UNL     1       6.095   3.689  15.067  0.00  0.00    +0.000 C 
ATOM      8  C   UNL     1       4.542   4.876  16.605  0.00  0.00    +0.000 A 
ENDROOT
BRANCH   1   9
ATOM      9  C   UNL     1       2.820   5.864  18.159  0.00  0.00    +0.000 C 
ATOM     10  O   UNL     1       2.487   6.836  18.815  0.00  0.00    +0.000 OA
BRANCH   9  11
ATOM     11  O   UNL     1       2.011   4.838  17.798  0.00  0.00    +0.000 OA
BRANCH  11  12
ATOM     12  C   UNL     1       2.029   3.736  18.707  0.00  0.00    +0.000 C 
BRANCH  12  13
ATOM     13  C   UNL     1       2.140   2.414  17.965  0.00  0.00    +0.000 C 
BRANCH  13  15
ATOM     14  C   UNL     1       4.069   2.336  19.593  0.00  0.00    +0.000 C 
ATOM     15  C   UNL     1       3.425   1.698  18.377  0.00  0.00    +0.000 C 
ENDBRANCH  13  15
ENDBRANCH  12  13
ENDBRANCH  11  12
ENDBRANCH   9  11
ENDBRANCH   1   9
BRANCH   5  16
ATOM     16  O   UNL     1       8.092   4.187  17.030  0.00  0.00    +0.000 OA
ATOM     17  H   UNL     1       8.482   3.791  17.823  0.00  0.00    +0.000 HD
ENDBRANCH   5  16
TORSDOF 6
ENDMDL
MODEL 6
REMARK VINA RESULT:      -6.3      2.008      2.910
REMARK  Name = 
REMARK  9 active torsions:
REMARK  status: ('A' for Active; 'I' for Inactive)
REMARK    1  A    between atoms: C_1  and  C_2
REMARK    2  A    between atoms: C_2  and  C_3
REMARK    3  A    between atoms: C_3  and  C_4
REMARK    4  A    between atoms: C_4  and  O_5
REMARK    5  A    between atoms: O_5  and  C_6
REMARK    6  A    between atoms: C_6  and  C_8
REMARK    7  A    between atoms: C_10  and  C_11
REMARK    8  A    between atoms: C_12  and  O_13
REMARK    9  A    between atoms: C_14  and  C_15
REMARK                            x       y       z     vdW  Elec       q    Type
REMARK                         _______ _______ _______ _____ _____    ______ ____
ROOT
ATOM      1  C   UNL     1       5.131   4.494  18.338  0.00  0.00    +0.000 A 
ATOM      2  C   UNL     1       6.031   5.521  18.647  0.00  0.00    +0.000 A 
ATOM      3  C   UNL     1       6.910   6.026  17.674  0.00  0.00    +0.000 A 
ATOM      4  C   UNL     1       7.886   7.103  18.057  0.00  0.00    +0.000 C 
ATOM      5  C   UNL     1       6.870   5.478  16.382  0.00  0.00    +0.000 A 
ATOM      6  C   UNL     1       5.968   4.458  16.050  0.00  0.00    +0.000 A 
ATOM      7  C   UNL     1       5.911   3.822  14.690  0.00  0.00    +0.000 C 
ATOM      8  C   UNL     1       5.098   3.978  17.036  0.00  0.00    +0.000 A 
ENDROOT
BRANCH   1   9
ATOM      9  C   UNL     1       4.331   3.882  19.436  0.00  0.00    +0.000 C 
ATOM     10  O   UNL     1       4.310   2.691  19.691  0.00  0.00    +0.000 OA
BRANCH   9  11
ATOM     11  O   UNL     1       3.514   4.822  19.971  0.00  0.00    +0.000 OA
BRANCH  11  12
ATOM     12  C   UNL     1       2.193   4.823  19.424  0.00  0.00    +0.000 C 
BRANCH  12  13
ATOM     13  C   UNL     1       1.174   4.350  20.448  0.00  0.00    +0.000 C 
BRANCH  13  15
ATOM     14  C   UNL     1       0.928   2.551  18.692  0.00  0.00    +0.000 C 
ATOM     15  C   UNL     1       0.794   2.898  20.163  0.00  0.00    +0.000 C 
ENDBRANCH  13  15
ENDBRANCH  12  13
ENDBRANCH  11  12
ENDBRANCH   9  11
ENDBRANCH   1   9
BRANCH   5  16
ATOM     16  O   UNL     1       7.714   5.907  15.393  0.00  0.00    +0.000 OA
ATOM     17  H   UNL     1       7.823   5.211  14.728  0.00  0.00    +0.000 HD
ENDBRANCH   5  16
TORSDOF 6
ENDMDL
MODEL 7
REMARK VINA RESULT:      -6.3      1.757      2.418
REMARK  Name = 
REMARK  9 active torsions:
REMARK  status: ('A' for Active; 'I' for Inactive)
REMARK    1  A    between atoms: C_1  and  C_2
REMARK    2  A    between atoms: C_2  and  C_3
REMARK    3  A    between atoms: C_3  and  C_4
REMARK    4  A    between atoms: C_4  and  O_5
REMARK    5  A    between atoms: O_5  and  C_6
REMARK    6  A    between atoms: C_6  and  C_8
REMARK    7  A    between atoms: C_10  and  C_11
REMARK    8  A    between atoms: C_12  and  O_13
REMARK    9  A    between atoms: C_14  and  C_15
REMARK                            x       y       z     vdW  Elec       q    Type
REMARK                         _______ _______ _______ _____ _____    ______ ____
ROOT
ATOM      1  C   UNL     1       4.618   3.701  17.886  0.00  0.00    +0.000 A 
ATOM      2  C   UNL     1       5.536   4.407  18.674  0.00  0.00    +0.000 A 
ATOM      3  C   UNL     1       6.538   5.194  18.081  0.00  0.00    +0.000 A 
ATOM      4  C   UNL     1       7.526   5.905  18.962  0.00  0.00    +0.000 C 
ATOM      5  C   UNL     1       6.602   5.259  16.681  0.00  0.00    +0.000 A 
ATOM      6  C   UNL     1       5.685   4.570  15.875  0.00  0.00    +0.000 A 
ATOM      7  C   UNL     1       5.734   4.587  14.374  0.00  0.00    +0.000 C 
ATOM      8  C   UNL     1       4.692   3.799  16.490  0.00  0.00    +0.000 A 
ENDROOT
BRANCH   1   9
ATOM      9  C   UNL     1       3.676   2.757  18.549  0.00  0.00    +0.000 C 
ATOM     10  O   UNL     1       3.995   1.957  19.412  0.00  0.00    +0.000 OA
BRANCH   9  11
ATOM     11  O   UNL     1       2.475   2.808  17.923  0.00  0.00    +0.000 OA
BRANCH  11  12
ATOM     12  C   UNL     1       1.637   3.881  18.359  0.00  0.00    +0.000 C 
BRANCH  12  13
ATOM     13  C   UNL     1       1.074   3.609  19.744  0.00  0.00    +0.000 C 
BRANCH  13  15
ATOM     14  C   UNL     1       2.260   5.825  19.990  0.00  0.00    +0.000 C 
ATOM     15  C   UNL     1       1.399   4.779  20.671  0.00  0.00    +0.000 C 
ENDBRANCH  13  15
ENDBRANCH  12  13
ENDBRANCH  11  12
ENDBRANCH   9  11
ENDBRANCH   1   9
BRANCH   5  16
ATOM     16  O   UNL     1       7.566   5.988  16.039  0.00  0.00    +0.000 OA
ATOM     17  H   UNL     1       8.044   5.425  15.413  0.00  0.00    +0.000 HD
ENDBRANCH   5  16
TORSDOF 6
ENDMDL
MODEL 8
REMARK VINA RESULT:      -6.3      1.057      1.162
REMARK  Name = 
REMARK  9 active torsions:
REMARK  status: ('A' for Active; 'I' for Inactive)
REMARK    1  A    between atoms: C_1  and  C_2
REMARK    2  A    between atoms: C_2  and  C_3
REMARK    3  A    between atoms: C_3  and  C_4
REMARK    4  A    between atoms: C_4  and  O_5
REMARK    5  A    between atoms: O_5  and  C_6
REMARK    6  A    between atoms: C_6  and  C_8
REMARK    7  A    between atoms: C_10  and  C_11
REMARK    8  A    between atoms: C_12  and  O_13
REMARK    9  A    between atoms: C_14  and  C_15
REMARK                            x       y       z     vdW  Elec       q    Type
REMARK                         _______ _______ _______ _____ _____    ______ ____
ROOT
ATOM      1  C   UNL     1       4.540   3.956  17.929  0.00  0.00    +0.000 A 
ATOM      2  C   UNL     1       5.247   3.680  16.752  0.00  0.00    +0.000 A 
ATOM      3  C   UNL     1       5.477   4.687  15.798  0.00  0.00    +0.000 A 
ATOM      4  C   UNL     1       6.208   4.340  14.532  0.00  0.00    +0.000 C 
ATOM      5  C   UNL     1       4.984   5.977  16.049  0.00  0.00    +0.000 A 
ATOM      6  C   UNL     1       4.286   6.275  17.227  0.00  0.00    +0.000 A 
ATOM      7  C   UNL     1       3.714   7.632  17.522  0.00  0.00    +0.000 C 
ATOM      8  C   UNL     1       4.075   5.256  18.163  0.00  0.00    +0.000 A 
ENDROOT
BRANCH   1   9
ATOM      9  C   UNL     1       4.181   2.828  18.834  0.00  0.00    +0.000 C 
ATOM     10  O   UNL     1       4.788   2.542  19.852  0.00  0.00    +0.000 OA
BRANCH   9  11
ATOM     11  O   UNL     1       3.207   2.083  18.257  0.00  0.00    +0.000 OA
BRANCH  11  12
ATOM     12  C   UNL     1       2.051   1.902  19.079  0.00  0.00    +0.000 C 
BRANCH  12  13
ATOM     13  C   UNL     1       1.118   3.099  18.984  0.00  0.00    +0.000 C 
BRANCH  13  15
ATOM     14  C   UNL     1       1.628   4.942  20.634  0.00  0.00    +0.000 C 
ATOM     15  C   UNL     1       0.858   3.660  20.382  0.00  0.00    +0.000 C 
ENDBRANCH  13  15
ENDBRANCH  12  13
ENDBRANCH  11  12
ENDBRANCH   9  11
ENDBRANCH   1   9
BRANCH   5  16
ATOM     16  O   UNL     1       5.154   6.997  15.153  0.00  0.00    +0.000 OA
ATOM     17  H   UNL     1       4.801   6.740  14.288  0.00  0.00    +0.000 HD
ENDBRANCH   5  16
TORSDOF 6
ENDMDL
MODEL 9
REMARK VINA RESULT:      -6.3      2.012      3.176
REMARK  Name = 
REMARK  9 active torsions:
REMARK  status: ('A' for Active; 'I' for Inactive)
REMARK    1  A    between atoms: C_1  and  C_2
REMARK    2  A    between atoms: C_2  and  C_3
REMARK    3  A    between atoms: C_3  and  C_4
REMARK    4  A    between atoms: C_4  and  O_5
REMARK    5  A    between atoms: O_5  and  C_6
REMARK    6  A    between atoms: C_6  and  C_8
REMARK    7  A    between atoms: C_10  and  C_11
REMARK    8  A    between atoms: C_12  and  O_13
REMARK    9  A    between atoms: C_14  and  C_15
REMARK                            x       y       z     vdW  Elec       q    Type
REMARK                         _______ _______ _______ _____ _____    ______ ____
ROOT
ATOM      1  C   UNL     1       5.126   4.118  18.339  0.00  0.00    +0.000 A 
ATOM      2  C   UNL     1       6.066   5.031  18.833  0.00  0.00    +0.000 A 
ATOM      3  C   UNL     1       6.933   5.713  17.962  0.00  0.00    +0.000 A 
ATOM      4  C   UNL     1       7.953   6.656  18.536  0.00  0.00    +0.000 C 
ATOM      5  C   UNL     1       6.839   5.461  16.585  0.00  0.00    +0.000 A 
ATOM      6  C   UNL     1       5.896   4.560  16.070  0.00  0.00    +0.000 A 
ATOM      7  C   UNL     1       5.781   4.237  14.608  0.00  0.00    +0.000 C 
ATOM      8  C   UNL     1       5.040   3.898  16.958  0.00  0.00    +0.000 A 
ENDROOT
BRANCH   1   9
ATOM      9  C   UNL     1       4.338   3.302  19.305  0.00  0.00    +0.000 C 
ATOM     10  O   UNL     1       4.819   2.479  20.065  0.00  0.00    +0.000 OA
BRANCH   9  11
ATOM     11  O   UNL     1       3.015   3.491  19.077  0.00  0.00    +0.000 OA
BRANCH  11  12
ATOM     12  C   UNL     1       2.350   4.237  20.099  0.00  0.00    +0.000 C 
BRANCH  12  13
ATOM     13  C   UNL     1       2.521   5.733  19.886  0.00  0.00    +0.000 C 
BRANCH  13  15
ATOM     14  C   UNL     1       3.121   7.238  17.949  0.00  0.00    +0.000 C 
ATOM     15  C   UNL     1       2.267   6.076  18.420  0.00  0.00    +0.000 C 
ENDBRANCH  13  15
ENDBRANCH  12  13
ENDBRANCH  11  12
ENDBRANCH   9  11
ENDBRANCH   1   9
BRANCH   5  16
ATOM     16  O   UNL     1       7.668   6.073  15.684  0.00  0.00    +0.000 OA
ATOM     17  H   UNL     1       8.505   5.590  15.623  0.00  0.00    +0.000 HD
ENDBRANCH   5  16
TORSDOF 6
ENDMDL
