MODEL 1
REMARK VINA RESULT:      -7.1      0.000      0.000
REMARK  Name = 
REMARK  6 active torsions:
REMARK  status: ('A' for Active; 'I' for Inactive)
REMARK    1  A    between atoms: C_1  and  C_2
REMARK    2  A    between atoms: C_2  and  O_3
REMARK    3  A    between atoms: O_3  and  C_4
REMARK    4  A    between atoms: C_4  and  C_6
REMARK    5  A    between atoms: C_9  and  N_10
REMARK    6  A    between atoms: C_17  and  C_19
REMARK                            x       y       z     vdW  Elec       q    Type
REMARK                         _______ _______ _______ _____ _____    ______ ____
ROOT
ATOM      1  N   UNL     1       2.901   7.714  18.495  0.00  0.00    +0.000 N 
ATOM      2  C   UNL     1       2.234   7.386  19.657  0.00  0.00    +0.000 C 
ATOM      3  O   UNL     1       2.403   6.343  20.274  0.00  0.00    +0.000 OA
ATOM      4  N   UNL     1       1.373   8.358  20.141  0.00  0.00    +0.000 N 
ATOM      5  C   UNL     1       0.746   8.130  21.451  0.00  0.00    +0.000 C 
ATOM      6  C   UNL     1       0.822   9.395  22.317  0.00  0.00    +0.000 C 
ATOM      7  N   UNL     1       0.295  10.561  21.596  0.00  0.00    +0.000 N 
ATOM      8  C   UNL     1      -0.655  11.364  22.210  0.00  0.00    +0.000 C 
ATOM      9  O   UNL     1      -1.017  11.139  23.370  0.00  0.00    +0.000 OA
ATOM     10  C   UNL     1       0.892  10.781  20.271  0.00  0.00    +0.000 C 
ATOM     11  C   UNL     1       0.822   9.509  19.411  0.00  0.00    +0.000 C 
ATOM     12  H   UNL     1       2.966   8.696  18.283  0.00  0.00    +0.000 HD
ENDROOT
BRANCH   1  16
ATOM     13  C   UNL     1       5.671   5.257  16.457  0.00  0.00    +0.000 A 
ATOM     14  C   UNL     1       4.441   4.730  16.851  0.00  0.00    +0.000 A 
ATOM     15  C   UNL     1       3.509   5.535  17.508  0.00  0.00    +0.000 A 
ATOM     16  C   UNL     1       3.791   6.872  17.797  0.00  0.00    +0.000 A 
ATOM     17  C   UNL     1       5.015   7.408  17.378  0.00  0.00    +0.000 A 
ATOM     18  C   UNL     1       5.956   6.604  16.719  0.00  0.00    +0.000 A 
BRANCH  13  19
ATOM     19  C   UNL     1       6.652   4.331  15.838  0.00  0.00    +0.000 C 
ATOM     20  O   UNL     1       7.848   4.345  16.086  0.00  0.00    +0.000 OA
BRANCH  19  21
ATOM     21  O   UNL     1       6.041   3.581  14.890  0.00  0.00    +0.000 OA
BRANCH  21  23
ATOM     22  C   UNL     1       5.230   3.573  12.651  0.00  0.00    +0.000 C 
ATOM     23  C   UNL     1       6.417   3.891  13.543  0.00  0.00    +0.000 C 
ENDBRANCH  21  23
ENDBRANCH  19  21
ENDBRANCH  13  19
ENDBRANCH   1  16
BRANCH   8  24
ATOM     24  C   UNL     1      -1.217  12.568  21.423  0.00  0.00    +0.000 C 
ATOM     25  C   UNL     1      -1.144  13.860  22.228  0.00  0.00    +0.000 C 
ATOM     26  C   UNL     1      -2.324  14.655  21.741  0.00  0.00    +0.000 C 
ATOM     27  C   UNL     1      -3.319  13.592  21.341  0.00  0.00    +0.000 C 
ATOM     28  O   UNL     1      -2.589  12.399  21.039  0.00  0.00    +0.000 OA
ENDBRANCH   8  24
TORSDOF 5
ENDMDL
MODEL 2
REMARK VINA RESULT:      -7.1      2.232      3.333
REMARK  Name = 
REMARK  6 active torsions:
REMARK  status: ('A' for Active; 'I' for Inactive)
REMARK    1  A    between atoms: C_1  and  C_2
REMARK    2  A    between atoms: C_2  and  O_3
REMARK    3  A    between atoms: O_3  and  C_4
REMARK    4  A    between atoms: C_4  and  C_6
REMARK    5  A    between atoms: C_9  and  N_10
REMARK    6  A    between atoms: C_17  and  C_19
REMARK                            x       y       z     vdW  Elec       q    Type
REMARK                         _______ _______ _______ _____ _____    ______ ____
ROOT
ATOM      1  N   UNL     1       1.601   8.472  19.902  0.00  0.00    +0.000 N 
ATOM      2  C   UNL     1       1.045   9.506  19.180  0.00  0.00    +0.000 C 
ATOM      3  O   UNL     1       1.039   9.563  17.958  0.00  0.00    +0.000 OA
ATOM      4  N   UNL     1       0.419  10.486  19.933  0.00  0.00    +0.000 N 
ATOM      5  C   UNL     1      -0.319  11.536  19.217  0.00  0.00    +0.000 C 
ATOM      6  C   UNL     1      -1.688  11.778  19.866  0.00  0.00    +0.000 C 
ATOM      7  N   UNL     1      -1.553  12.018  21.309  0.00  0.00    +0.000 N 
ATOM      8  C   UNL     1      -2.169  13.128  21.870  0.00  0.00    +0.000 C 
ATOM      9  O   UNL     1      -2.869  13.877  21.181  0.00  0.00    +0.000 OA
ATOM     10  C   UNL     1      -0.790  10.991  22.031  0.00  0.00    +0.000 C 
ATOM     11  C   UNL     1       0.576  10.747  21.372  0.00  0.00    +0.000 C 
ATOM     12  H   UNL     1       1.244   8.339  20.835  0.00  0.00    +0.000 HD
ENDROOT
BRANCH   1  16
ATOM     13  C   UNL     1       3.854   5.312  18.228  0.00  0.00    +0.000 A 
ATOM     14  C   UNL     1       3.110   5.090  19.387  0.00  0.00    +0.000 A 
ATOM     15  C   UNL     1       2.345   6.119  19.939  0.00  0.00    +0.000 A 
ATOM     16  C   UNL     1       2.322   7.388  19.359  0.00  0.00    +0.000 A 
ATOM     17  C   UNL     1       3.050   7.604  18.181  0.00  0.00    +0.000 A 
ATOM     18  C   UNL     1       3.820   6.574  17.622  0.00  0.00    +0.000 A 
BRANCH  13  19
ATOM     19  C   UNL     1       4.711   4.204  17.736  0.00  0.00    +0.000 C 
ATOM     20  O   UNL     1       4.361   3.405  16.881  0.00  0.00    +0.000 OA
BRANCH  19  21
ATOM     21  O   UNL     1       5.855   4.151  18.459  0.00  0.00    +0.000 OA
BRANCH  21  23
ATOM     22  C   UNL     1       7.632   5.717  18.704  0.00  0.00    +0.000 C 
ATOM     23  C   UNL     1       7.011   4.673  17.794  0.00  0.00    +0.000 C 
ENDBRANCH  21  23
ENDBRANCH  19  21
ENDBRANCH  13  19
ENDBRANCH   1  16
BRANCH   8  24
ATOM     24  C   UNL     1      -1.990  13.378  23.384  0.00  0.00    +0.000 C 
ATOM     25  C   UNL     1      -3.210  14.053  23.999  0.00  0.00    +0.000 C 
ATOM     26  C   UNL     1      -2.639  14.879  25.119  0.00  0.00    +0.000 C 
ATOM     27  C   UNL     1      -1.251  15.216  24.630  0.00  0.00    +0.000 C 
ATOM     28  O   UNL     1      -0.862  14.212  23.687  0.00  0.00    +0.000 OA
ENDBRANCH   8  24
TORSDOF 5
ENDMDL
MODEL 3
REMARK VINA RESULT:      -7.0      2.035      3.228
REMARK  Name = 
REMARK  6 active torsions:
REMARK  status: ('A' for Active; 'I' for Inactive)
REMARK    1  A    between atoms: C_1  and  C_2
REMARK    2  A    between atoms: C_2  and  O_3
REMARK    3  A    between atoms: O_3  and  C_4
REMARK    4  A    between atoms: C_4  and  C_6
REMARK    5  A    between atoms: C_9  and  N_10
REMARK    6  A    between atoms: C_17  and  C_19
REMARK                            x       y       z     vdW  Elec       q    Type
REMARK                         _______ _______ _______ _____ _____    ______ ____
ROOT
ATOM      1  N   UNL     1       1.518   8.506  19.924  0.00  0.00    +0.000 N 
ATOM      2  C   UNL     1       0.974   9.559  19.219  0.00  0.00    +0.000 C 
ATOM      3  O   UNL     1       0.952   9.629  17.998  0.00  0.00    +0.000 OA
ATOM      4  N   UNL     1       0.379  10.544  19.990  0.00  0.00    +0.000 N 
ATOM      5  C   UNL     1      -0.346  11.617  19.295  0.00  0.00    +0.000 C 
ATOM      6  C   UNL     1      -1.701  11.880  19.966  0.00  0.00    +0.000 C 
ATOM      7  N   UNL     1      -1.541  12.103  21.408  0.00  0.00    +0.000 N 
ATOM      8  C   UNL     1      -2.126  13.220  21.989  0.00  0.00    +0.000 C 
ATOM      9  O   UNL     1      -2.820  13.991  21.318  0.00  0.00    +0.000 OA
ATOM     10  C   UNL     1      -0.791  11.053  22.110  0.00  0.00    +0.000 C 
ATOM     11  C   UNL     1       0.561  10.787  21.429  0.00  0.00    +0.000 C 
ATOM     12  H   UNL     1       1.170   8.371  20.860  0.00  0.00    +0.000 HD
ENDROOT
BRANCH   1  16
ATOM     13  C   UNL     1       3.491   5.150  18.278  0.00  0.00    +0.000 A 
ATOM     14  C   UNL     1       3.609   6.394  17.656  0.00  0.00    +0.000 A 
ATOM     15  C   UNL     1       2.979   7.514  18.200  0.00  0.00    +0.000 A 
ATOM     16  C   UNL     1       2.208   7.414  19.360  0.00  0.00    +0.000 A 
ATOM     17  C   UNL     1       2.111   6.170  19.998  0.00  0.00    +0.000 A 
ATOM     18  C   UNL     1       2.741   5.041  19.456  0.00  0.00    +0.000 A 
BRANCH  13  19
ATOM     19  C   UNL     1       4.115   3.982  17.607  0.00  0.00    +0.000 C 
ATOM     20  O   UNL     1       3.608   2.871  17.570  0.00  0.00    +0.000 OA
BRANCH  19  21
ATOM     21  O   UNL     1       5.354   4.310  17.171  0.00  0.00    +0.000 OA
BRANCH  21  23
ATOM     22  C   UNL     1       5.940   5.099  15.001  0.00  0.00    +0.000 C 
ATOM     23  C   UNL     1       5.661   3.867  15.844  0.00  0.00    +0.000 C 
ENDBRANCH  21  23
ENDBRANCH  19  21
ENDBRANCH  13  19
ENDBRANCH   1  16
BRANCH   8  24
ATOM     24  C   UNL     1      -1.921  13.451  23.503  0.00  0.00    +0.000 C 
ATOM     25  C   UNL     1      -3.160  14.046  24.162  0.00  0.00    +0.000 C 
ATOM     26  C   UNL     1      -2.606  14.881  25.284  0.00  0.00    +0.000 C 
ATOM     27  C   UNL     1      -1.250  15.302  24.768  0.00  0.00    +0.000 C 
ATOM     28  O   UNL     1      -0.833  14.339  23.795  0.00  0.00    +0.000 OA
ENDBRANCH   8  24
TORSDOF 5
ENDMDL
MODEL 4
REMARK VINA RESULT:      -7.0      2.419      3.703
REMARK  Name = 
REMARK  6 active torsions:
REMARK  status: ('A' for Active; 'I' for Inactive)
REMARK    1  A    between atoms: C_1  and  C_2
REMARK    2  A    between atoms: C_2  and  O_3
REMARK    3  A    between atoms: O_3  and  C_4
REMARK    4  A    between atoms: C_4  and  C_6
REMARK    5  A    between atoms: C_9  and  N_10
REMARK    6  A    between atoms: C_17  and  C_19
REMARK                            x       y       z     vdW  Elec       q    Type
REMARK                         _______ _______ _______ _____ _____    ______ ____
ROOT
ATOM      1  N   UNL     1       1.442   8.622  20.063  0.00  0.00    +0.000 N 
ATOM      2  C   UNL     1       0.853   9.648  19.355  0.00  0.00    +0.000 C 
ATOM      3  O   UNL     1       0.777   9.683  18.134  0.00  0.00    +0.000 OA
ATOM      4  N   UNL     1       0.279  10.646  20.124  0.00  0.00    +0.000 N 
ATOM      5  C   UNL     1      -0.491  11.690  19.432  0.00  0.00    +0.000 C 
ATOM      6  C   UNL     1      -1.819  11.955  20.155  0.00  0.00    +0.000 C 
ATOM      7  N   UNL     1      -1.599  12.220  21.582  0.00  0.00    +0.000 N 
ATOM      8  C   UNL     1      -2.174  13.345  22.157  0.00  0.00    +0.000 C 
ATOM      9  O   UNL     1      -2.907  14.087  21.496  0.00  0.00    +0.000 OA
ATOM     10  C   UNL     1      -0.804  11.199  22.279  0.00  0.00    +0.000 C 
ATOM     11  C   UNL     1       0.521  10.932  21.546  0.00  0.00    +0.000 C 
ATOM     12  H   UNL     1       1.138   8.509  21.017  0.00  0.00    +0.000 HD
ENDROOT
BRANCH   1  16
ATOM     13  C   UNL     1       3.388   5.247  18.424  0.00  0.00    +0.000 A 
ATOM     14  C   UNL     1       3.470   6.476  17.769  0.00  0.00    +0.000 A 
ATOM     15  C   UNL     1       2.850   7.604  18.310  0.00  0.00    +0.000 A 
ATOM     16  C   UNL     1       2.123   7.523  19.499  0.00  0.00    +0.000 A 
ATOM     17  C   UNL     1       2.062   6.294  20.169  0.00  0.00    +0.000 A 
ATOM     18  C   UNL     1       2.683   5.158  19.631  0.00  0.00    +0.000 A 
BRANCH  13  19
ATOM     19  C   UNL     1       3.999   4.069  17.757  0.00  0.00    +0.000 C 
ATOM     20  O   UNL     1       4.283   4.033  16.570  0.00  0.00    +0.000 OA
BRANCH  19  21
ATOM     21  O   UNL     1       4.067   3.034  18.628  0.00  0.00    +0.000 OA
BRANCH  21  23
ATOM     22  C   UNL     1       2.006   1.840  18.584  0.00  0.00    +0.000 C 
ATOM     23  C   UNL     1       3.466   1.819  18.165  0.00  0.00    +0.000 C 
ENDBRANCH  21  23
ENDBRANCH  19  21
ENDBRANCH  13  19
ENDBRANCH   1  16
BRANCH   8  24
ATOM     24  C   UNL     1      -1.906  13.621  23.653  0.00  0.00    +0.000 C 
ATOM     25  C   UNL     1      -3.114  14.243  24.344  0.00  0.00    +0.000 C 
ATOM     26  C   UNL     1      -2.510  15.108  25.416  0.00  0.00    +0.000 C 
ATOM     27  C   UNL     1      -1.176  15.506  24.832  0.00  0.00    +0.000 C 
ATOM     28  O   UNL     1      -0.802  14.511  23.873  0.00  0.00    +0.000 OA
ENDBRANCH   8  24
TORSDOF 5
ENDMDL
MODEL 5
REMARK VINA RESULT:      -6.7      0.992      1.759
REMARK  Name = 
REMARK  6 active torsions:
REMARK  status: ('A' for Active; 'I' for Inactive)
REMARK    1  A    between atoms: C_1  and  C_2
REMARK    2  A    between atoms: C_2  and  O_3
REMARK    3  A    between atoms: O_3  and  C_4
REMARK    4  A    between atoms: C_4  and  C_6
REMARK    5  A    between atoms: C_9  and  N_10
REMARK    6  A    between atoms: C_17  and  C_19
REMARK                            x       y       z     vdW  Elec       q    Type
REMARK                         _______ _______ _______ _____ _____    ______ ____
ROOT
ATOM      1  N   UNL     1       2.505   7.899  18.582  0.00  0.00    +0.000 N 
ATOM      2  C   UNL     1       1.904   7.657  19.799  0.00  0.00    +0.000 C 
ATOM      3  O   UNL     1       2.123   6.670  20.488  0.00  0.00    +0.000 OA
ATOM      4  N   UNL     1       1.050   8.652  20.247  0.00  0.00    +0.000 N 
ATOM      5  C   UNL     1       0.495   8.523  21.602  0.00  0.00    +0.000 C 
ATOM      6  C   UNL     1       0.590   9.855  22.358  0.00  0.00    +0.000 C 
ATOM      7  N   UNL     1       0.006  10.950  21.574  0.00  0.00    +0.000 N 
ATOM      8  C   UNL     1      -0.927  11.787  22.170  0.00  0.00    +0.000 C 
ATOM      9  O   UNL     1      -1.226  11.651  23.361  0.00  0.00    +0.000 OA
ATOM     10  C   UNL     1       0.531  11.071  20.207  0.00  0.00    +0.000 C 
ATOM     11  C   UNL     1       0.442   9.733  19.456  0.00  0.00    +0.000 C 
ATOM     12  H   UNL     1       2.541   8.862  18.288  0.00  0.00    +0.000 HD
ENDROOT
BRANCH   1  16
ATOM     13  C   UNL     1       5.207   5.346  16.571  0.00  0.00    +0.000 A 
ATOM     14  C   UNL     1       4.219   4.798  17.390  0.00  0.00    +0.000 A 
ATOM     15  C   UNL     1       3.307   5.628  18.044  0.00  0.00    +0.000 A 
ATOM     16  C   UNL     1       3.374   7.016  17.909  0.00  0.00    +0.000 A 
ATOM     17  C   UNL     1       4.350   7.564  17.066  0.00  0.00    +0.000 A 
ATOM     18  C   UNL     1       5.269   6.736  16.407  0.00  0.00    +0.000 A 
BRANCH  13  19
ATOM     19  C   UNL     1       6.197   4.418  15.969  0.00  0.00    +0.000 C 
ATOM     20  O   UNL     1       5.892   3.445  15.296  0.00  0.00    +0.000 OA
BRANCH  19  21
ATOM     21  O   UNL     1       7.444   4.745  16.382  0.00  0.00    +0.000 OA
BRANCH  21  23
ATOM     22  C   UNL     1       7.868   5.703  18.521  0.00  0.00    +0.000 C 
ATOM     23  C   UNL     1       7.735   4.406  17.743  0.00  0.00    +0.000 C 
ENDBRANCH  21  23
ENDBRANCH  19  21
ENDBRANCH  13  19
ENDBRANCH   1  16
BRANCH   8  24
ATOM     24  C   UNL     1      -1.550  12.915  21.319  0.00  0.00    +0.000 C 
ATOM     25  C   UNL     1      -1.856  14.155  22.151  0.00  0.00    +0.000 C 
ATOM     26  C   UNL     1      -3.056  14.757  21.472  0.00  0.00    +0.000 C 
ATOM     27  C   UNL     1      -3.755  13.559  20.874  0.00  0.00    +0.000 C 
ATOM     28  O   UNL     1      -2.779  12.530  20.686  0.00  0.00    +0.000 OA
ENDBRANCH   8  24
TORSDOF 5
ENDMDL
MODEL 6
REMARK VINA RESULT:      -6.7      2.583      3.715
REMARK  Name = 
REMARK  6 active torsions:
REMARK  status: ('A' for Active; 'I' for Inactive)
REMARK    1  A    between atoms: C_1  and  C_2
REMARK    2  A    between atoms: C_2  and  O_3
REMARK    3  A    between atoms: O_3  and  C_4
REMARK    4  A    between atoms: C_4  and  C_6
REMARK    5  A    between atoms: C_9  and  N_10
REMARK    6  A    between atoms: C_17  and  C_19
REMARK                            x       y       z     vdW  Elec       q    Type
REMARK                         _______ _______ _______ _____ _____    ______ ____
ROOT
ATOM      1  N   UNL     1       1.277   8.652  20.347  0.00  0.00    +0.000 N 
ATOM      2  C   UNL     1       0.749   9.687  19.605  0.00  0.00    +0.000 C 
ATOM      3  O   UNL     1       0.712   9.704  18.382  0.00  0.00    +0.000 OA
ATOM      4  N   UNL     1       0.188  10.718  20.340  0.00  0.00    +0.000 N 
ATOM      5  C   UNL     1      -0.522  11.777  19.608  0.00  0.00    +0.000 C 
ATOM      6  C   UNL     1      -1.860  12.102  20.284  0.00  0.00    +0.000 C 
ATOM      7  N   UNL     1      -1.676  12.382  21.713  0.00  0.00    +0.000 N 
ATOM      8  C   UNL     1      -2.227  13.537  22.253  0.00  0.00    +0.000 C 
ATOM      9  O   UNL     1      -2.911  14.294  21.557  0.00  0.00    +0.000 OA
ATOM     10  C   UNL     1      -0.941  11.345  22.451  0.00  0.00    +0.000 C 
ATOM     11  C   UNL     1       0.395  11.018  21.765  0.00  0.00    +0.000 C 
ATOM     12  H   UNL     1       0.939   8.566  21.292  0.00  0.00    +0.000 HD
ENDROOT
BRANCH   1  16
ATOM     13  C   UNL     1       3.336   5.341  18.716  0.00  0.00    +0.000 A 
ATOM     14  C   UNL     1       2.677   5.210  19.939  0.00  0.00    +0.000 A 
ATOM     15  C   UNL     1       1.976   6.289  20.480  0.00  0.00    +0.000 A 
ATOM     16  C   UNL     1       1.934   7.520  19.822  0.00  0.00    +0.000 A 
ATOM     17  C   UNL     1       2.574   7.644  18.582  0.00  0.00    +0.000 A 
ATOM     18  C   UNL     1       3.280   6.564  18.035  0.00  0.00    +0.000 A 
BRANCH  13  19
ATOM     19  C   UNL     1       4.132   4.184  18.233  0.00  0.00    +0.000 C 
ATOM     20  O   UNL     1       5.322   4.036  18.466  0.00  0.00    +0.000 OA
BRANCH  19  21
ATOM     21  O   UNL     1       3.374   3.415  17.416  0.00  0.00    +0.000 OA
BRANCH  21  23
ATOM     22  C   UNL     1       1.748   2.061  18.509  0.00  0.00    +0.000 C 
ATOM     23  C   UNL     1       3.135   2.086  17.892  0.00  0.00    +0.000 C 
ENDBRANCH  21  23
ENDBRANCH  19  21
ENDBRANCH  13  19
ENDBRANCH   1  16
BRANCH   8  24
ATOM     24  C   UNL     1      -1.996  13.827  23.752  0.00  0.00    +0.000 C 
ATOM     25  C   UNL     1      -3.159  14.594  24.370  0.00  0.00    +0.000 C 
ATOM     26  C   UNL     1      -2.513  15.422  25.447  0.00  0.00    +0.000 C 
ATOM     27  C   UNL     1      -1.119  15.659  24.916  0.00  0.00    +0.000 C 
ATOM     28  O   UNL     1      -0.814  14.602  24.001  0.00  0.00    +0.000 OA
ENDBRANCH   8  24
TORSDOF 5
ENDMDL
MODEL 7
REMARK VINA RESULT:      -6.7      2.179     10.422
REMARK  Name = 
REMARK  6 active torsions:
REMARK  status: ('A' for Active; 'I' for Inactive)
REMARK    1  A    between atoms: C_1  and  C_2
REMARK    2  A    between atoms: C_2  and  O_3
REMARK    3  A    between atoms: O_3  and  C_4
REMARK    4  A    between atoms: C_4  and  C_6
REMARK    5  A    between atoms: C_9  and  N_10
REMARK    6  A    between atoms: C_17  and  C_19
REMARK                            x       y       z     vdW  Elec       q    Type
REMARK                         _______ _______ _______ _____ _____    ______ ____
ROOT
ATOM      1  N   UNL     1       0.968   8.580  20.491  0.00  0.00    +0.000 N 
ATOM      2  C   UNL     1       1.568   8.748  19.261  0.00  0.00    +0.000 C 
ATOM      3  O   UNL     1       1.538   9.789  18.619  0.00  0.00    +0.000 OA
ATOM      4  N   UNL     1       2.283   7.656  18.796  0.00  0.00    +0.000 N 
ATOM      5  C   UNL     1       3.066   7.821  17.564  0.00  0.00    +0.000 C 
ATOM      6  C   UNL     1       4.469   7.220  17.726  0.00  0.00    +0.000 C 
ATOM      7  N   UNL     1       4.397   5.835  18.209  0.00  0.00    +0.000 N 
ATOM      8  C   UNL     1       5.105   4.848  17.538  0.00  0.00    +0.000 C 
ATOM      9  O   UNL     1       5.831   5.132  16.580  0.00  0.00    +0.000 OA
ATOM     10  C   UNL     1       3.591   5.652  19.424  0.00  0.00    +0.000 C 
ATOM     11  C   UNL     1       2.190   6.263  19.259  0.00  0.00    +0.000 C 
ATOM     12  H   UNL     1       1.346   7.851  21.074  0.00  0.00    +0.000 HD
ENDROOT
BRANCH   1  16
ATOM     13  C   UNL     1      -1.388  11.417  22.557  0.00  0.00    +0.000 A 
ATOM     14  C   UNL     1      -1.167  11.570  21.189  0.00  0.00    +0.000 A 
ATOM     15  C   UNL     1      -0.407  10.630  20.489  0.00  0.00    +0.000 A 
ATOM     16  C   UNL     1       0.158   9.533  21.143  0.00  0.00    +0.000 A 
ATOM     17  C   UNL     1      -0.086   9.366  22.512  0.00  0.00    +0.000 A 
ATOM     18  C   UNL     1      -0.847  10.307  23.220  0.00  0.00    +0.000 A 
BRANCH  13  19
ATOM     19  C   UNL     1      -2.133  12.491  23.260  0.00  0.00    +0.000 C 
ATOM     20  O   UNL     1      -1.609  13.502  23.703  0.00  0.00    +0.000 OA
BRANCH  19  21
ATOM     21  O   UNL     1      -3.423  12.118  23.434  0.00  0.00    +0.000 OA
BRANCH  21  23
ATOM     22  C   UNL     1      -4.898  12.691  21.654  0.00  0.00    +0.000 C 
ATOM     23  C   UNL     1      -4.391  13.092  23.028  0.00  0.00    +0.000 C 
ENDBRANCH  21  23
ENDBRANCH  19  21
ENDBRANCH  13  19
ENDBRANCH   1  16
BRANCH   8  24
ATOM     24  C   UNL     1       4.992   3.393  18.045  0.00  0.00    +0.000 C 
ATOM     25  C   UNL     1       3.636   2.779  17.720  0.00  0.00    +0.000 C 
ATOM     26  C   UNL     1       3.398   1.812  18.847  0.00  0.00    +0.000 C 
ATOM     27  C   UNL     1       4.141   2.437  20.004  0.00  0.00    +0.000 C 
ATOM     28  O   UNL     1       5.167   3.276  19.464  0.00  0.00    +0.000 OA
ENDBRANCH   8  24
TORSDOF 5
ENDMDL
MODEL 8
REMARK VINA RESULT:      -6.7      2.056      3.178
REMARK  Name = 
REMARK  6 active torsions:
REMARK  status: ('A' for Active; 'I' for Inactive)
REMARK    1  A    between atoms: C_1  and  C_2
REMARK    2  A    between atoms: C_2  and  O_3
REMARK    3  A    between atoms: O_3  and  C_4
REMARK    4  A    between atoms: C_4  and  C_6
REMARK    5  A    between atoms: C_9  and  N_10
REMARK    6  A    between atoms: C_17  and  C_19
REMARK                            x       y       z     vdW  Elec       q    Type
REMARK                         _______ _______ _______ _____ _____    ______ ____
ROOT
ATOM      1  N   UNL     1       1.846   8.463  19.357  0.00  0.00    +0.000 N 
ATOM      2  C   UNL     1       1.389   9.587  18.701  0.00  0.00    +0.000 C 
ATOM      3  O   UNL     1       1.569   9.808  17.511  0.00  0.00    +0.000 OA
ATOM      4  N   UNL     1       0.638  10.459  19.472  0.00  0.00    +0.000 N 
ATOM      5  C   UNL     1      -0.001  11.598  18.797  0.00  0.00    +0.000 C 
ATOM      6  C   UNL     1      -1.457  11.754  19.255  0.00  0.00    +0.000 C 
ATOM      7  N   UNL     1      -1.548  11.798  20.720  0.00  0.00    +0.000 N 
ATOM      8  C   UNL     1      -2.263  12.824  21.322  0.00  0.00    +0.000 C 
ATOM      9  O   UNL     1      -2.863  13.661  20.640  0.00  0.00    +0.000 OA
ATOM     10  C   UNL     1      -0.887  10.681  21.408  0.00  0.00    +0.000 C 
ATOM     11  C   UNL     1       0.569  10.524  20.940  0.00  0.00    +0.000 C 
ATOM     12  H   UNL     1       1.353   8.208  20.197  0.00  0.00    +0.000 HD
ENDROOT
BRANCH   1  16
ATOM     13  C   UNL     1       4.198   5.367  17.700  0.00  0.00    +0.000 A 
ATOM     14  C   UNL     1       4.229   6.639  17.127  0.00  0.00    +0.000 A 
ATOM     15  C   UNL     1       3.473   7.676  17.676  0.00  0.00    +0.000 A 
ATOM     16  C   UNL     1       2.661   7.461  18.791  0.00  0.00    +0.000 A 
ATOM     17  C   UNL     1       2.651   6.191  19.382  0.00  0.00    +0.000 A 
ATOM     18  C   UNL     1       3.408   5.145  18.835  0.00  0.00    +0.000 A 
BRANCH  13  19
ATOM     19  C   UNL     1       4.959   4.287  17.022  0.00  0.00    +0.000 C 
ATOM     20  O   UNL     1       4.598   3.120  16.993  0.00  0.00    +0.000 OA
BRANCH  19  21
ATOM     21  O   UNL     1       6.140   4.771  16.570  0.00  0.00    +0.000 OA
BRANCH  21  23
ATOM     22  C   UNL     1       7.585   5.738  18.197  0.00  0.00    +0.000 C 
ATOM     23  C   UNL     1       7.267   4.482  17.404  0.00  0.00    +0.000 C 
ENDBRANCH  21  23
ENDBRANCH  19  21
ENDBRANCH  13  19
ENDBRANCH   1  16
BRANCH   8  24
ATOM     24  C   UNL     1      -2.322  12.869  22.865  0.00  0.00    +0.000 C 
ATOM     25  C   UNL     1      -3.736  12.646  23.389  0.00  0.00    +0.000 C 
ATOM     26  C   UNL     1      -3.778  13.444  24.663  0.00  0.00    +0.000 C 
ATOM     27  C   UNL     1      -2.800  14.565  24.405  0.00  0.00    +0.000 C 
ATOM     28  O   UNL     1      -1.873  14.118  23.411  0.00  0.00    +0.000 OA
ENDBRANCH   8  24
TORSDOF 5
ENDMDL
MODEL 9
REMARK VINA RESULT:      -6.6      1.719      2.443
REMARK  Name = 
REMARK  6 active torsions:
REMARK  status: ('A' for Active; 'I' for Inactive)
REMARK    1  A    between atoms: C_1  and  C_2
REMARK    2  A    between atoms: C_2  and  O_3
REMARK    3  A    between atoms: O_3  and  C_4
REMARK    4  A    between atoms: C_4  and  C_6
REMARK    5  A    between atoms: C_9  and  N_10
REMARK    6  A    between atoms: C_17  and  C_19
REMARK                            x       y       z     vdW  Elec       q    Type
REMARK                         _______ _______ _______ _____ _____    ______ ____
ROOT
ATOM      1  N   UNL     1       1.593   8.290  19.058  0.00  0.00    +0.000 N 
ATOM      2  C   UNL     1       1.102   8.277  20.347  0.00  0.00    +0.000 C 
ATOM      3  O   UNL     1       1.469   7.493  21.212  0.00  0.00    +0.000 OA
ATOM      4  N   UNL     1       0.182   9.269  20.641  0.00  0.00    +0.000 N 
ATOM      5  C   UNL     1      -0.266   9.400  22.035  0.00  0.00    +0.000 C 
ATOM      6  C   UNL     1      -0.260  10.871  22.473  0.00  0.00    +0.000 C 
ATOM      7  N   UNL     1      -1.006  11.707  21.523  0.00  0.00    +0.000 N 
ATOM      8  C   UNL     1      -1.979  12.572  22.004  0.00  0.00    +0.000 C 
ATOM      9  O   UNL     1      -2.182  12.683  23.217  0.00  0.00    +0.000 OA
ATOM     10  C   UNL     1      -0.588  11.563  20.122  0.00  0.00    +0.000 C 
ATOM     11  C   UNL     1      -0.588  10.087  19.691  0.00  0.00    +0.000 C 
ATOM     12  H   UNL     1       1.508   9.162  18.560  0.00  0.00    +0.000 HD
ENDROOT
BRANCH   1  16
ATOM     13  C   UNL     1       4.413   5.591  17.439  0.00  0.00    +0.000 A 
ATOM     14  C   UNL     1       3.427   5.120  18.306  0.00  0.00    +0.000 A 
ATOM     15  C   UNL     1       2.477   5.997  18.832  0.00  0.00    +0.000 A 
ATOM     16  C   UNL     1       2.503   7.357  18.519  0.00  0.00    +0.000 A 
ATOM     17  C   UNL     1       3.478   7.825  17.629  0.00  0.00    +0.000 A 
ATOM     18  C   UNL     1       4.435   6.950  17.098  0.00  0.00    +0.000 A 
BRANCH  13  19
ATOM     19  C   UNL     1       5.444   4.627  16.978  0.00  0.00    +0.000 C 
ATOM     20  O   UNL     1       5.455   4.128  15.863  0.00  0.00    +0.000 OA
BRANCH  19  21
ATOM     21  O   UNL     1       6.265   4.306  18.006  0.00  0.00    +0.000 OA
BRANCH  21  23
ATOM     22  C   UNL     1       7.812   5.869  18.920  0.00  0.00    +0.000 C 
ATOM     23  C   UNL     1       7.608   4.787  17.875  0.00  0.00    +0.000 C 
ENDBRANCH  21  23
ENDBRANCH  19  21
ENDBRANCH  13  19
ENDBRANCH   1  16
BRANCH   8  24
ATOM     24  C   UNL     1      -2.771  13.421  20.985  0.00  0.00    +0.000 C 
ATOM     25  C   UNL     1      -3.346  14.683  21.619  0.00  0.00    +0.000 C 
ATOM     26  C   UNL     1      -4.610  14.933  20.843  0.00  0.00    +0.000 C 
ATOM     27  C   UNL     1      -5.039  13.548  20.421  0.00  0.00    +0.000 C 
ATOM     28  O   UNL     1      -3.876  12.715  20.401  0.00  0.00    +0.000 OA
ENDBRANCH   8  24
TORSDOF 5
ENDMDL
