MODEL 1
REMARK VINA RESULT:      -7.6      0.000      0.000
REMARK  Name = 
REMARK  10 active torsions:
REMARK  status: ('A' for Active; 'I' for Inactive)
REMARK    1  A    between atoms: C_1  and  C_2
REMARK    2  A    between atoms: C_2  and  C_3
REMARK    3  A    between atoms: C_3  and  C_4
REMARK    4  A    between atoms: C_4  and  C_5
REMARK    5  A    between atoms: C_5  and  C_6
REMARK    6  A    between atoms: C_6  and  C_7
REMARK    7  A    between atoms: C_7  and  C_8
REMARK    8  A    between atoms: C_8  and  N_9
REMARK    9  A    between atoms: N_14  and  C_15
REMARK   10  A    between atoms: N_32  and  C_33
REMARK                            x       y       z     vdW  Elec       q    Type
REMARK                         _______ _______ _______ _____ _____    ______ ____
ROOT
ATOM      1  N   UNL     1       3.820   6.090  18.791  0.00  0.00    +0.000 N 
ATOM      2  C   UNL     1       2.604   6.416  19.386  0.00  0.00    +0.000 A 
ATOM      3  N   UNL     1       2.062   7.651  19.244  0.00  0.00    +0.000 N 
ATOM      4  C   UNL     1       1.236   8.237  20.314  0.00  0.00    +0.000 C 
ATOM      5  C   UNL     1       1.487   9.778  20.372  0.00  0.00    +0.000 C 
ATOM      6  N   UNL     1       1.308  10.395  19.032  0.00  0.00    +0.000 N 
ATOM      7  C   UNL     1       2.074   9.737  17.949  0.00  0.00    +0.000 C 
ATOM      8  C   UNL     1       1.744   8.228  17.928  0.00  0.00    +0.000 C 
ATOM      9  N   UNL     1       2.219   5.449  20.195  0.00  0.00    +0.000 NA
ATOM     10  C   UNL     1       3.145   4.457  20.053  0.00  0.00    +0.000 A 
ATOM     11  C   UNL     1       4.137   4.817  19.185  0.00  0.00    +0.000 A 
ATOM     12  C   UNL     1       5.253   3.980  18.905  0.00  0.00    +0.000 A 
ATOM     13  O   UNL     1       6.176   4.237  18.139  0.00  0.00    +0.000 OA
ATOM     14  N   UNL     1       5.220   2.801  19.608  0.00  0.00    +0.000 N 
ATOM     15  C   UNL     1       4.250   2.385  20.487  0.00  0.00    +0.000 A 
ATOM     16  O   UNL     1       4.377   1.284  21.029  0.00  0.00    +0.000 OA
ATOM     17  N   UNL     1       3.177   3.245  20.713  0.00  0.00    +0.000 N 
ATOM     18  C   UNL     1       2.134   2.870  21.646  0.00  0.00    +0.000 C 
ATOM     19  H   UNL     1       5.988   2.168  19.457  0.00  0.00    +0.000 HD
ENDROOT
BRANCH   6  20
ATOM     20  C   UNL     1       0.956  11.725  18.870  0.00  0.00    +0.000 A 
ATOM     21  C   UNL     1      -0.378  12.123  19.074  0.00  0.00    +0.000 A 
ATOM     22  C   UNL     1      -0.780  13.457  19.006  0.00  0.00    +0.000 A 
ATOM     23  C   UNL     1       0.157  14.443  18.732  0.00  0.00    +0.000 A 
ATOM     24  C   UNL     1       1.483  14.079  18.518  0.00  0.00    +0.000 A 
ATOM     25 CL   UNL     1       2.649  15.301  18.183  0.00  0.00    +0.000 Cl
ATOM     26  C   UNL     1       1.881  12.738  18.582  0.00  0.00    +0.000 A 
ENDBRANCH   6  20
BRANCH   1  27
ATOM     27  C   UNL     1       4.720   6.990  18.087  0.00  0.00    +0.000 C 
BRANCH  27  28
ATOM     28  C   UNL     1       4.588   6.927  16.568  0.00  0.00    +0.000 C 
BRANCH  28  29
ATOM     29  C   UNL     1       5.776   6.256  15.896  0.00  0.00    +0.000 C 
BRANCH  29  30
ATOM     30  C   UNL     1       5.286   5.103  15.027  0.00  0.00    +0.000 C 
BRANCH  30  31
ATOM     31  C   UNL     1       6.469   4.334  14.459  0.00  0.00    +0.000 C 
BRANCH  31  32
ATOM     32  C   UNL     1       6.097   3.661  13.145  0.00  0.00    +0.000 C 
BRANCH  32  34
ATOM     33  C   UNL     1       7.858   5.306  12.444  0.00  0.00    +0.000 C 
ATOM     34  C   UNL     1       7.064   4.075  12.043  0.00  0.00    +0.000 C 
ENDBRANCH  32  34
ENDBRANCH  31  32
ENDBRANCH  30  31
ENDBRANCH  29  30
ENDBRANCH  28  29
ENDBRANCH  27  28
ENDBRANCH   1  27
TORSDOF 8
ENDMDL
MODEL 2
REMARK VINA RESULT:      -7.4      5.503      9.609
REMARK  Name = 
REMARK  10 active torsions:
REMARK  status: ('A' for Active; 'I' for Inactive)
REMARK    1  A    between atoms: C_1  and  C_2
REMARK    2  A    between atoms: C_2  and  C_3
REMARK    3  A    between atoms: C_3  and  C_4
REMARK    4  A    between atoms: C_4  and  C_5
REMARK    5  A    between atoms: C_5  and  C_6
REMARK    6  A    between atoms: C_6  and  C_7
REMARK    7  A    between atoms: C_7  and  C_8
REMARK    8  A    between atoms: C_8  and  N_9
REMARK    9  A    between atoms: N_14  and  C_15
REMARK   10  A    between atoms: N_32  and  C_33
REMARK                            x       y       z     vdW  Elec       q    Type
REMARK                         _______ _______ _______ _____ _____    ______ ____
ROOT
ATOM      1  N   UNL     1      -1.630  11.253  19.573  0.00  0.00    +0.000 N 
ATOM      2  C   UNL     1      -0.465  11.087  20.318  0.00  0.00    +0.000 A 
ATOM      3  N   UNL     1       0.480  10.185  19.952  0.00  0.00    +0.000 N 
ATOM      4  C   UNL     1       1.306   9.509  20.966  0.00  0.00    +0.000 C 
ATOM      5  C   UNL     1       1.591   8.044  20.505  0.00  0.00    +0.000 C 
ATOM      6  N   UNL     1       2.144   8.020  19.126  0.00  0.00    +0.000 N 
ATOM      7  C   UNL     1       1.350   8.782  18.135  0.00  0.00    +0.000 C 
ATOM      8  C   UNL     1       1.146  10.227  18.640  0.00  0.00    +0.000 C 
ATOM      9  N   UNL     1      -0.543  11.768  21.443  0.00  0.00    +0.000 NA
ATOM     10  C   UNL     1      -1.725  12.448  21.383  0.00  0.00    +0.000 A 
ATOM     11  C   UNL     1      -2.411  12.161  20.237  0.00  0.00    +0.000 A 
ATOM     12  C   UNL     1      -3.699  12.700  19.958  0.00  0.00    +0.000 A 
ATOM     13  O   UNL     1      -4.369  12.488  18.953  0.00  0.00    +0.000 OA
ATOM     14  N   UNL     1      -4.163  13.511  20.964  0.00  0.00    +0.000 N 
ATOM     15  C   UNL     1      -3.517  13.837  22.132  0.00  0.00    +0.000 A 
ATOM     16  O   UNL     1      -4.082  14.591  22.927  0.00  0.00    +0.000 OA
ATOM     17  N   UNL     1      -2.255  13.286  22.344  0.00  0.00    +0.000 N 
ATOM     18  C   UNL     1      -1.535  13.577  23.567  0.00  0.00    +0.000 C 
ATOM     19  H   UNL     1      -5.073  13.917  20.828  0.00  0.00    +0.000 HD
ENDROOT
BRANCH   6  20
ATOM     20  C   UNL     1       2.947   6.988  18.668  0.00  0.00    +0.000 A 
ATOM     21  C   UNL     1       2.972   5.764  19.362  0.00  0.00    +0.000 A 
ATOM     22  C   UNL     1       3.696   4.661  18.908  0.00  0.00    +0.000 A 
ATOM     23  C   UNL     1       4.420   4.753  17.728  0.00  0.00    +0.000 A 
ATOM     24  C   UNL     1       4.420   5.953  17.024  0.00  0.00    +0.000 A 
ATOM     25 CL   UNL     1       5.313   6.069  15.556  0.00  0.00    +0.000 Cl
ATOM     26  C   UNL     1       3.697   7.060  17.486  0.00  0.00    +0.000 A 
ENDBRANCH   6  20
BRANCH   1  27
ATOM     27  C   UNL     1      -2.068  10.452  18.440  0.00  0.00    +0.000 C 
BRANCH  27  28
ATOM     28  C   UNL     1      -1.896  11.147  17.093  0.00  0.00    +0.000 C 
BRANCH  28  29
ATOM     29  C   UNL     1      -3.081  10.937  16.162  0.00  0.00    +0.000 C 
BRANCH  29  30
ATOM     30  C   UNL     1      -2.929   9.607  15.433  0.00  0.00    +0.000 C 
BRANCH  30  31
ATOM     31  C   UNL     1      -2.884   9.834  13.930  0.00  0.00    +0.000 C 
BRANCH  31  32
ATOM     32  C   UNL     1      -4.281  10.084  13.378  0.00  0.00    +0.000 C 
BRANCH  32  34
ATOM     33  C   UNL     1      -5.746   9.531  11.417  0.00  0.00    +0.000 C 
ATOM     34  C   UNL     1      -4.324   9.784  11.885  0.00  0.00    +0.000 C 
ENDBRANCH  32  34
ENDBRANCH  31  32
ENDBRANCH  30  31
ENDBRANCH  29  30
ENDBRANCH  28  29
ENDBRANCH  27  28
ENDBRANCH   1  27
TORSDOF 8
ENDMDL
MODEL 3
REMARK VINA RESULT:      -7.4      1.117      1.525
REMARK  Name = 
REMARK  10 active torsions:
REMARK  status: ('A' for Active; 'I' for Inactive)
REMARK    1  A    between atoms: C_1  and  C_2
REMARK    2  A    between atoms: C_2  and  C_3
REMARK    3  A    between atoms: C_3  and  C_4
REMARK    4  A    between atoms: C_4  and  C_5
REMARK    5  A    between atoms: C_5  and  C_6
REMARK    6  A    between atoms: C_6  and  C_7
REMARK    7  A    between atoms: C_7  and  C_8
REMARK    8  A    between atoms: C_8  and  N_9
REMARK    9  A    between atoms: N_14  and  C_15
REMARK   10  A    between atoms: N_32  and  C_33
REMARK                            x       y       z     vdW  Elec       q    Type
REMARK                         _______ _______ _______ _____ _____    ______ ____
ROOT
ATOM      1  N   UNL     1       3.755   6.101  18.834  0.00  0.00    +0.000 N 
ATOM      2  C   UNL     1       2.566   6.364  19.511  0.00  0.00    +0.000 A 
ATOM      3  N   UNL     1       1.986   7.589  19.461  0.00  0.00    +0.000 N 
ATOM      4  C   UNL     1       1.207   8.099  20.602  0.00  0.00    +0.000 C 
ATOM      5  C   UNL     1       1.421   9.642  20.723  0.00  0.00    +0.000 C 
ATOM      6  N   UNL     1       1.153  10.317  19.427  0.00  0.00    +0.000 N 
ATOM      7  C   UNL     1       1.872   9.734  18.272  0.00  0.00    +0.000 C 
ATOM      8  C   UNL     1       1.580   8.220  18.194  0.00  0.00    +0.000 C 
ATOM      9  N   UNL     1       2.252   5.349  20.290  0.00  0.00    +0.000 NA
ATOM     10  C   UNL     1       3.193   4.391  20.049  0.00  0.00    +0.000 A 
ATOM     11  C   UNL     1       4.125   4.820  19.147  0.00  0.00    +0.000 A 
ATOM     12  C   UNL     1       5.245   4.029  18.764  0.00  0.00    +0.000 A 
ATOM     13  O   UNL     1       6.116   4.348  17.962  0.00  0.00    +0.000 OA
ATOM     14  N   UNL     1       5.281   2.817  19.409  0.00  0.00    +0.000 N 
ATOM     15  C   UNL     1       4.373   2.332  20.318  0.00  0.00    +0.000 A 
ATOM     16  O   UNL     1       4.558   1.211  20.796  0.00  0.00    +0.000 OA
ATOM     17  N   UNL     1       3.292   3.150  20.645  0.00  0.00    +0.000 N 
ATOM     18  C   UNL     1       2.313   2.701  21.614  0.00  0.00    +0.000 C 
ATOM     19  H   UNL     1       6.055   2.213  19.184  0.00  0.00    +0.000 HD
ENDROOT
BRANCH   6  20
ATOM     20  C   UNL     1       0.759  11.644  19.351  0.00  0.00    +0.000 A 
ATOM     21  C   UNL     1       1.532  12.560  18.614  0.00  0.00    +0.000 A 
ATOM     22  C   UNL     1       1.148  13.888  18.432  0.00  0.00    +0.000 A 
ATOM     23  C   UNL     1      -0.041  14.341  18.988  0.00  0.00    +0.000 A 
ATOM     24  C   UNL     1      -0.823  13.460  19.729  0.00  0.00    +0.000 A 
ATOM     25 CL   UNL     1      -2.301  14.017  20.414  0.00  0.00    +0.000 Cl
ATOM     26  C   UNL     1      -0.430  12.128  19.913  0.00  0.00    +0.000 A 
ENDBRANCH   6  20
BRANCH   1  27
ATOM     27  C   UNL     1       4.591   7.059  18.127  0.00  0.00    +0.000 C 
BRANCH  27  28
ATOM     28  C   UNL     1       4.499   6.950  16.608  0.00  0.00    +0.000 C 
BRANCH  28  29
ATOM     29  C   UNL     1       5.798   6.486  15.967  0.00  0.00    +0.000 C 
BRANCH  29  30
ATOM     30  C   UNL     1       5.497   5.428  14.912  0.00  0.00    +0.000 C 
BRANCH  30  31
ATOM     31  C   UNL     1       6.792   4.849  14.364  0.00  0.00    +0.000 C 
BRANCH  31  32
ATOM     32  C   UNL     1       6.513   3.886  13.218  0.00  0.00    +0.000 C 
BRANCH  32  34
ATOM     33  C   UNL     1       4.681   3.253  11.625  0.00  0.00    +0.000 C 
ATOM     34  C   UNL     1       5.012   3.692  13.039  0.00  0.00    +0.000 C 
ENDBRANCH  32  34
ENDBRANCH  31  32
ENDBRANCH  30  31
ENDBRANCH  29  30
ENDBRANCH  28  29
ENDBRANCH  27  28
ENDBRANCH   1  27
TORSDOF 8
ENDMDL
MODEL 4
REMARK VINA RESULT:      -7.2      2.648      3.583
REMARK  Name = 
REMARK  10 active torsions:
REMARK  status: ('A' for Active; 'I' for Inactive)
REMARK    1  A    between atoms: C_1  and  C_2
REMARK    2  A    between atoms: C_2  and  C_3
REMARK    3  A    between atoms: C_3  and  C_4
REMARK    4  A    between atoms: C_4  and  C_5
REMARK    5  A    between atoms: C_5  and  C_6
REMARK    6  A    between atoms: C_6  and  C_7
REMARK    7  A    between atoms: C_7  and  C_8
REMARK    8  A    between atoms: C_8  and  N_9
REMARK    9  A    between atoms: N_14  and  C_15
REMARK   10  A    between atoms: N_32  and  C_33
REMARK                            x       y       z     vdW  Elec       q    Type
REMARK                         _______ _______ _______ _____ _____    ______ ____
ROOT
ATOM      1  N   UNL     1       3.447   6.060  17.752  0.00  0.00    +0.000 N 
ATOM      2  C   UNL     1       2.360   6.331  18.579  0.00  0.00    +0.000 A 
ATOM      3  N   UNL     1       1.951   7.605  18.807  0.00  0.00    +0.000 N 
ATOM      4  C   UNL     1       1.338   7.979  20.093  0.00  0.00    +0.000 C 
ATOM      5  C   UNL     1       1.771   9.433  20.465  0.00  0.00    +0.000 C 
ATOM      6  N   UNL     1       1.501  10.370  19.344  0.00  0.00    +0.000 N 
ATOM      7  C   UNL     1       2.045   9.935  18.038  0.00  0.00    +0.000 C 
ATOM      8  C   UNL     1       1.542   8.510  17.720  0.00  0.00    +0.000 C 
ATOM      9  N   UNL     1       1.968   5.232  19.191  0.00  0.00    +0.000 NA
ATOM     10  C   UNL     1       2.748   4.231  18.690  0.00  0.00    +0.000 A 
ATOM     11  C   UNL     1       3.660   4.708  17.791  0.00  0.00    +0.000 A 
ATOM     12  C   UNL     1       4.628   3.874  17.164  0.00  0.00    +0.000 A 
ATOM     13  O   UNL     1       5.472   4.232  16.350  0.00  0.00    +0.000 OA
ATOM     14  N   UNL     1       4.545   2.566  17.575  0.00  0.00    +0.000 N 
ATOM     15  C   UNL     1       3.650   2.031  18.468  0.00  0.00    +0.000 A 
ATOM     16  O   UNL     1       3.714   0.825  18.717  0.00  0.00    +0.000 OA
ATOM     17  N   UNL     1       2.720   2.896  19.041  0.00  0.00    +0.000 N 
ATOM     18  C   UNL     1       1.764   2.393  20.007  0.00  0.00    +0.000 C 
ATOM     19  H   UNL     1       5.210   1.927  17.170  0.00  0.00    +0.000 HD
ENDROOT
BRANCH   6  20
ATOM     20  C   UNL     1       1.289  11.725  19.546  0.00  0.00    +0.000 A 
ATOM     21  C   UNL     1       1.905  12.661  18.696  0.00  0.00    +0.000 A 
ATOM     22  C   UNL     1       1.668  14.033  18.796  0.00  0.00    +0.000 A 
ATOM     23  C   UNL     1       0.793  14.509  19.762  0.00  0.00    +0.000 A 
ATOM     24  C   UNL     1       0.175  13.607  20.622  0.00  0.00    +0.000 A 
ATOM     25 CL   UNL     1      -0.917  14.195  21.817  0.00  0.00    +0.000 Cl
ATOM     26  C   UNL     1       0.420  12.232  20.521  0.00  0.00    +0.000 A 
ENDBRANCH   6  20
BRANCH   1  27
ATOM     27  C   UNL     1       4.351   7.026  17.148  0.00  0.00    +0.000 C 
BRANCH  27  28
ATOM     28  C   UNL     1       5.582   7.329  17.995  0.00  0.00    +0.000 C 
BRANCH  28  29
ATOM     29  C   UNL     1       6.868   7.366  17.183  0.00  0.00    +0.000 C 
BRANCH  29  30
ATOM     30  C   UNL     1       8.028   7.781  18.081  0.00  0.00    +0.000 C 
BRANCH  30  31
ATOM     31  C   UNL     1       8.306   9.268  17.926  0.00  0.00    +0.000 C 
BRANCH  31  32
ATOM     32  C   UNL     1       9.230   9.764  19.030  0.00  0.00    +0.000 C 
BRANCH  32  34
ATOM     33  C   UNL     1      10.442  11.591  17.809  0.00  0.00    +0.000 C 
ATOM     34  C   UNL     1       9.446  11.267  18.908  0.00  0.00    +0.000 C 
ENDBRANCH  32  34
ENDBRANCH  31  32
ENDBRANCH  30  31
ENDBRANCH  29  30
ENDBRANCH  28  29
ENDBRANCH  27  28
ENDBRANCH   1  27
TORSDOF 8
ENDMDL
MODEL 5
REMARK VINA RESULT:      -7.2      2.219      3.329
REMARK  Name = 
REMARK  10 active torsions:
REMARK  status: ('A' for Active; 'I' for Inactive)
REMARK    1  A    between atoms: C_1  and  C_2
REMARK    2  A    between atoms: C_2  and  C_3
REMARK    3  A    between atoms: C_3  and  C_4
REMARK    4  A    between atoms: C_4  and  C_5
REMARK    5  A    between atoms: C_5  and  C_6
REMARK    6  A    between atoms: C_6  and  C_7
REMARK    7  A    between atoms: C_7  and  C_8
REMARK    8  A    between atoms: C_8  and  N_9
REMARK    9  A    between atoms: N_14  and  C_15
REMARK   10  A    between atoms: N_32  and  C_33
REMARK                            x       y       z     vdW  Elec       q    Type
REMARK                         _______ _______ _______ _____ _____    ______ ____
ROOT
ATOM      1  N   UNL     1       3.549   6.128  18.309  0.00  0.00    +0.000 N 
ATOM      2  C   UNL     1       2.508   6.505  19.154  0.00  0.00    +0.000 A 
ATOM      3  N   UNL     1       1.980   7.754  19.104  0.00  0.00    +0.000 N 
ATOM      4  C   UNL     1       1.434   8.388  20.316  0.00  0.00    +0.000 C 
ATOM      5  C   UNL     1       1.732   9.921  20.273  0.00  0.00    +0.000 C 
ATOM      6  N   UNL     1       1.272  10.516  18.991  0.00  0.00    +0.000 N 
ATOM      7  C   UNL     1       1.755   9.811  17.782  0.00  0.00    +0.000 C 
ATOM      8  C   UNL     1       1.388   8.314  17.878  0.00  0.00    +0.000 C 
ATOM      9  N   UNL     1       2.290   5.569  20.054  0.00  0.00    +0.000 NA
ATOM     10  C   UNL     1       3.133   4.544  19.735  0.00  0.00    +0.000 A 
ATOM     11  C   UNL     1       3.912   4.854  18.656  0.00  0.00    +0.000 A 
ATOM     12  C   UNL     1       4.913   3.975  18.155  0.00  0.00    +0.000 A 
ATOM     13  O   UNL     1       5.646   4.187  17.194  0.00  0.00    +0.000 OA
ATOM     14  N   UNL     1       5.009   2.813  18.879  0.00  0.00    +0.000 N 
ATOM     15  C   UNL     1       4.251   2.447  19.965  0.00  0.00    +0.000 A 
ATOM     16  O   UNL     1       4.468   1.354  20.494  0.00  0.00    +0.000 OA
ATOM     17  N   UNL     1       3.280   3.346  20.403  0.00  0.00    +0.000 N 
ATOM     18  C   UNL     1       2.465   3.024  21.558  0.00  0.00    +0.000 C 
ATOM     19  H   UNL     1       5.705   2.153  18.576  0.00  0.00    +0.000 HD
ENDROOT
BRANCH   6  20
ATOM     20  C   UNL     1       0.928  11.853  18.877  0.00  0.00    +0.000 A 
ATOM     21  C   UNL     1      -0.392  12.259  19.145  0.00  0.00    +0.000 A 
ATOM     22  C   UNL     1      -0.782  13.598  19.126  0.00  0.00    +0.000 A 
ATOM     23  C   UNL     1       0.154  14.582  18.838  0.00  0.00    +0.000 A 
ATOM     24  C   UNL     1       1.465  14.210  18.561  0.00  0.00    +0.000 A 
ATOM     25 CL   UNL     1       2.630  15.428  18.209  0.00  0.00    +0.000 Cl
ATOM     26  C   UNL     1       1.851  12.863  18.576  0.00  0.00    +0.000 A 
ENDBRANCH   6  20
BRANCH   1  27
ATOM     27  C   UNL     1       4.289   6.984  17.395  0.00  0.00    +0.000 C 
BRANCH  27  28
ATOM     28  C   UNL     1       5.549   7.590  18.006  0.00  0.00    +0.000 C 
BRANCH  28  29
ATOM     29  C   UNL     1       6.801   7.304  17.191  0.00  0.00    +0.000 C 
BRANCH  29  30
ATOM     30  C   UNL     1       8.036   7.682  18.001  0.00  0.00    +0.000 C 
BRANCH  30  31
ATOM     31  C   UNL     1       8.248   9.187  17.962  0.00  0.00    +0.000 C 
BRANCH  31  32
ATOM     32  C   UNL     1       9.193   9.629  19.072  0.00  0.00    +0.000 C 
BRANCH  32  34
ATOM     33  C   UNL     1      10.285  11.613  20.152  0.00  0.00    +0.000 C 
ATOM     34  C   UNL     1       9.229  11.150  19.165  0.00  0.00    +0.000 C 
ENDBRANCH  32  34
ENDBRANCH  31  32
ENDBRANCH  30  31
ENDBRANCH  29  30
ENDBRANCH  28  29
ENDBRANCH  27  28
ENDBRANCH   1  27
TORSDOF 8
ENDMDL
MODEL 6
REMARK VINA RESULT:      -7.2      5.680      9.719
REMARK  Name = 
REMARK  10 active torsions:
REMARK  status: ('A' for Active; 'I' for Inactive)
REMARK    1  A    between atoms: C_1  and  C_2
REMARK    2  A    between atoms: C_2  and  C_3
REMARK    3  A    between atoms: C_3  and  C_4
REMARK    4  A    between atoms: C_4  and  C_5
REMARK    5  A    between atoms: C_5  and  C_6
REMARK    6  A    between atoms: C_6  and  C_7
REMARK    7  A    between atoms: C_7  and  C_8
REMARK    8  A    between atoms: C_8  and  N_9
REMARK    9  A    between atoms: N_14  and  C_15
REMARK   10  A    between atoms: N_32  and  C_33
REMARK                            x       y       z     vdW  Elec       q    Type
REMARK                         _______ _______ _______ _____ _____    ______ ____
ROOT
ATOM      1  N   UNL     1      -1.519  11.047  19.396  0.00  0.00    +0.000 N 
ATOM      2  C   UNL     1      -0.273  10.917  20.005  0.00  0.00    +0.000 A 
ATOM      3  N   UNL     1       0.628  10.002  19.571  0.00  0.00    +0.000 N 
ATOM      4  C   UNL     1       1.574   9.375  20.511  0.00  0.00    +0.000 C 
ATOM      5  C   UNL     1       1.814   7.891  20.087  0.00  0.00    +0.000 C 
ATOM      6  N   UNL     1       2.200   7.804  18.654  0.00  0.00    +0.000 N 
ATOM      7  C   UNL     1       1.289   8.517  17.731  0.00  0.00    +0.000 C 
ATOM      8  C   UNL     1       1.135   9.984  18.189  0.00  0.00    +0.000 C 
ATOM      9  N   UNL     1      -0.223  11.650  21.099  0.00  0.00    +0.000 NA
ATOM     10  C   UNL     1      -1.408  12.324  21.148  0.00  0.00    +0.000 A 
ATOM     11  C   UNL     1      -2.223  11.983  20.106  0.00  0.00    +0.000 A 
ATOM     12  C   UNL     1      -3.538  12.506  19.957  0.00  0.00    +0.000 A 
ATOM     13  O   UNL     1      -4.321  12.246  19.049  0.00  0.00    +0.000 OA
ATOM     14  N   UNL     1      -3.886  13.362  20.973  0.00  0.00    +0.000 N 
ATOM     15  C   UNL     1      -3.110  13.743  22.039  0.00  0.00    +0.000 A 
ATOM     16  O   UNL     1      -3.583  14.533  22.861  0.00  0.00    +0.000 OA
ATOM     17  N   UNL     1      -1.827  13.205  22.125  0.00  0.00    +0.000 N 
ATOM     18  C   UNL     1      -0.970  13.554  23.240  0.00  0.00    +0.000 C 
ATOM     19  H   UNL     1      -4.810  13.760  20.927  0.00  0.00    +0.000 HD
ENDROOT
BRANCH   6  20
ATOM     20  C   UNL     1       2.951   6.753  18.152  0.00  0.00    +0.000 A 
ATOM     21  C   UNL     1       4.218   7.005  17.596  0.00  0.00    +0.000 A 
ATOM     22  C   UNL     1       5.056   5.983  17.148  0.00  0.00    +0.000 A 
ATOM     23  C   UNL     1       4.642   4.663  17.250  0.00  0.00    +0.000 A 
ATOM     24  C   UNL     1       3.390   4.383  17.788  0.00  0.00    +0.000 A 
ATOM     25 CL   UNL     1       2.877   2.745  17.922  0.00  0.00    +0.000 Cl
ATOM     26  C   UNL     1       2.551   5.413  18.232  0.00  0.00    +0.000 A 
ENDBRANCH   6  20
BRANCH   1  27
ATOM     27  C   UNL     1      -2.082  10.193  18.362  0.00  0.00    +0.000 C 
BRANCH  27  28
ATOM     28  C   UNL     1      -2.086  10.829  16.975  0.00  0.00    +0.000 C 
BRANCH  28  29
ATOM     29  C   UNL     1      -2.609   9.894  15.895  0.00  0.00    +0.000 C 
BRANCH  29  30
ATOM     30  C   UNL     1      -3.246  10.711  14.777  0.00  0.00    +0.000 C 
BRANCH  30  31
ATOM     31  C   UNL     1      -3.267   9.908  13.486  0.00  0.00    +0.000 C 
BRANCH  31  32
ATOM     32  C   UNL     1      -4.696   9.572  13.080  0.00  0.00    +0.000 C 
BRANCH  32  34
ATOM     33  C   UNL     1      -6.376   9.849  11.237  0.00  0.00    +0.000 C 
ATOM     34  C   UNL     1      -4.901   9.830  11.592  0.00  0.00    +0.000 C 
ENDBRANCH  32  34
ENDBRANCH  31  32
ENDBRANCH  30  31
ENDBRANCH  29  30
ENDBRANCH  28  29
ENDBRANCH  27  28
ENDBRANCH   1  27
TORSDOF 8
ENDMDL
MODEL 7
REMARK VINA RESULT:      -7.2      2.405      3.394
REMARK  Name = 
REMARK  10 active torsions:
REMARK  status: ('A' for Active; 'I' for Inactive)
REMARK    1  A    between atoms: C_1  and  C_2
REMARK    2  A    between atoms: C_2  and  C_3
REMARK    3  A    between atoms: C_3  and  C_4
REMARK    4  A    between atoms: C_4  and  C_5
REMARK    5  A    between atoms: C_5  and  C_6
REMARK    6  A    between atoms: C_6  and  C_7
REMARK    7  A    between atoms: C_7  and  C_8
REMARK    8  A    between atoms: C_8  and  N_9
REMARK    9  A    between atoms: N_14  and  C_15
REMARK   10  A    between atoms: N_32  and  C_33
REMARK                            x       y       z     vdW  Elec       q    Type
REMARK                         _______ _______ _______ _____ _____    ______ ____
ROOT
ATOM      1  N   UNL     1       3.453   6.084  17.669  0.00  0.00    +0.000 N 
ATOM      2  C   UNL     1       2.379   6.370  18.508  0.00  0.00    +0.000 A 
ATOM      3  N   UNL     1       1.978   7.647  18.726  0.00  0.00    +0.000 N 
ATOM      4  C   UNL     1       1.386   8.039  20.016  0.00  0.00    +0.000 C 
ATOM      5  C   UNL     1       1.829   9.496  20.365  0.00  0.00    +0.000 C 
ATOM      6  N   UNL     1       1.547  10.421  19.237  0.00  0.00    +0.000 N 
ATOM      7  C   UNL     1       2.070   9.967  17.928  0.00  0.00    +0.000 C 
ATOM      8  C   UNL     1       1.557   8.540  17.635  0.00  0.00    +0.000 C 
ATOM      9  N   UNL     1       1.992   5.280  19.139  0.00  0.00    +0.000 NA
ATOM     10  C   UNL     1       2.761   4.269  18.639  0.00  0.00    +0.000 A 
ATOM     11  C   UNL     1       3.662   4.732  17.722  0.00  0.00    +0.000 A 
ATOM     12  C   UNL     1       4.618   3.886  17.091  0.00  0.00    +0.000 A 
ATOM     13  O   UNL     1       5.452   4.232  16.261  0.00  0.00    +0.000 OA
ATOM     14  N   UNL     1       4.536   2.584  17.518  0.00  0.00    +0.000 N 
ATOM     15  C   UNL     1       3.652   2.063  18.430  0.00  0.00    +0.000 A 
ATOM     16  O   UNL     1       3.715   0.860  18.693  0.00  0.00    +0.000 OA
ATOM     17  N   UNL     1       2.733   2.939  19.007  0.00  0.00    +0.000 N 
ATOM     18  C   UNL     1       1.789   2.451  19.992  0.00  0.00    +0.000 C 
ATOM     19  H   UNL     1       5.193   1.938  17.112  0.00  0.00    +0.000 HD
ENDROOT
BRANCH   6  20
ATOM     20  C   UNL     1       1.342  11.778  19.426  0.00  0.00    +0.000 A 
ATOM     21  C   UNL     1       0.475  12.217  20.443  0.00  0.00    +0.000 A 
ATOM     22  C   UNL     1       0.289  13.569  20.736  0.00  0.00    +0.000 A 
ATOM     23  C   UNL     1       0.979  14.530  20.011  0.00  0.00    +0.000 A 
ATOM     24  C   UNL     1       1.838  14.125  18.994  0.00  0.00    +0.000 A 
ATOM     25 CL   UNL     1       2.701  15.316  18.097  0.00  0.00    +0.000 Cl
ATOM     26  C   UNL     1       2.017  12.768  18.700  0.00  0.00    +0.000 A 
ENDBRANCH   6  20
BRANCH   1  27
ATOM     27  C   UNL     1       4.352   7.040  17.040  0.00  0.00    +0.000 C 
BRANCH  27  28
ATOM     28  C   UNL     1       5.568   7.392  17.892  0.00  0.00    +0.000 C 
BRANCH  28  29
ATOM     29  C   UNL     1       6.881   7.258  17.136  0.00  0.00    +0.000 C 
BRANCH  29  30
ATOM     30  C   UNL     1       8.033   7.695  18.033  0.00  0.00    +0.000 C 
BRANCH  30  31
ATOM     31  C   UNL     1       8.199   9.206  17.976  0.00  0.00    +0.000 C 
BRANCH  31  32
ATOM     32  C   UNL     1       9.221   9.678  19.002  0.00  0.00    +0.000 C 
BRANCH  32  34
ATOM     33  C   UNL     1       8.991  11.922  17.905  0.00  0.00    +0.000 C 
ATOM     34  C   UNL     1       9.097  11.180  19.225  0.00  0.00    +0.000 C 
ENDBRANCH  32  34
ENDBRANCH  31  32
ENDBRANCH  30  31
ENDBRANCH  29  30
ENDBRANCH  28  29
ENDBRANCH  27  28
ENDBRANCH   1  27
TORSDOF 8
ENDMDL
MODEL 8
REMARK VINA RESULT:      -6.9      5.954     10.005
REMARK  Name = 
REMARK  10 active torsions:
REMARK  status: ('A' for Active; 'I' for Inactive)
REMARK    1  A    between atoms: C_1  and  C_2
REMARK    2  A    between atoms: C_2  and  C_3
REMARK    3  A    between atoms: C_3  and  C_4
REMARK    4  A    between atoms: C_4  and  C_5
REMARK    5  A    between atoms: C_5  and  C_6
REMARK    6  A    between atoms: C_6  and  C_7
REMARK    7  A    between atoms: C_7  and  C_8
REMARK    8  A    between atoms: C_8  and  N_9
REMARK    9  A    between atoms: N_14  and  C_15
REMARK   10  A    between atoms: N_32  and  C_33
REMARK                            x       y       z     vdW  Elec       q    Type
REMARK                         _______ _______ _______ _____ _____    ______ ____
ROOT
ATOM      1  N   UNL     1      -2.320  11.360  18.950  0.00  0.00    +0.000 N 
ATOM      2  C   UNL     1      -1.117  11.444  19.646  0.00  0.00    +0.000 A 
ATOM      3  N   UNL     1      -0.099  10.583  19.395  0.00  0.00    +0.000 N 
ATOM      4  C   UNL     1       0.831  10.187  20.467  0.00  0.00    +0.000 C 
ATOM      5  C   UNL     1       1.246   8.695  20.262  0.00  0.00    +0.000 C 
ATOM      6  N   UNL     1       1.745   8.467  18.881  0.00  0.00    +0.000 N 
ATOM      7  C   UNL     1       0.839   8.954  17.816  0.00  0.00    +0.000 C 
ATOM      8  C   UNL     1       0.508  10.442  18.062  0.00  0.00    +0.000 C 
ATOM      9  N   UNL     1      -1.220  12.312  20.632  0.00  0.00    +0.000 NA
ATOM     10  C   UNL     1      -2.466  12.856  20.517  0.00  0.00    +0.000 A 
ATOM     11  C   UNL     1      -3.163  12.299  19.483  0.00  0.00    +0.000 A 
ATOM     12  C   UNL     1      -4.509  12.654  19.185  0.00  0.00    +0.000 A 
ATOM     13  O   UNL     1      -5.193  12.197  18.274  0.00  0.00    +0.000 OA
ATOM     14  N   UNL     1      -5.014  13.590  20.053  0.00  0.00    +0.000 N 
ATOM     15  C   UNL     1      -4.361  14.186  21.103  0.00  0.00    +0.000 A 
ATOM     16  O   UNL     1      -4.969  15.019  21.780  0.00  0.00    +0.000 OA
ATOM     17  N   UNL     1      -3.041  13.805  21.339  0.00  0.00    +0.000 N 
ATOM     18  C   UNL     1      -2.308  14.383  22.447  0.00  0.00    +0.000 C 
ATOM     19  H   UNL     1      -5.967  13.878  19.897  0.00  0.00    +0.000 HD
ENDROOT
BRANCH   6  20
ATOM     20  C   UNL     1       2.630   7.447  18.572  0.00  0.00    +0.000 A 
ATOM     21  C   UNL     1       3.577   7.633  17.548  0.00  0.00    +0.000 A 
ATOM     22  C   UNL     1       4.547   6.677  17.243  0.00  0.00    +0.000 A 
ATOM     23  C   UNL     1       4.598   5.496  17.969  0.00  0.00    +0.000 A 
ATOM     24  C   UNL     1       3.670   5.281  18.983  0.00  0.00    +0.000 A 
ATOM     25 CL   UNL     1       3.735   3.818  19.889  0.00  0.00    +0.000 Cl
ATOM     26  C   UNL     1       2.695   6.241  19.281  0.00  0.00    +0.000 A 
ENDBRANCH   6  20
BRANCH   1  27
ATOM     27  C   UNL     1      -2.717  10.326  18.008  0.00  0.00    +0.000 C 
BRANCH  27  28
ATOM     28  C   UNL     1      -2.657  10.767  16.549  0.00  0.00    +0.000 C 
BRANCH  28  29
ATOM     29  C   UNL     1      -2.917   9.629  15.573  0.00  0.00    +0.000 C 
BRANCH  29  30
ATOM     30  C   UNL     1      -2.989  10.180  14.154  0.00  0.00    +0.000 C 
BRANCH  30  31
ATOM     31  C   UNL     1      -4.288   9.751  13.490  0.00  0.00    +0.000 C 
BRANCH  31  32
ATOM     32  C   UNL     1      -4.222   9.961  11.983  0.00  0.00    +0.000 C 
BRANCH  32  34
ATOM     33  C   UNL     1      -6.693   9.552  11.829  0.00  0.00    +0.000 C 
ATOM     34  C   UNL     1      -5.326   9.175  11.288  0.00  0.00    +0.000 C 
ENDBRANCH  32  34
ENDBRANCH  31  32
ENDBRANCH  30  31
ENDBRANCH  29  30
ENDBRANCH  28  29
ENDBRANCH  27  28
ENDBRANCH   1  27
TORSDOF 8
ENDMDL
MODEL 9
REMARK VINA RESULT:      -6.9      2.096      3.166
REMARK  Name = 
REMARK  10 active torsions:
REMARK  status: ('A' for Active; 'I' for Inactive)
REMARK    1  A    between atoms: C_1  and  C_2
REMARK    2  A    between atoms: C_2  and  C_3
REMARK    3  A    between atoms: C_3  and  C_4
REMARK    4  A    between atoms: C_4  and  C_5
REMARK    5  A    between atoms: C_5  and  C_6
REMARK    6  A    between atoms: C_6  and  C_7
REMARK    7  A    between atoms: C_7  and  C_8
REMARK    8  A    between atoms: C_8  and  N_9
REMARK    9  A    between atoms: N_14  and  C_15
REMARK   10  A    between atoms: N_32  and  C_33
REMARK                            x       y       z     vdW  Elec       q    Type
REMARK                         _______ _______ _______ _____ _____    ______ ____
ROOT
ATOM      1  N   UNL     1       3.747   6.071  19.014  0.00  0.00    +0.000 N 
ATOM      2  C   UNL     1       2.506   6.333  19.588  0.00  0.00    +0.000 A 
ATOM      3  N   UNL     1       1.942   7.564  19.511  0.00  0.00    +0.000 N 
ATOM      4  C   UNL     1       1.069   8.060  20.589  0.00  0.00    +0.000 C 
ATOM      5  C   UNL     1       1.284   9.598  20.759  0.00  0.00    +0.000 C 
ATOM      6  N   UNL     1       1.137  10.301  19.458  0.00  0.00    +0.000 N 
ATOM      7  C   UNL     1       1.951   9.733  18.360  0.00  0.00    +0.000 C 
ATOM      8  C   UNL     1       1.654   8.223  18.226  0.00  0.00    +0.000 C 
ATOM      9  N   UNL     1       2.115   5.306  20.316  0.00  0.00    +0.000 NA
ATOM     10  C   UNL     1       3.067   4.344  20.140  0.00  0.00    +0.000 A 
ATOM     11  C   UNL     1       4.078   4.781  19.333  0.00  0.00    +0.000 A 
ATOM     12  C   UNL     1       5.221   3.986  19.035  0.00  0.00    +0.000 A 
ATOM     13  O   UNL     1       6.163   4.313  18.320  0.00  0.00    +0.000 OA
ATOM     14  N   UNL     1       5.190   2.762  19.656  0.00  0.00    +0.000 N 
ATOM     15  C   UNL     1       4.201   2.269  20.471  0.00  0.00    +0.000 A 
ATOM     16  O   UNL     1       4.334   1.136  20.941  0.00  0.00    +0.000 OA
ATOM     17  N   UNL     1       3.103   3.091  20.717  0.00  0.00    +0.000 N 
ATOM     18  C   UNL     1       2.038   2.633  21.587  0.00  0.00    +0.000 C 
ATOM     19  H   UNL     1       5.976   2.155  19.489  0.00  0.00    +0.000 HD
ENDROOT
BRANCH   6  20
ATOM     20  C   UNL     1       0.762  11.632  19.374  0.00  0.00    +0.000 A 
ATOM     21  C   UNL     1       1.521  12.522  18.592  0.00  0.00    +0.000 A 
ATOM     22  C   UNL     1       1.152  13.854  18.402  0.00  0.00    +0.000 A 
ATOM     23  C   UNL     1      -0.007  14.336  18.995  0.00  0.00    +0.000 A 
ATOM     24  C   UNL     1      -0.774  13.481  19.780  0.00  0.00    +0.000 A 
ATOM     25 CL   UNL     1      -2.215  14.075  20.512  0.00  0.00    +0.000 Cl
ATOM     26  C   UNL     1      -0.396  12.146  19.973  0.00  0.00    +0.000 A 
ENDBRANCH   6  20
BRANCH   1  27
ATOM     27  C   UNL     1       4.650   7.034  18.403  0.00  0.00    +0.000 C 
BRANCH  27  28
ATOM     28  C   UNL     1       4.768   6.891  16.889  0.00  0.00    +0.000 C 
BRANCH  28  29
ATOM     29  C   UNL     1       6.206   6.960  16.396  0.00  0.00    +0.000 C 
BRANCH  29  30
ATOM     30  C   UNL     1       7.142   7.173  17.580  0.00  0.00    +0.000 C 
BRANCH  30  31
ATOM     31  C   UNL     1       8.084   8.333  17.303  0.00  0.00    +0.000 C 
BRANCH  31  32
ATOM     32  C   UNL     1       8.541   8.983  18.602  0.00  0.00    +0.000 C 
BRANCH  32  34
ATOM     33  C   UNL     1       9.803  10.948  19.520  0.00  0.00    +0.000 C 
ATOM     34  C   UNL     1       8.997  10.415  18.350  0.00  0.00    +0.000 C 
ENDBRANCH  32  34
ENDBRANCH  31  32
ENDBRANCH  30  31
ENDBRANCH  29  30
ENDBRANCH  28  29
ENDBRANCH  27  28
ENDBRANCH   1  27
TORSDOF 8
ENDMDL
