MODEL 1
REMARK VINA RESULT:      -6.6      0.000      0.000
REMARK  Name = 
REMARK  9 active torsions:
REMARK  status: ('A' for Active; 'I' for Inactive)
REMARK    1  A    between atoms: C_1  and  C_2
REMARK    2  A    between atoms: C_2  and  O_3
REMARK    3  A    between atoms: O_3  and  C_4
REMARK    4  A    between atoms: C_4  and  C_6
REMARK    5  A    between atoms: C_6  and  C_7
REMARK    6  A    between atoms: C_7  and  C_8
REMARK    7  A    between atoms: C_11  and  O_12
REMARK    8  A    between atoms: O_12  and  C_13
REMARK    9  A    between atoms: C_19  and  C_21
REMARK                            x       y       z     vdW  Elec       q    Type
REMARK                         _______ _______ _______ _____ _____    ______ ____
ROOT
ATOM      1  C   UNL     1       5.648   5.703  16.310  0.00  0.00    +0.000 C 
ATOM      2  C   UNL     1       5.010   6.816  17.193  0.00  0.00    +0.000 C 
ATOM      3  C   UNL     1       4.833   6.384  18.652  0.00  0.00    +0.000 C 
ATOM      4  N   UNL     1       4.057   5.148  18.721  0.00  0.00    +0.000 N 
ATOM      5  C   UNL     1       2.733   5.206  19.176  0.00  0.00    +0.000 C 
ATOM      6  O   UNL     1       2.226   6.292  19.470  0.00  0.00    +0.000 OA
ATOM      7  C   UNL     1       4.675   4.028  18.014  0.00  0.00    +0.000 C 
ATOM      8  C   UNL     1       4.910   4.369  16.544  0.00  0.00    +0.000 C 
ENDROOT
BRANCH   5   9
ATOM      9  C   UNL     1       1.981   3.969  19.289  0.00  0.00    +0.000 A 
ATOM     10  C   UNL     1       1.079   3.366  18.431  0.00  0.00    +0.000 A 
ATOM     11  N   UNL     1       0.485   2.206  18.889  0.00  0.00    +0.000 NA
ATOM     12  C   UNL     1       1.006   1.891  20.053  0.00  0.00    +0.000 A 
ATOM     13  S   UNL     1       2.209   2.951  20.656  0.00  0.00    +0.000 S 
ENDBRANCH   5   9
BRANCH   1  14
ATOM     14  C   UNL     1       7.118   5.604  16.729  0.00  0.00    +0.000 C 
ATOM     15  O   UNL     1       7.673   4.581  17.102  0.00  0.00    +0.000 OA
BRANCH  14  16
ATOM     16  O   UNL     1       7.667   6.846  16.789  0.00  0.00    +0.000 OA
BRANCH  16  18
ATOM     17  C   UNL     1       8.128   8.834  17.948  0.00  0.00    +0.000 C 
ATOM     18  C   UNL     1       8.079   7.327  18.071  0.00  0.00    +0.000 C 
ENDBRANCH  16  18
ENDBRANCH  14  16
ENDBRANCH   1  14
BRANCH   1  19
ATOM     19  C   UNL     1       5.533   6.107  14.810  0.00  0.00    +0.000 C 
BRANCH  19  20
ATOM     20  C   UNL     1       5.941   5.065  13.784  0.00  0.00    +0.000 A 
ATOM     21  C   UNL     1       7.234   5.047  13.247  0.00  0.00    +0.000 A 
ATOM     22  C   UNL     1       7.620   4.039  12.355  0.00  0.00    +0.000 A 
ATOM     23  C   UNL     1       6.726   3.030  11.996  0.00  0.00    +0.000 A 
ATOM     24  C   UNL     1       5.423   3.070  12.480  0.00  0.00    +0.000 A 
ATOM     25  C   UNL     1       5.040   4.070  13.377  0.00  0.00    +0.000 A 
BRANCH  23  26
ATOM     26  O   UNL     1       7.211   2.064  11.155  0.00  0.00    +0.000 OA
ATOM     27  C   UNL     1       6.383   0.909  11.039  0.00  0.00    +0.000 C 
ENDBRANCH  23  26
ENDBRANCH  19  20
ENDBRANCH   1  19
TORSDOF 7
ENDMDL
MODEL 2
REMARK VINA RESULT:      -6.5      0.674      1.145
REMARK  Name = 
REMARK  9 active torsions:
REMARK  status: ('A' for Active; 'I' for Inactive)
REMARK    1  A    between atoms: C_1  and  C_2
REMARK    2  A    between atoms: C_2  and  O_3
REMARK    3  A    between atoms: O_3  and  C_4
REMARK    4  A    between atoms: C_4  and  C_6
REMARK    5  A    between atoms: C_6  and  C_7
REMARK    6  A    between atoms: C_7  and  C_8
REMARK    7  A    between atoms: C_11  and  O_12
REMARK    8  A    between atoms: O_12  and  C_13
REMARK    9  A    between atoms: C_19  and  C_21
REMARK                            x       y       z     vdW  Elec       q    Type
REMARK                         _______ _______ _______ _____ _____    ______ ____
ROOT
ATOM      1  C   UNL     1       5.644   5.464  15.727  0.00  0.00    +0.000 C 
ATOM      2  C   UNL     1       4.974   6.667  16.455  0.00  0.00    +0.000 C 
ATOM      3  C   UNL     1       4.799   6.425  17.958  0.00  0.00    +0.000 C 
ATOM      4  N   UNL     1       4.051   5.189  18.185  0.00  0.00    +0.000 N 
ATOM      5  C   UNL     1       2.724   5.274  18.625  0.00  0.00    +0.000 C 
ATOM      6  O   UNL     1       2.189   6.378  18.772  0.00  0.00    +0.000 OA
ATOM      7  C   UNL     1       4.700   4.002  17.633  0.00  0.00    +0.000 C 
ATOM      8  C   UNL     1       4.936   4.154  16.131  0.00  0.00    +0.000 C 
ENDROOT
BRANCH   5   9
ATOM      9  C   UNL     1       2.001   4.045  18.896  0.00  0.00    +0.000 A 
ATOM     10  C   UNL     1       1.126   3.308  18.118  0.00  0.00    +0.000 A 
ATOM     11  N   UNL     1       0.554   2.205  18.722  0.00  0.00    +0.000 NA
ATOM     12  C   UNL     1       1.065   2.065  19.924  0.00  0.00    +0.000 A 
ATOM     13  S   UNL     1       2.233   3.229  20.391  0.00  0.00    +0.000 S 
ENDBRANCH   5   9
BRANCH   1  14
ATOM     14  C   UNL     1       7.114   5.456  16.160  0.00  0.00    +0.000 C 
ATOM     15  O   UNL     1       7.761   4.453  16.422  0.00  0.00    +0.000 OA
BRANCH  14  16
ATOM     16  O   UNL     1       7.540   6.728  16.375  0.00  0.00    +0.000 OA
BRANCH  16  18
ATOM     17  C   UNL     1       7.926   8.581  17.762  0.00  0.00    +0.000 C 
ATOM     18  C   UNL     1       7.965   7.071  17.696  0.00  0.00    +0.000 C 
ENDBRANCH  16  18
ENDBRANCH  14  16
ENDBRANCH   1  14
BRANCH   1  19
ATOM     19  C   UNL     1       5.529   5.665  14.187  0.00  0.00    +0.000 C 
BRANCH  19  20
ATOM     20  C   UNL     1       5.765   4.445  13.314  0.00  0.00    +0.000 A 
ATOM     21  C   UNL     1       4.693   3.728  12.769  0.00  0.00    +0.000 A 
ATOM     22  C   UNL     1       4.924   2.647  11.910  0.00  0.00    +0.000 A 
ATOM     23  C   UNL     1       6.226   2.274  11.574  0.00  0.00    +0.000 A 
ATOM     24  C   UNL     1       7.298   2.944  12.154  0.00  0.00    +0.000 A 
ATOM     25  C   UNL     1       7.067   4.028  13.004  0.00  0.00    +0.000 A 
BRANCH  23  26
ATOM     26  O   UNL     1       6.348   1.235  10.691  0.00  0.00    +0.000 OA
ATOM     27  C   UNL     1       6.178  -0.058  11.270  0.00  0.00    +0.000 C 
ENDBRANCH  23  26
ENDBRANCH  19  20
ENDBRANCH   1  19
TORSDOF 7
ENDMDL
MODEL 3
REMARK VINA RESULT:      -6.5      1.586      1.849
REMARK  Name = 
REMARK  9 active torsions:
REMARK  status: ('A' for Active; 'I' for Inactive)
REMARK    1  A    between atoms: C_1  and  C_2
REMARK    2  A    between atoms: C_2  and  O_3
REMARK    3  A    between atoms: O_3  and  C_4
REMARK    4  A    between atoms: C_4  and  C_6
REMARK    5  A    between atoms: C_6  and  C_7
REMARK    6  A    between atoms: C_7  and  C_8
REMARK    7  A    between atoms: C_11  and  O_12
REMARK    8  A    between atoms: O_12  and  C_13
REMARK    9  A    between atoms: C_19  and  C_21
REMARK                            x       y       z     vdW  Elec       q    Type
REMARK                         _______ _______ _______ _____ _____    ______ ____
ROOT
ATOM      1  C   UNL     1       6.706   5.607  17.543  0.00  0.00    +0.000 C 
ATOM      2  C   UNL     1       5.550   6.325  16.785  0.00  0.00    +0.000 C 
ATOM      3  C   UNL     1       4.496   6.909  17.731  0.00  0.00    +0.000 C 
ATOM      4  N   UNL     1       3.979   5.866  18.615  0.00  0.00    +0.000 N 
ATOM      5  C   UNL     1       2.684   5.378  18.397  0.00  0.00    +0.000 C 
ATOM      6  O   UNL     1       2.016   5.796  17.446  0.00  0.00    +0.000 OA
ATOM      7  C   UNL     1       5.004   5.242  19.448  0.00  0.00    +0.000 C 
ATOM      8  C   UNL     1       6.117   4.641  18.591  0.00  0.00    +0.000 C 
ENDROOT
BRANCH   5   9
ATOM      9  C   UNL     1       2.156   4.377  19.306  0.00  0.00    +0.000 A 
ATOM     10  C   UNL     1       1.519   4.497  20.528  0.00  0.00    +0.000 A 
ATOM     11  N   UNL     1       1.204   3.315  21.170  0.00  0.00    +0.000 NA
ATOM     12  C   UNL     1       1.525   2.307  20.390  0.00  0.00    +0.000 A 
ATOM     13  S   UNL     1       2.217   2.713  18.875  0.00  0.00    +0.000 S 
ENDBRANCH   5   9
BRANCH   1  14
ATOM     14  C   UNL     1       7.540   6.706  18.208  0.00  0.00    +0.000 C 
ATOM     15  O   UNL     1       8.271   6.542  19.174  0.00  0.00    +0.000 OA
BRANCH  14  16
ATOM     16  O   UNL     1       7.217   7.916  17.680  0.00  0.00    +0.000 OA
BRANCH  16  18
ATOM     17  C   UNL     1       8.610   9.568  18.595  0.00  0.00    +0.000 C 
ATOM     18  C   UNL     1       8.289   8.797  17.335  0.00  0.00    +0.000 C 
ENDBRANCH  16  18
ENDBRANCH  14  16
ENDBRANCH   1  14
BRANCH   1  19
ATOM     19  C   UNL     1       7.570   4.806  16.524  0.00  0.00    +0.000 C 
BRANCH  19  20
ATOM     20  C   UNL     1       6.934   4.486  15.183  0.00  0.00    +0.000 A 
ATOM     21  C   UNL     1       7.511   4.924  13.985  0.00  0.00    +0.000 A 
ATOM     22  C   UNL     1       6.952   4.563  12.754  0.00  0.00    +0.000 A 
ATOM     23  C   UNL     1       5.819   3.751  12.699  0.00  0.00    +0.000 A 
ATOM     24  C   UNL     1       5.206   3.357  13.883  0.00  0.00    +0.000 A 
ATOM     25  C   UNL     1       5.767   3.709  15.113  0.00  0.00    +0.000 A 
BRANCH  23  26
ATOM     26  O   UNL     1       5.376   3.415  11.448  0.00  0.00    +0.000 OA
ATOM     27  C   UNL     1       3.963   3.247  11.345  0.00  0.00    +0.000 C 
ENDBRANCH  23  26
ENDBRANCH  19  20
ENDBRANCH   1  19
TORSDOF 7
ENDMDL
MODEL 4
REMARK VINA RESULT:      -6.4      1.568      1.977
REMARK  Name = 
REMARK  9 active torsions:
REMARK  status: ('A' for Active; 'I' for Inactive)
REMARK    1  A    between atoms: C_1  and  C_2
REMARK    2  A    between atoms: C_2  and  O_3
REMARK    3  A    between atoms: O_3  and  C_4
REMARK    4  A    between atoms: C_4  and  C_6
REMARK    5  A    between atoms: C_6  and  C_7
REMARK    6  A    between atoms: C_7  and  C_8
REMARK    7  A    between atoms: C_11  and  O_12
REMARK    8  A    between atoms: O_12  and  C_13
REMARK    9  A    between atoms: C_19  and  C_21
REMARK                            x       y       z     vdW  Elec       q    Type
REMARK                         _______ _______ _______ _____ _____    ______ ____
ROOT
ATOM      1  C   UNL     1       6.775   5.534  17.335  0.00  0.00    +0.000 C 
ATOM      2  C   UNL     1       5.572   6.205  16.607  0.00  0.00    +0.000 C 
ATOM      3  C   UNL     1       4.539   6.781  17.582  0.00  0.00    +0.000 C 
ATOM      4  N   UNL     1       4.084   5.744  18.506  0.00  0.00    +0.000 N 
ATOM      5  C   UNL     1       2.796   5.217  18.348  0.00  0.00    +0.000 C 
ATOM      6  O   UNL     1       2.082   5.596  17.416  0.00  0.00    +0.000 OA
ATOM      7  C   UNL     1       5.158   5.166  19.312  0.00  0.00    +0.000 C 
ATOM      8  C   UNL     1       6.253   4.576  18.426  0.00  0.00    +0.000 C 
ENDROOT
BRANCH   5   9
ATOM      9  C   UNL     1       2.331   4.222  19.298  0.00  0.00    +0.000 A 
ATOM     10  C   UNL     1       2.265   2.843  19.219  0.00  0.00    +0.000 A 
ATOM     11  N   UNL     1       1.693   2.197  20.298  0.00  0.00    +0.000 NA
ATOM     12  C   UNL     1       1.409   3.084  21.224  0.00  0.00    +0.000 A 
ATOM     13  S   UNL     1       1.798   4.713  20.858  0.00  0.00    +0.000 S 
ENDBRANCH   5   9
BRANCH   1  14
ATOM     14  C   UNL     1       7.603   6.670  17.945  0.00  0.00    +0.000 C 
ATOM     15  O   UNL     1       8.036   6.685  19.088  0.00  0.00    +0.000 OA
BRANCH  14  16
ATOM     16  O   UNL     1       7.639   7.727  17.092  0.00  0.00    +0.000 OA
BRANCH  16  18
ATOM     17  C   UNL     1       8.706   9.495  18.206  0.00  0.00    +0.000 C 
ATOM     18  C   UNL     1       7.388   9.026  17.634  0.00  0.00    +0.000 C 
ENDBRANCH  16  18
ENDBRANCH  14  16
ENDBRANCH   1  14
BRANCH   1  19
ATOM     19  C   UNL     1       7.622   4.735  16.300  0.00  0.00    +0.000 C 
BRANCH  19  20
ATOM     20  C   UNL     1       6.980   4.458  14.953  0.00  0.00    +0.000 A 
ATOM     21  C   UNL     1       5.762   3.774  14.859  0.00  0.00    +0.000 A 
ATOM     22  C   UNL     1       5.146   3.587  13.616  0.00  0.00    +0.000 A 
ATOM     23  C   UNL     1       5.729   4.089  12.452  0.00  0.00    +0.000 A 
ATOM     24  C   UNL     1       6.965   4.721  12.528  0.00  0.00    +0.000 A 
ATOM     25  C   UNL     1       7.577   4.916  13.769  0.00  0.00    +0.000 A 
BRANCH  23  26
ATOM     26  O   UNL     1       5.028   3.896  11.293  0.00  0.00    +0.000 OA
ATOM     27  C   UNL     1       4.081   2.830  11.343  0.00  0.00    +0.000 C 
ENDBRANCH  23  26
ENDBRANCH  19  20
ENDBRANCH   1  19
TORSDOF 7
ENDMDL
MODEL 5
REMARK VINA RESULT:      -6.3      3.576      5.978
REMARK  Name = 
REMARK  9 active torsions:
REMARK  status: ('A' for Active; 'I' for Inactive)
REMARK    1  A    between atoms: C_1  and  C_2
REMARK    2  A    between atoms: C_2  and  O_3
REMARK    3  A    between atoms: O_3  and  C_4
REMARK    4  A    between atoms: C_4  and  C_6
REMARK    5  A    between atoms: C_6  and  C_7
REMARK    6  A    between atoms: C_7  and  C_8
REMARK    7  A    between atoms: C_11  and  O_12
REMARK    8  A    between atoms: O_12  and  C_13
REMARK    9  A    between atoms: C_19  and  C_21
REMARK                            x       y       z     vdW  Elec       q    Type
REMARK                         _______ _______ _______ _____ _____    ______ ____
ROOT
ATOM      1  C   UNL     1       3.111   5.538  19.306  0.00  0.00    +0.000 C 
ATOM      2  C   UNL     1       2.513   5.729  20.731  0.00  0.00    +0.000 C 
ATOM      3  C   UNL     1       1.154   6.437  20.711  0.00  0.00    +0.000 C 
ATOM      4  N   UNL     1       1.261   7.714  20.008  0.00  0.00    +0.000 N 
ATOM      5  C   UNL     1       1.225   8.900  20.754  0.00  0.00    +0.000 C 
ATOM      6  O   UNL     1       1.148   8.855  21.985  0.00  0.00    +0.000 OA
ATOM      7  C   UNL     1       1.697   7.585  18.620  0.00  0.00    +0.000 C 
ATOM      8  C   UNL     1       3.045   6.871  18.532  0.00  0.00    +0.000 C 
ENDROOT
BRANCH   5   9
ATOM      9  C   UNL     1       1.283  10.167  20.048  0.00  0.00    +0.000 A 
ATOM     10  C   UNL     1       1.605  10.470  18.737  0.00  0.00    +0.000 A 
ATOM     11  N   UNL     1       1.627  11.811  18.410  0.00  0.00    +0.000 NA
ATOM     12  C   UNL     1       1.238  12.512  19.451  0.00  0.00    +0.000 A 
ATOM     13  S   UNL     1       0.837  11.618  20.857  0.00  0.00    +0.000 S 
ENDBRANCH   5   9
BRANCH   1  14
ATOM     14  C   UNL     1       2.270   4.457  18.621  0.00  0.00    +0.000 C 
ATOM     15  O   UNL     1       1.627   4.616  17.594  0.00  0.00    +0.000 OA
BRANCH  14  16
ATOM     16  O   UNL     1       2.202   3.353  19.411  0.00  0.00    +0.000 OA
BRANCH  16  18
ATOM     17  C   UNL     1       3.382   1.552  18.479  0.00  0.00    +0.000 C 
ATOM     18  C   UNL     1       2.000   2.091  18.771  0.00  0.00    +0.000 C 
ENDBRANCH  16  18
ENDBRANCH  14  16
ENDBRANCH   1  14
BRANCH   1  19
ATOM     19  C   UNL     1       4.596   5.079  19.428  0.00  0.00    +0.000 C 
BRANCH  19  20
ATOM     20  C   UNL     1       5.433   5.116  18.162  0.00  0.00    +0.000 A 
ATOM     21  C   UNL     1       5.161   4.258  17.090  0.00  0.00    +0.000 A 
ATOM     22  C   UNL     1       5.896   4.349  15.902  0.00  0.00    +0.000 A 
ATOM     23  C   UNL     1       6.903   5.305  15.762  0.00  0.00    +0.000 A 
ATOM     24  C   UNL     1       7.217   6.125  16.841  0.00  0.00    +0.000 A 
ATOM     25  C   UNL     1       6.479   6.040  18.023  0.00  0.00    +0.000 A 
BRANCH  23  26
ATOM     26  O   UNL     1       7.532   5.347  14.548  0.00  0.00    +0.000 OA
ATOM     27  C   UNL     1       6.960   4.499  13.554  0.00  0.00    +0.000 C 
ENDBRANCH  23  26
ENDBRANCH  19  20
ENDBRANCH   1  19
TORSDOF 7
ENDMDL
MODEL 6
REMARK VINA RESULT:      -6.2      3.688      5.626
REMARK  Name = 
REMARK  9 active torsions:
REMARK  status: ('A' for Active; 'I' for Inactive)
REMARK    1  A    between atoms: C_1  and  C_2
REMARK    2  A    between atoms: C_2  and  O_3
REMARK    3  A    between atoms: O_3  and  C_4
REMARK    4  A    between atoms: C_4  and  C_6
REMARK    5  A    between atoms: C_6  and  C_7
REMARK    6  A    between atoms: C_7  and  C_8
REMARK    7  A    between atoms: C_11  and  O_12
REMARK    8  A    between atoms: O_12  and  C_13
REMARK    9  A    between atoms: C_19  and  C_21
REMARK                            x       y       z     vdW  Elec       q    Type
REMARK                         _______ _______ _______ _____ _____    ______ ____
ROOT
ATOM      1  C   UNL     1       3.201   5.966  18.677  0.00  0.00    +0.000 C 
ATOM      2  C   UNL     1       2.912   6.119  20.199  0.00  0.00    +0.000 C 
ATOM      3  C   UNL     1       1.494   6.624  20.484  0.00  0.00    +0.000 C 
ATOM      4  N   UNL     1       1.253   7.878  19.773  0.00  0.00    +0.000 N 
ATOM      5  C   UNL     1       1.209   9.072  20.505  0.00  0.00    +0.000 C 
ATOM      6  O   UNL     1       1.415   9.060  21.722  0.00  0.00    +0.000 OA
ATOM      7  C   UNL     1       1.384   7.763  18.322  0.00  0.00    +0.000 C 
ATOM      8  C   UNL     1       2.769   7.247  17.934  0.00  0.00    +0.000 C 
ENDROOT
BRANCH   5   9
ATOM      9  C   UNL     1       0.921  10.309  19.802  0.00  0.00    +0.000 A 
ATOM     10  C   UNL     1       1.757  11.267  19.258  0.00  0.00    +0.000 A 
ATOM     11  N   UNL     1       1.140  12.374  18.710  0.00  0.00    +0.000 NA
ATOM     12  C   UNL     1      -0.162  12.208  18.765  0.00  0.00    +0.000 A 
ATOM     13  S   UNL     1      -0.709  10.744  19.469  0.00  0.00    +0.000 S 
ENDBRANCH   5   9
BRANCH   1  14
ATOM     14  C   UNL     1       2.396   4.752  18.201  0.00  0.00    +0.000 C 
ATOM     15  O   UNL     1       1.456   4.797  17.421  0.00  0.00    +0.000 OA
BRANCH  14  16
ATOM     16  O   UNL     1       2.766   3.647  18.901  0.00  0.00    +0.000 OA
BRANCH  16  18
ATOM     17  C   UNL     1       3.538   1.461  18.543  0.00  0.00    +0.000 C 
ATOM     18  C   UNL     1       2.342   2.375  18.407  0.00  0.00    +0.000 C 
ENDBRANCH  16  18
ENDBRANCH  14  16
ENDBRANCH   1  14
BRANCH   1  19
ATOM     19  C   UNL     1       4.726   5.728  18.462  0.00  0.00    +0.000 C 
BRANCH  19  20
ATOM     20  C   UNL     1       5.170   5.327  17.067  0.00  0.00    +0.000 A 
ATOM     21  C   UNL     1       5.277   6.274  16.042  0.00  0.00    +0.000 A 
ATOM     22  C   UNL     1       5.754   5.904  14.779  0.00  0.00    +0.000 A 
ATOM     23  C   UNL     1       6.142   4.588  14.525  0.00  0.00    +0.000 A 
ATOM     24  C   UNL     1       5.988   3.629  15.520  0.00  0.00    +0.000 A 
ATOM     25  C   UNL     1       5.520   3.999  16.782  0.00  0.00    +0.000 A 
BRANCH  23  26
ATOM     26  O   UNL     1       6.639   4.335  13.275  0.00  0.00    +0.000 OA
ATOM     27  C   UNL     1       5.949   3.313  12.558  0.00  0.00    +0.000 C 
ENDBRANCH  23  26
ENDBRANCH  19  20
ENDBRANCH   1  19
TORSDOF 7
ENDMDL
MODEL 7
REMARK VINA RESULT:      -6.1      4.134      6.380
REMARK  Name = 
REMARK  9 active torsions:
REMARK  status: ('A' for Active; 'I' for Inactive)
REMARK    1  A    between atoms: C_1  and  C_2
REMARK    2  A    between atoms: C_2  and  O_3
REMARK    3  A    between atoms: O_3  and  C_4
REMARK    4  A    between atoms: C_4  and  C_6
REMARK    5  A    between atoms: C_6  and  C_7
REMARK    6  A    between atoms: C_7  and  C_8
REMARK    7  A    between atoms: C_11  and  O_12
REMARK    8  A    between atoms: O_12  and  C_13
REMARK    9  A    between atoms: C_19  and  C_21
REMARK                            x       y       z     vdW  Elec       q    Type
REMARK                         _______ _______ _______ _____ _____    ______ ____
ROOT
ATOM      1  C   UNL     1       2.763   6.687  19.133  0.00  0.00    +0.000 C 
ATOM      2  C   UNL     1       2.413   7.037  20.610  0.00  0.00    +0.000 C 
ATOM      3  C   UNL     1       1.041   7.705  20.749  0.00  0.00    +0.000 C 
ATOM      4  N   UNL     1       0.967   8.889  19.895  0.00  0.00    +0.000 N 
ATOM      5  C   UNL     1       1.007  10.155  20.492  0.00  0.00    +0.000 C 
ATOM      6  O   UNL     1       1.147  10.260  21.714  0.00  0.00    +0.000 OA
ATOM      7  C   UNL     1       1.161   8.600  18.476  0.00  0.00    +0.000 C 
ATOM      8  C   UNL     1       2.504   7.913  18.234  0.00  0.00    +0.000 C 
ENDROOT
BRANCH   5   9
ATOM      9  C   UNL     1       0.885  11.328  19.645  0.00  0.00    +0.000 A 
ATOM     10  C   UNL     1       1.841  12.105  19.016  0.00  0.00    +0.000 A 
ATOM     11  N   UNL     1       1.373  13.209  18.330  0.00  0.00    +0.000 NA
ATOM     12  C   UNL     1       0.060  13.212  18.370  0.00  0.00    +0.000 A 
ATOM     13  S   UNL     1      -0.674  11.919  19.223  0.00  0.00    +0.000 S 
ENDBRANCH   5   9
BRANCH   1  14
ATOM     14  C   UNL     1       1.864   5.511  18.739  0.00  0.00    +0.000 C 
ATOM     15  O   UNL     1       1.403   5.325  17.623  0.00  0.00    +0.000 OA
BRANCH  14  16
ATOM     16  O   UNL     1       1.516   4.803  19.846  0.00  0.00    +0.000 OA
BRANCH  16  18
ATOM     17  C   UNL     1       1.384   2.908  21.224  0.00  0.00    +0.000 C 
ATOM     18  C   UNL     1       1.952   3.444  19.929  0.00  0.00    +0.000 C 
ENDBRANCH  16  18
ENDBRANCH  14  16
ENDBRANCH   1  14
BRANCH   1  19
ATOM     19  C   UNL     1       4.265   6.282  19.042  0.00  0.00    +0.000 C 
BRANCH  19  20
ATOM     20  C   UNL     1       4.736   5.679  17.731  0.00  0.00    +0.000 A 
ATOM     21  C   UNL     1       4.855   4.293  17.574  0.00  0.00    +0.000 A 
ATOM     22  C   UNL     1       5.224   3.747  16.339  0.00  0.00    +0.000 A 
ATOM     23  C   UNL     1       5.467   4.573  15.241  0.00  0.00    +0.000 A 
ATOM     24  C   UNL     1       5.405   5.953  15.402  0.00  0.00    +0.000 A 
ATOM     25  C   UNL     1       5.030   6.499  16.631  0.00  0.00    +0.000 A 
BRANCH  23  26
ATOM     26  O   UNL     1       5.775   3.943  14.067  0.00  0.00    +0.000 OA
ATOM     27  C   UNL     1       6.923   4.463  13.398  0.00  0.00    +0.000 C 
ENDBRANCH  23  26
ENDBRANCH  19  20
ENDBRANCH   1  19
TORSDOF 7
ENDMDL
MODEL 8
REMARK VINA RESULT:      -6.1      3.666      5.761
REMARK  Name = 
REMARK  9 active torsions:
REMARK  status: ('A' for Active; 'I' for Inactive)
REMARK    1  A    between atoms: C_1  and  C_2
REMARK    2  A    between atoms: C_2  and  O_3
REMARK    3  A    between atoms: O_3  and  C_4
REMARK    4  A    between atoms: C_4  and  C_6
REMARK    5  A    between atoms: C_6  and  C_7
REMARK    6  A    between atoms: C_7  and  C_8
REMARK    7  A    between atoms: C_11  and  O_12
REMARK    8  A    between atoms: O_12  and  C_13
REMARK    9  A    between atoms: C_19  and  C_21
REMARK                            x       y       z     vdW  Elec       q    Type
REMARK                         _______ _______ _______ _____ _____    ______ ____
ROOT
ATOM      1  C   UNL     1       3.230   6.002  18.802  0.00  0.00    +0.000 C 
ATOM      2  C   UNL     1       2.909   6.187  20.314  0.00  0.00    +0.000 C 
ATOM      3  C   UNL     1       1.481   6.688  20.558  0.00  0.00    +0.000 C 
ATOM      4  N   UNL     1       1.247   7.924  19.814  0.00  0.00    +0.000 N 
ATOM      5  C   UNL     1       1.179   9.133  20.517  0.00  0.00    +0.000 C 
ATOM      6  O   UNL     1       1.360   9.151  21.739  0.00  0.00    +0.000 OA
ATOM      7  C   UNL     1       1.409   7.778  18.369  0.00  0.00    +0.000 C 
ATOM      8  C   UNL     1       2.805   7.263  18.022  0.00  0.00    +0.000 C 
ENDROOT
BRANCH   5   9
ATOM      9  C   UNL     1       0.898  10.352  19.780  0.00  0.00    +0.000 A 
ATOM     10  C   UNL     1       1.739  11.279  19.192  0.00  0.00    +0.000 A 
ATOM     11  N   UNL     1       1.129  12.379  18.620  0.00  0.00    +0.000 NA
ATOM     12  C   UNL     1      -0.174  12.235  18.703  0.00  0.00    +0.000 A 
ATOM     13  S   UNL     1      -0.731  10.803  19.463  0.00  0.00    +0.000 S 
ENDBRANCH   5   9
BRANCH   1  14
ATOM     14  C   UNL     1       2.444   4.772  18.337  0.00  0.00    +0.000 C 
ATOM     15  O   UNL     1       1.576   4.779  17.477  0.00  0.00    +0.000 OA
BRANCH  14  16
ATOM     16  O   UNL     1       2.728   3.710  19.137  0.00  0.00    +0.000 OA
BRANCH  16  18
ATOM     17  C   UNL     1       1.285   2.912  20.806  0.00  0.00    +0.000 C 
ATOM     18  C   UNL     1       1.693   2.750  19.359  0.00  0.00    +0.000 C 
ENDBRANCH  16  18
ENDBRANCH  14  16
ENDBRANCH   1  14
BRANCH   1  19
ATOM     19  C   UNL     1       4.761   5.771  18.625  0.00  0.00    +0.000 C 
BRANCH  19  20
ATOM     20  C   UNL     1       5.239   5.357  17.245  0.00  0.00    +0.000 A 
ATOM     21  C   UNL     1       5.605   4.033  16.973  0.00  0.00    +0.000 A 
ATOM     22  C   UNL     1       5.978   3.649  15.680  0.00  0.00    +0.000 A 
ATOM     23  C   UNL     1       5.978   4.576  14.637  0.00  0.00    +0.000 A 
ATOM     24  C   UNL     1       5.670   5.905  14.908  0.00  0.00    +0.000 A 
ATOM     25  C   UNL     1       5.290   6.287  16.196  0.00  0.00    +0.000 A 
BRANCH  23  26
ATOM     26  O   UNL     1       6.312   4.094  13.400  0.00  0.00    +0.000 OA
ATOM     27  C   UNL     1       5.245   3.451  12.707  0.00  0.00    +0.000 C 
ENDBRANCH  23  26
ENDBRANCH  19  20
ENDBRANCH   1  19
TORSDOF 7
ENDMDL
MODEL 9
REMARK VINA RESULT:      -6.1      3.618      5.952
REMARK  Name = 
REMARK  9 active torsions:
REMARK  status: ('A' for Active; 'I' for Inactive)
REMARK    1  A    between atoms: C_1  and  C_2
REMARK    2  A    between atoms: C_2  and  O_3
REMARK    3  A    between atoms: O_3  and  C_4
REMARK    4  A    between atoms: C_4  and  C_6
REMARK    5  A    between atoms: C_6  and  C_7
REMARK    6  A    between atoms: C_7  and  C_8
REMARK    7  A    between atoms: C_11  and  O_12
REMARK    8  A    between atoms: O_12  and  C_13
REMARK    9  A    between atoms: C_19  and  C_21
REMARK                            x       y       z     vdW  Elec       q    Type
REMARK                         _______ _______ _______ _____ _____    ______ ____
ROOT
ATOM      1  C   UNL     1       3.062   5.684  19.219  0.00  0.00    +0.000 C 
ATOM      2  C   UNL     1       2.530   5.957  20.657  0.00  0.00    +0.000 C 
ATOM      3  C   UNL     1       1.155   6.634  20.659  0.00  0.00    +0.000 C 
ATOM      4  N   UNL     1       1.197   7.864  19.870  0.00  0.00    +0.000 N 
ATOM      5  C   UNL     1       1.169   9.095  20.537  0.00  0.00    +0.000 C 
ATOM      6  O   UNL     1       1.154   9.132  21.771  0.00  0.00    +0.000 OA
ATOM      7  C   UNL     1       1.567   7.650  18.472  0.00  0.00    +0.000 C 
ATOM      8  C   UNL     1       2.926   6.960  18.363  0.00  0.00    +0.000 C 
ENDROOT
BRANCH   5   9
ATOM      9  C   UNL     1       1.162  10.314  19.747  0.00  0.00    +0.000 A 
ATOM     10  C   UNL     1       2.063  10.808  18.822  0.00  0.00    +0.000 A 
ATOM     11  N   UNL     1       1.777  12.054  18.299  0.00  0.00    +0.000 NA
ATOM     12  C   UNL     1       0.617  12.457  18.766  0.00  0.00    +0.000 A 
ATOM     13  S   UNL     1      -0.177  11.388  19.844  0.00  0.00    +0.000 S 
ENDBRANCH   5   9
BRANCH   1  14
ATOM     14  C   UNL     1       2.213   4.542  18.650  0.00  0.00    +0.000 C 
ATOM     15  O   UNL     1       1.538   4.611  17.633  0.00  0.00    +0.000 OA
BRANCH  14  16
ATOM     16  O   UNL     1       2.182   3.505  19.528  0.00  0.00    +0.000 OA
BRANCH  16  18
ATOM     17  C   UNL     1       3.314   1.706  18.534  0.00  0.00    +0.000 C 
ATOM     18  C   UNL     1       1.962   2.195  19.001  0.00  0.00    +0.000 C 
ENDBRANCH  16  18
ENDBRANCH  14  16
ENDBRANCH   1  14
BRANCH   1  19
ATOM     19  C   UNL     1       4.560   5.264  19.295  0.00  0.00    +0.000 C 
BRANCH  19  20
ATOM     20  C   UNL     1       5.355   5.315  18.003  0.00  0.00    +0.000 A 
ATOM     21  C   UNL     1       6.408   6.223  17.836  0.00  0.00    +0.000 A 
ATOM     22  C   UNL     1       7.177   6.213  16.667  0.00  0.00    +0.000 A 
ATOM     23  C   UNL     1       6.917   5.289  15.654  0.00  0.00    +0.000 A 
ATOM     24  C   UNL     1       5.839   4.420  15.786  0.00  0.00    +0.000 A 
ATOM     25  C   UNL     1       5.076   4.424  16.956  0.00  0.00    +0.000 A 
BRANCH  23  26
ATOM     26  O   UNL     1       7.753   5.328  14.572  0.00  0.00    +0.000 OA
ATOM     27  C   UNL     1       7.186   4.819  13.366  0.00  0.00    +0.000 C 
ENDBRANCH  23  26
ENDBRANCH  19  20
ENDBRANCH   1  19
TORSDOF 7
ENDMDL
