MODEL 1
REMARK VINA RESULT:      -7.5      0.000      0.000
REMARK  Name = 
REMARK  6 active torsions:
REMARK  status: ('A' for Active; 'I' for Inactive)
REMARK    1  A    between atoms: C_1  and  O_2
REMARK    2  A    between atoms: O_2  and  C_3
REMARK    3  A    between atoms: C_7  and  C_8
REMARK    4  A    between atoms: C_9  and  C_10
REMARK    5  A    between atoms: C_11  and  N_12
REMARK    6  A    between atoms: C_19  and  C_20
REMARK                            x       y       z     vdW  Elec       q    Type
REMARK                         _______ _______ _______ _____ _____    ______ ____
ROOT
ATOM      1  C   UNL     1       3.798   4.656  18.190  0.00  0.00    +0.000 A 
ATOM      2  C   UNL     1       3.575   3.749  19.230  0.00  0.00    +0.000 A 
ATOM      3  N   UNL     1       2.803   4.314  20.260  0.00  0.00    +0.000 NA
ATOM      4  C   UNL     1       2.593   5.525  19.830  0.00  0.00    +0.000 A 
ATOM      5  N   UNL     1       3.146   5.753  18.619  0.00  0.00    +0.000 N 
ATOM      6  C   UNL     1       2.857   7.094  18.182  0.00  0.00    +0.000 C 
ATOM      7  C   UNL     1       2.375   7.701  19.517  0.00  0.00    +0.000 C 
ATOM      8  C   UNL     1       1.228   8.680  19.345  0.00  0.00    +0.000 C 
ATOM      9  O   UNL     1       1.982   6.573  20.362  0.00  0.00    +0.000 OA
ENDROOT
BRANCH   2  10
ATOM     10  N   UNL     1       4.037   2.381  19.338  0.00  0.00    +0.000 N 
ATOM     11  O   UNL     1       3.522   1.542  18.587  0.00  0.00    +0.000 OA
ATOM     12  O   UNL     1       4.917   2.138  20.178  0.00  0.00    +0.000 OA
ENDBRANCH   2  10
BRANCH   1  14
ATOM     13  C   UNL     1       5.083   4.433  15.913  0.00  0.00    +0.000 C 
ATOM     14  C   UNL     1       4.508   4.530  16.967  0.00  0.00    +0.000 C 
BRANCH  13  19
ATOM     15  C   UNL     1       5.851   3.440  12.393  0.00  0.00    +0.000 A 
ATOM     16  C   UNL     1       7.076   4.080  12.204  0.00  0.00    +0.000 A 
ATOM     17  C   UNL     1       7.620   4.868  13.218  0.00  0.00    +0.000 A 
ATOM     18  C   UNL     1       6.952   4.999  14.436  0.00  0.00    +0.000 A 
ATOM     19  C   UNL     1       5.725   4.358  14.636  0.00  0.00    +0.000 A 
ATOM     20  C   UNL     1       5.161   3.607  13.600  0.00  0.00    +0.000 A 
BRANCH  15  22
ATOM     21  C   UNL     1       3.927   3.073  11.082  0.00  0.00    +0.000 C 
ATOM     22  O   UNL     1       5.236   2.651  11.458  0.00  0.00    +0.000 OA
ENDBRANCH  15  22
ENDBRANCH  13  19
ENDBRANCH   1  14
TORSDOF 4
ENDMDL
MODEL 2
REMARK VINA RESULT:      -7.4      3.537      8.117
REMARK  Name = 
REMARK  6 active torsions:
REMARK  status: ('A' for Active; 'I' for Inactive)
REMARK    1  A    between atoms: C_1  and  O_2
REMARK    2  A    between atoms: O_2  and  C_3
REMARK    3  A    between atoms: C_7  and  C_8
REMARK    4  A    between atoms: C_9  and  C_10
REMARK    5  A    between atoms: C_11  and  N_12
REMARK    6  A    between atoms: C_19  and  C_20
REMARK                            x       y       z     vdW  Elec       q    Type
REMARK                         _______ _______ _______ _____ _____    ______ ____
ROOT
ATOM      1  C   UNL     1       3.143   5.216  19.869  0.00  0.00    +0.000 A 
ATOM      2  C   UNL     1       2.856   3.904  20.251  0.00  0.00    +0.000 A 
ATOM      3  N   UNL     1       3.840   3.002  19.810  0.00  0.00    +0.000 NA
ATOM      4  C   UNL     1       4.674   3.776  19.178  0.00  0.00    +0.000 A 
ATOM      5  N   UNL     1       4.308   5.076  19.206  0.00  0.00    +0.000 N 
ATOM      6  C   UNL     1       5.279   5.886  18.519  0.00  0.00    +0.000 C 
ATOM      7  C   UNL     1       6.056   4.778  17.774  0.00  0.00    +0.000 C 
ATOM      8  C   UNL     1       7.548   5.047  17.699  0.00  0.00    +0.000 C 
ATOM      9  O   UNL     1       5.780   3.532  18.490  0.00  0.00    +0.000 OA
ENDROOT
BRANCH   2  10
ATOM     10  N   UNL     1       1.715   3.420  21.001  0.00  0.00    +0.000 N 
ATOM     11  O   UNL     1       1.913   3.043  22.164  0.00  0.00    +0.000 OA
ATOM     12  O   UNL     1       0.614   3.413  20.429  0.00  0.00    +0.000 OA
ENDBRANCH   2  10
BRANCH   1  14
ATOM     13  C   UNL     1       1.882   7.485  20.256  0.00  0.00    +0.000 C 
ATOM     14  C   UNL     1       2.449   6.435  20.088  0.00  0.00    +0.000 C 
BRANCH  13  19
ATOM     15  C   UNL     1       0.097  10.387  21.791  0.00  0.00    +0.000 A 
ATOM     16  C   UNL     1      -0.180  11.151  20.657  0.00  0.00    +0.000 A 
ATOM     17  C   UNL     1       0.259  10.729  19.403  0.00  0.00    +0.000 A 
ATOM     18  C   UNL     1       0.956   9.527  19.274  0.00  0.00    +0.000 A 
ATOM     19  C   UNL     1       1.234   8.753  20.404  0.00  0.00    +0.000 A 
ATOM     20  C   UNL     1       0.833   9.202  21.666  0.00  0.00    +0.000 A 
BRANCH  15  22
ATOM     21  C   UNL     1      -1.593  11.284  23.167  0.00  0.00    +0.000 C 
ATOM     22  O   UNL     1      -0.288  10.719  23.063  0.00  0.00    +0.000 OA
ENDBRANCH  15  22
ENDBRANCH  13  19
ENDBRANCH   1  14
TORSDOF 4
ENDMDL
MODEL 3
REMARK VINA RESULT:      -7.3      0.975      1.135
REMARK  Name = 
REMARK  6 active torsions:
REMARK  status: ('A' for Active; 'I' for Inactive)
REMARK    1  A    between atoms: C_1  and  O_2
REMARK    2  A    between atoms: O_2  and  C_3
REMARK    3  A    between atoms: C_7  and  C_8
REMARK    4  A    between atoms: C_9  and  C_10
REMARK    5  A    between atoms: C_11  and  N_12
REMARK    6  A    between atoms: C_19  and  C_20
REMARK                            x       y       z     vdW  Elec       q    Type
REMARK                         _______ _______ _______ _____ _____    ______ ____
ROOT
ATOM      1  C   UNL     1       3.894   5.629  17.910  0.00  0.00    +0.000 A 
ATOM      2  C   UNL     1       3.758   4.915  19.103  0.00  0.00    +0.000 A 
ATOM      3  N   UNL     1       2.941   5.590  20.027  0.00  0.00    +0.000 NA
ATOM      4  C   UNL     1       2.621   6.676  19.386  0.00  0.00    +0.000 A 
ATOM      5  N   UNL     1       3.146   6.725  18.142  0.00  0.00    +0.000 N 
ATOM      6  C   UNL     1       2.736   7.930  17.471  0.00  0.00    +0.000 C 
ATOM      7  C   UNL     1       2.204   8.729  18.681  0.00  0.00    +0.000 C 
ATOM      8  C   UNL     1       0.972   9.554  18.354  0.00  0.00    +0.000 C 
ATOM      9  O   UNL     1       1.918   7.747  19.727  0.00  0.00    +0.000 OA
ENDROOT
BRANCH   2  10
ATOM     10  N   UNL     1       4.342   3.637  19.453  0.00  0.00    +0.000 N 
ATOM     11  O   UNL     1       5.578   3.561  19.479  0.00  0.00    +0.000 OA
ATOM     12  O   UNL     1       3.566   2.701  19.702  0.00  0.00    +0.000 OA
ENDBRANCH   2  10
BRANCH   1  14
ATOM     13  C   UNL     1       5.191   5.077  15.697  0.00  0.00    +0.000 C 
ATOM     14  C   UNL     1       4.608   5.342  16.717  0.00  0.00    +0.000 C 
BRANCH  13  19
ATOM     15  C   UNL     1       5.893   3.453  12.405  0.00  0.00    +0.000 A 
ATOM     16  C   UNL     1       7.165   3.959  12.132  0.00  0.00    +0.000 A 
ATOM     17  C   UNL     1       7.764   4.862  13.009  0.00  0.00    +0.000 A 
ATOM     18  C   UNL     1       7.103   5.245  14.177  0.00  0.00    +0.000 A 
ATOM     19  C   UNL     1       5.831   4.740  14.461  0.00  0.00    +0.000 A 
ATOM     20  C   UNL     1       5.214   3.871  13.556  0.00  0.00    +0.000 A 
BRANCH  15  22
ATOM     21  C   UNL     1       3.978   3.039  11.096  0.00  0.00    +0.000 C 
ATOM     22  O   UNL     1       5.224   2.567  11.605  0.00  0.00    +0.000 OA
ENDBRANCH  15  22
ENDBRANCH  13  19
ENDBRANCH   1  14
TORSDOF 4
ENDMDL
MODEL 4
REMARK VINA RESULT:      -7.3      2.185      2.798
REMARK  Name = 
REMARK  6 active torsions:
REMARK  status: ('A' for Active; 'I' for Inactive)
REMARK    1  A    between atoms: C_1  and  O_2
REMARK    2  A    between atoms: O_2  and  C_3
REMARK    3  A    between atoms: C_7  and  C_8
REMARK    4  A    between atoms: C_9  and  C_10
REMARK    5  A    between atoms: C_11  and  N_12
REMARK    6  A    between atoms: C_19  and  C_20
REMARK                            x       y       z     vdW  Elec       q    Type
REMARK                         _______ _______ _______ _____ _____    ______ ____
ROOT
ATOM      1  C   UNL     1       4.856   4.543  17.924  0.00  0.00    +0.000 A 
ATOM      2  C   UNL     1       5.432   5.075  19.081  0.00  0.00    +0.000 A 
ATOM      3  N   UNL     1       4.561   5.001  20.182  0.00  0.00    +0.000 NA
ATOM      4  C   UNL     1       3.500   4.447  19.670  0.00  0.00    +0.000 A 
ATOM      5  N   UNL     1       3.643   4.152  18.360  0.00  0.00    +0.000 N 
ATOM      6  C   UNL     1       2.454   3.517  17.856  0.00  0.00    +0.000 C 
ATOM      7  C   UNL     1       1.478   3.849  19.006  0.00  0.00    +0.000 C 
ATOM      8  C   UNL     1       0.508   2.722  19.308  0.00  0.00    +0.000 C 
ATOM      9  O   UNL     1       2.308   4.155  20.172  0.00  0.00    +0.000 OA
ENDROOT
BRANCH   2  10
ATOM     10  N   UNL     1       6.748   5.658  19.238  0.00  0.00    +0.000 N 
ATOM     11  O   UNL     1       7.120   6.469  18.380  0.00  0.00    +0.000 OA
ATOM     12  O   UNL     1       7.417   5.306  20.221  0.00  0.00    +0.000 OA
ENDBRANCH   2  10
BRANCH   1  14
ATOM     13  C   UNL     1       5.747   4.299  15.468  0.00  0.00    +0.000 C 
ATOM     14  C   UNL     1       5.354   4.405  16.602  0.00  0.00    +0.000 C 
BRANCH  13  19
ATOM     15  C   UNL     1       6.082   3.135  11.933  0.00  0.00    +0.000 A 
ATOM     16  C   UNL     1       7.130   3.944  11.491  0.00  0.00    +0.000 A 
ATOM     17  C   UNL     1       7.689   4.895  12.344  0.00  0.00    +0.000 A 
ATOM     18  C   UNL     1       7.219   5.025  13.651  0.00  0.00    +0.000 A 
ATOM     19  C   UNL     1       6.173   4.215  14.104  0.00  0.00    +0.000 A 
ATOM     20  C   UNL     1       5.584   3.295  13.232  0.00  0.00    +0.000 A 
BRANCH  15  22
ATOM     21  C   UNL     1       6.175   0.943  11.072  0.00  0.00    +0.000 C 
ATOM     22  O   UNL     1       5.468   2.178  11.171  0.00  0.00    +0.000 OA
ENDBRANCH  15  22
ENDBRANCH  13  19
ENDBRANCH   1  14
TORSDOF 4
ENDMDL
MODEL 5
REMARK VINA RESULT:      -7.3      2.525      7.982
REMARK  Name = 
REMARK  6 active torsions:
REMARK  status: ('A' for Active; 'I' for Inactive)
REMARK    1  A    between atoms: C_1  and  O_2
REMARK    2  A    between atoms: O_2  and  C_3
REMARK    3  A    between atoms: C_7  and  C_8
REMARK    4  A    between atoms: C_9  and  C_10
REMARK    5  A    between atoms: C_11  and  N_12
REMARK    6  A    between atoms: C_19  and  C_20
REMARK                            x       y       z     vdW  Elec       q    Type
REMARK                         _______ _______ _______ _____ _____    ______ ____
ROOT
ATOM      1  C   UNL     1       2.993   5.035  19.265  0.00  0.00    +0.000 A 
ATOM      2  C   UNL     1       2.853   3.757  19.814  0.00  0.00    +0.000 A 
ATOM      3  N   UNL     1       3.576   2.794  19.089  0.00  0.00    +0.000 NA
ATOM      4  C   UNL     1       4.113   3.498  18.135  0.00  0.00    +0.000 A 
ATOM      5  N   UNL     1       3.808   4.811  18.216  0.00  0.00    +0.000 N 
ATOM      6  C   UNL     1       4.451   5.542  17.157  0.00  0.00    +0.000 C 
ATOM      7  C   UNL     1       4.861   4.365  16.245  0.00  0.00    +0.000 C 
ATOM      8  C   UNL     1       6.212   4.568  15.584  0.00  0.00    +0.000 C 
ATOM      9  O   UNL     1       4.863   3.172  17.092  0.00  0.00    +0.000 OA
ENDROOT
BRANCH   2  10
ATOM     10  N   UNL     1       2.084   3.362  20.975  0.00  0.00    +0.000 N 
ATOM     11  O   UNL     1       2.709   3.058  22.000  0.00  0.00    +0.000 OA
ATOM     12  O   UNL     1       0.848   3.351  20.867  0.00  0.00    +0.000 OA
ENDBRANCH   2  10
BRANCH   1  14
ATOM     13  C   UNL     1       1.998   7.364  19.953  0.00  0.00    +0.000 C 
ATOM     14  C   UNL     1       2.457   6.291  19.654  0.00  0.00    +0.000 C 
BRANCH  13  19
ATOM     15  C   UNL     1       0.321  10.138  21.812  0.00  0.00    +0.000 A 
ATOM     16  C   UNL     1       0.149  11.070  20.788  0.00  0.00    +0.000 A 
ATOM     17  C   UNL     1       0.623  10.798  19.505  0.00  0.00    +0.000 A 
ATOM     18  C   UNL     1       1.251   9.582  19.234  0.00  0.00    +0.000 A 
ATOM     19  C   UNL     1       1.423   8.640  20.253  0.00  0.00    +0.000 A 
ATOM     20  C   UNL     1       0.988   8.935  21.549  0.00  0.00    +0.000 A 
BRANCH  15  22
ATOM     21  C   UNL     1      -1.329  11.036  23.235  0.00  0.00    +0.000 C 
ATOM     22  O   UNL     1      -0.106  10.315  23.101  0.00  0.00    +0.000 OA
ENDBRANCH  15  22
ENDBRANCH  13  19
ENDBRANCH   1  14
TORSDOF 4
ENDMDL
MODEL 6
REMARK VINA RESULT:      -7.3      2.897      7.511
REMARK  Name = 
REMARK  6 active torsions:
REMARK  status: ('A' for Active; 'I' for Inactive)
REMARK    1  A    between atoms: C_1  and  O_2
REMARK    2  A    between atoms: O_2  and  C_3
REMARK    3  A    between atoms: C_7  and  C_8
REMARK    4  A    between atoms: C_9  and  C_10
REMARK    5  A    between atoms: C_11  and  N_12
REMARK    6  A    between atoms: C_19  and  C_20
REMARK                            x       y       z     vdW  Elec       q    Type
REMARK                         _______ _______ _______ _____ _____    ______ ____
ROOT
ATOM      1  C   UNL     1       5.743   4.833  15.837  0.00  0.00    +0.000 A 
ATOM      2  C   UNL     1       6.927   5.568  15.933  0.00  0.00    +0.000 A 
ATOM      3  N   UNL     1       7.663   5.536  14.736  0.00  0.00    +0.000 NA
ATOM      4  C   UNL     1       6.925   4.789  13.967  0.00  0.00    +0.000 A 
ATOM      5  N   UNL     1       5.790   4.375  14.571  0.00  0.00    +0.000 N 
ATOM      6  C   UNL     1       5.001   3.580  13.667  0.00  0.00    +0.000 C 
ATOM      7  C   UNL     1       6.062   3.301  12.579  0.00  0.00    +0.000 C 
ATOM      8  C   UNL     1       5.488   3.307  11.174  0.00  0.00    +0.000 C 
ATOM      9  O   UNL     1       7.088   4.333  12.733  0.00  0.00    +0.000 OA
ENDROOT
BRANCH   2  10
ATOM     10  N   UNL     1       7.433   6.305  17.074  0.00  0.00    +0.000 N 
ATOM     11  O   UNL     1       7.709   5.660  18.094  0.00  0.00    +0.000 OA
ATOM     12  O   UNL     1       7.556   7.533  16.953  0.00  0.00    +0.000 OA
ENDBRANCH   2  10
BRANCH   1  14
ATOM     13  C   UNL     1       3.838   4.408  17.591  0.00  0.00    +0.000 C 
ATOM     14  C   UNL     1       4.707   4.589  16.776  0.00  0.00    +0.000 C 
BRANCH  13  19
ATOM     15  C   UNL     1       1.460   5.166  20.372  0.00  0.00    +0.000 A 
ATOM     16  C   UNL     1       0.928   3.897  20.612  0.00  0.00    +0.000 A 
ATOM     17  C   UNL     1       1.323   2.812  19.830  0.00  0.00    +0.000 A 
ATOM     18  C   UNL     1       2.270   2.985  18.821  0.00  0.00    +0.000 A 
ATOM     19  C   UNL     1       2.811   4.251  18.576  0.00  0.00    +0.000 A 
ATOM     20  C   UNL     1       2.378   5.346  19.331  0.00  0.00    +0.000 A 
BRANCH  15  22
ATOM     21  C   UNL     1       1.736   7.494  20.612  0.00  0.00    +0.000 C 
ATOM     22  O   UNL     1       1.132   6.290  21.081  0.00  0.00    +0.000 OA
ENDBRANCH  15  22
ENDBRANCH  13  19
ENDBRANCH   1  14
TORSDOF 4
ENDMDL
MODEL 7
REMARK VINA RESULT:      -7.1      3.026      7.855
REMARK  Name = 
REMARK  6 active torsions:
REMARK  status: ('A' for Active; 'I' for Inactive)
REMARK    1  A    between atoms: C_1  and  O_2
REMARK    2  A    between atoms: O_2  and  C_3
REMARK    3  A    between atoms: C_7  and  C_8
REMARK    4  A    between atoms: C_9  and  C_10
REMARK    5  A    between atoms: C_11  and  N_12
REMARK    6  A    between atoms: C_19  and  C_20
REMARK                            x       y       z     vdW  Elec       q    Type
REMARK                         _______ _______ _______ _____ _____    ______ ____
ROOT
ATOM      1  C   UNL     1       2.934   5.429  19.687  0.00  0.00    +0.000 A 
ATOM      2  C   UNL     1       2.872   4.085  20.062  0.00  0.00    +0.000 A 
ATOM      3  N   UNL     1       3.755   3.290  19.309  0.00  0.00    +0.000 NA
ATOM      4  C   UNL     1       4.307   4.156  18.509  0.00  0.00    +0.000 A 
ATOM      5  N   UNL     1       3.864   5.415  18.712  0.00  0.00    +0.000 N 
ATOM      6  C   UNL     1       4.528   6.331  17.823  0.00  0.00    +0.000 C 
ATOM      7  C   UNL     1       5.141   5.322  16.827  0.00  0.00    +0.000 C 
ATOM      8  C   UNL     1       6.521   5.727  16.343  0.00  0.00    +0.000 C 
ATOM      9  O   UNL     1       5.182   4.034  17.521  0.00  0.00    +0.000 OA
ENDROOT
BRANCH   2  10
ATOM     10  N   UNL     1       2.039   3.477  21.078  0.00  0.00    +0.000 N 
ATOM     11  O   UNL     1       0.824   3.405  20.854  0.00  0.00    +0.000 OA
ATOM     12  O   UNL     1       2.598   3.069  22.108  0.00  0.00    +0.000 OA
ENDBRANCH   2  10
BRANCH   1  14
ATOM     13  C   UNL     1       1.627   7.538  20.542  0.00  0.00    +0.000 C 
ATOM     14  C   UNL     1       2.239   6.573  20.162  0.00  0.00    +0.000 C 
BRANCH  13  19
ATOM     15  C   UNL     1      -0.282  10.750  20.470  0.00  0.00    +0.000 A 
ATOM     16  C   UNL     1      -0.523  10.939  21.832  0.00  0.00    +0.000 A 
ATOM     17  C   UNL     1      -0.094   9.990  22.759  0.00  0.00    +0.000 A 
ATOM     18  C   UNL     1       0.599   8.858  22.330  0.00  0.00    +0.000 A 
ATOM     19  C   UNL     1       0.848   8.662  20.969  0.00  0.00    +0.000 A 
ATOM     20  C   UNL     1       0.376   9.592  20.038  0.00  0.00    +0.000 A 
BRANCH  15  22
ATOM     21  C   UNL     1      -1.148  11.006  18.293  0.00  0.00    +0.000 C 
ATOM     22  O   UNL     1      -0.667  11.621  19.486  0.00  0.00    +0.000 OA
ENDBRANCH  15  22
ENDBRANCH  13  19
ENDBRANCH   1  14
TORSDOF 4
ENDMDL
MODEL 8
REMARK VINA RESULT:      -7.1      2.318      7.649
REMARK  Name = 
REMARK  6 active torsions:
REMARK  status: ('A' for Active; 'I' for Inactive)
REMARK    1  A    between atoms: C_1  and  O_2
REMARK    2  A    between atoms: O_2  and  C_3
REMARK    3  A    between atoms: C_7  and  C_8
REMARK    4  A    between atoms: C_9  and  C_10
REMARK    5  A    between atoms: C_11  and  N_12
REMARK    6  A    between atoms: C_19  and  C_20
REMARK                            x       y       z     vdW  Elec       q    Type
REMARK                         _______ _______ _______ _____ _____    ______ ____
ROOT
ATOM      1  C   UNL     1       3.181   5.269  17.956  0.00  0.00    +0.000 A 
ATOM      2  C   UNL     1       2.895   3.958  18.346  0.00  0.00    +0.000 A 
ATOM      3  N   UNL     1       3.724   3.026  17.698  0.00  0.00    +0.000 NA
ATOM      4  C   UNL     1       4.467   3.781  16.941  0.00  0.00    +0.000 A 
ATOM      5  N   UNL     1       4.189   5.096  17.078  0.00  0.00    +0.000 N 
ATOM      6  C   UNL     1       5.058   5.882  16.243  0.00  0.00    +0.000 C 
ATOM      7  C   UNL     1       5.614   4.768  15.330  0.00  0.00    +0.000 C 
ATOM      8  C   UNL     1       7.077   4.962  14.978  0.00  0.00    +0.000 C 
ATOM      9  O   UNL     1       5.406   3.509  16.047  0.00  0.00    +0.000 OA
ENDROOT
BRANCH   2  10
ATOM     10  N   UNL     1       1.891   3.504  19.286  0.00  0.00    +0.000 N 
ATOM     11  O   UNL     1       0.923   2.880  18.831  0.00  0.00    +0.000 OA
ATOM     12  O   UNL     1       2.067   3.770  20.485  0.00  0.00    +0.000 OA
ENDBRANCH   2  10
BRANCH   1  14
ATOM     13  C   UNL     1       2.123   7.553  18.697  0.00  0.00    +0.000 C 
ATOM     14  C   UNL     1       2.613   6.512  18.341  0.00  0.00    +0.000 C 
BRANCH  13  19
ATOM     15  C   UNL     1       0.752  10.144  21.014  0.00  0.00    +0.000 A 
ATOM     16  C   UNL     1       0.269  11.081  20.099  0.00  0.00    +0.000 A 
ATOM     17  C   UNL     1       0.435  10.875  18.731  0.00  0.00    +0.000 A 
ATOM     18  C   UNL     1       1.064   9.719  18.269  0.00  0.00    +0.000 A 
ATOM     19  C   UNL     1       1.548   8.773  19.177  0.00  0.00    +0.000 A 
ATOM     20  C   UNL     1       1.421   9.005  20.550  0.00  0.00    +0.000 A 
BRANCH  15  22
ATOM     21  C   UNL     1      -0.493   9.605  22.941  0.00  0.00    +0.000 C 
ATOM     22  O   UNL     1       0.640  10.259  22.374  0.00  0.00    +0.000 OA
ENDBRANCH  15  22
ENDBRANCH  13  19
ENDBRANCH   1  14
TORSDOF 4
ENDMDL
MODEL 9
REMARK VINA RESULT:      -7.1      3.495      7.728
REMARK  Name = 
REMARK  6 active torsions:
REMARK  status: ('A' for Active; 'I' for Inactive)
REMARK    1  A    between atoms: C_1  and  O_2
REMARK    2  A    between atoms: O_2  and  C_3
REMARK    3  A    between atoms: C_7  and  C_8
REMARK    4  A    between atoms: C_9  and  C_10
REMARK    5  A    between atoms: C_11  and  N_12
REMARK    6  A    between atoms: C_19  and  C_20
REMARK                            x       y       z     vdW  Elec       q    Type
REMARK                         _______ _______ _______ _____ _____    ______ ____
ROOT
ATOM      1  C   UNL     1       3.435   6.393  17.954  0.00  0.00    +0.000 A 
ATOM      2  C   UNL     1       4.581   5.970  17.277  0.00  0.00    +0.000 A 
ATOM      3  N   UNL     1       4.869   4.617  17.528  0.00  0.00    +0.000 NA
ATOM      4  C   UNL     1       3.915   4.268  18.342  0.00  0.00    +0.000 A 
ATOM      5  N   UNL     1       3.052   5.274  18.599  0.00  0.00    +0.000 N 
ATOM      6  C   UNL     1       2.005   4.823  19.478  0.00  0.00    +0.000 C 
ATOM      7  C   UNL     1       2.636   3.503  19.973  0.00  0.00    +0.000 C 
ATOM      8  C   UNL     1       1.621   2.388  20.148  0.00  0.00    +0.000 C 
ATOM      9  O   UNL     1       3.653   3.140  18.986  0.00  0.00    +0.000 OA
ENDROOT
BRANCH   2  10
ATOM     10  N   UNL     1       5.442   6.744  16.406  0.00  0.00    +0.000 N 
ATOM     11  O   UNL     1       6.448   7.261  16.908  0.00  0.00    +0.000 OA
ATOM     12  O   UNL     1       5.113   6.838  15.213  0.00  0.00    +0.000 OA
ENDBRANCH   2  10
BRANCH   1  14
ATOM     13  C   UNL     1       2.212   8.712  18.068  0.00  0.00    +0.000 C 
ATOM     14  C   UNL     1       2.776   7.650  17.999  0.00  0.00    +0.000 C 
BRANCH  13  19
ATOM     15  C   UNL     1       1.652  12.390  18.419  0.00  0.00    +0.000 A 
ATOM     16  C   UNL     1       0.278  12.421  18.662  0.00  0.00    +0.000 A 
ATOM     17  C   UNL     1      -0.460  11.239  18.666  0.00  0.00    +0.000 A 
ATOM     18  C   UNL     1       0.176  10.016  18.452  0.00  0.00    +0.000 A 
ATOM     19  C   UNL     1       1.552   9.974  18.211  0.00  0.00    +0.000 A 
ATOM     20  C   UNL     1       2.282  11.166  18.161  0.00  0.00    +0.000 A 
BRANCH  15  22
ATOM     21  C   UNL     1       1.849  14.698  18.852  0.00  0.00    +0.000 C 
ATOM     22  O   UNL     1       2.460  13.495  18.391  0.00  0.00    +0.000 OA
ENDBRANCH  15  22
ENDBRANCH  13  19
ENDBRANCH   1  14
TORSDOF 4
ENDMDL
