MODEL 1
REMARK VINA RESULT:      -7.3      0.000      0.000
REMARK  Name = 
REMARK  7 active torsions:
REMARK  status: ('A' for Active; 'I' for Inactive)
REMARK    1  A    between atoms: C_1  and  O_2
REMARK    2  A    between atoms: O_2  and  C_3
REMARK    3  A    between atoms: C_3  and  C_5
REMARK    4  A    between atoms: C_14  and  C_15
REMARK    5  A    between atoms: C_18  and  O_19
REMARK    6  A    between atoms: C_20  and  C_21
REMARK    7  A    between atoms: C_20  and  C_22
REMARK                            x       y       z     vdW  Elec       q    Type
REMARK                         _______ _______ _______ _____ _____    ______ ____
ROOT
ATOM      1  C   UNL     1       6.604   5.038  15.510  0.00  0.00    +0.000 A 
ATOM      2  C   UNL     1       7.262   4.381  16.574  0.00  0.00    +0.000 A 
ATOM      3  C   UNL     1       6.672   4.303  17.840  0.00  0.00    +0.000 A 
ATOM      4  C   UNL     1       5.422   4.861  18.004  0.00  0.00    +0.000 A 
ATOM      5  C   UNL     1       4.768   5.508  16.974  0.00  0.00    +0.000 A 
ATOM      6  C   UNL     1       5.347   5.628  15.721  0.00  0.00    +0.000 A 
ATOM      7  C   UNL     1       3.446   5.971  17.450  0.00  0.00    +0.000 C 
ATOM      8  C   UNL     1       3.287   5.112  18.743  0.00  0.00    +0.000 C 
ATOM      9  O   UNL     1       4.669   4.751  19.144  0.00  0.00    +0.000 OA
ATOM     10  C   UNL     1       2.750   5.990  19.923  0.00  0.00    +0.000 C 
ATOM     11  C   UNL     1       1.433   6.733  19.661  0.00  0.00    +0.000 C 
ATOM     12  C   UNL     1       2.667   5.189  21.233  0.00  0.00    +0.000 C 
ATOM     13  C   UNL     1       1.896   3.884  21.087  0.00  0.00    +0.000 C 
ATOM     14  C   UNL     1       2.440   3.020  19.949  0.00  0.00    +0.000 C 
ATOM     15  C   UNL     1       2.477   3.747  18.567  0.00  0.00    +0.000 C 
ATOM     16  C   UNL     1       1.044   3.950  18.016  0.00  0.00    +0.000 C 
ATOM     17  C   UNL     1       3.161   2.775  17.564  0.00  0.00    +0.000 C 
ENDROOT
BRANCH   1  18
ATOM     18  C   UNL     1       7.268   5.047  14.177  0.00  0.00    +0.000 C 
ATOM     19  O   UNL     1       8.258   5.713  13.920  0.00  0.00    +0.000 OA
BRANCH  18  21
ATOM     20  C   UNL     1       7.204   4.159  12.015  0.00  0.00    +0.000 C 
ATOM     21  O   UNL     1       6.623   4.218  13.318  0.00  0.00    +0.000 OA
ENDBRANCH  18  21
ENDBRANCH   1  18
BRANCH  14  22
ATOM     22  O   UNL     1       1.677   1.814  19.885  0.00  0.00    +0.000 OA
ATOM     23  H   UNL     1       0.907   1.965  19.311  0.00  0.00    +0.000 HD
ENDBRANCH  14  22
TORSDOF 3
ENDMDL
MODEL 2
REMARK VINA RESULT:      -7.2      3.488      5.526
REMARK  Name = 
REMARK  7 active torsions:
REMARK  status: ('A' for Active; 'I' for Inactive)
REMARK    1  A    between atoms: C_1  and  O_2
REMARK    2  A    between atoms: O_2  and  C_3
REMARK    3  A    between atoms: C_3  and  C_5
REMARK    4  A    between atoms: C_14  and  C_15
REMARK    5  A    between atoms: C_18  and  O_19
REMARK    6  A    between atoms: C_20  and  C_21
REMARK    7  A    between atoms: C_20  and  C_22
REMARK                            x       y       z     vdW  Elec       q    Type
REMARK                         _______ _______ _______ _____ _____    ______ ____
ROOT
ATOM      1  C   UNL     1       1.962   8.755  18.553  0.00  0.00    +0.000 A 
ATOM      2  C   UNL     1       3.063   8.460  17.719  0.00  0.00    +0.000 A 
ATOM      3  C   UNL     1       3.725   7.233  17.815  0.00  0.00    +0.000 A 
ATOM      4  C   UNL     1       3.251   6.314  18.728  0.00  0.00    +0.000 A 
ATOM      5  C   UNL     1       2.177   6.590  19.553  0.00  0.00    +0.000 A 
ATOM      6  C   UNL     1       1.527   7.812  19.498  0.00  0.00    +0.000 A 
ATOM      7  C   UNL     1       1.894   5.407  20.395  0.00  0.00    +0.000 C 
ATOM      8  C   UNL     1       2.674   4.303  19.615  0.00  0.00    +0.000 C 
ATOM      9  O   UNL     1       3.713   5.029  18.846  0.00  0.00    +0.000 OA
ATOM     10  C   UNL     1       3.479   3.397  20.608  0.00  0.00    +0.000 C 
ATOM     11  C   UNL     1       2.661   2.728  21.720  0.00  0.00    +0.000 C 
ATOM     12  C   UNL     1       4.327   2.354  19.861  0.00  0.00    +0.000 C 
ATOM     13  C   UNL     1       3.524   1.539  18.856  0.00  0.00    +0.000 C 
ATOM     14  C   UNL     1       2.759   2.429  17.875  0.00  0.00    +0.000 C 
ATOM     15  C   UNL     1       1.813   3.462  18.566  0.00  0.00    +0.000 C 
ATOM     16  C   UNL     1       0.595   2.748  19.203  0.00  0.00    +0.000 C 
ATOM     17  C   UNL     1       1.215   4.351  17.439  0.00  0.00    +0.000 C 
ENDROOT
BRANCH   1  18
ATOM     18  C   UNL     1       1.276  10.063  18.369  0.00  0.00    +0.000 C 
ATOM     19  O   UNL     1       1.850  11.139  18.407  0.00  0.00    +0.000 OA
BRANCH  18  21
ATOM     20  C   UNL     1      -0.898  10.612  19.036  0.00  0.00    +0.000 C 
ATOM     21  O   UNL     1      -0.051   9.879  18.150  0.00  0.00    +0.000 OA
ENDBRANCH  18  21
ENDBRANCH   1  18
BRANCH  14  22
ATOM     22  O   UNL     1       2.045   1.595  16.961  0.00  0.00    +0.000 OA
ATOM     23  H   UNL     1       1.230   1.290  17.394  0.00  0.00    +0.000 HD
ENDBRANCH  14  22
TORSDOF 3
ENDMDL
MODEL 3
REMARK VINA RESULT:      -7.1      1.397      1.916
REMARK  Name = 
REMARK  7 active torsions:
REMARK  status: ('A' for Active; 'I' for Inactive)
REMARK    1  A    between atoms: C_1  and  O_2
REMARK    2  A    between atoms: O_2  and  C_3
REMARK    3  A    between atoms: C_3  and  C_5
REMARK    4  A    between atoms: C_14  and  C_15
REMARK    5  A    between atoms: C_18  and  O_19
REMARK    6  A    between atoms: C_20  and  C_21
REMARK    7  A    between atoms: C_20  and  C_22
REMARK                            x       y       z     vdW  Elec       q    Type
REMARK                         _______ _______ _______ _____ _____    ______ ____
ROOT
ATOM      1  C   UNL     1       6.035   4.913  15.622  0.00  0.00    +0.000 A 
ATOM      2  C   UNL     1       6.361   5.752  16.710  0.00  0.00    +0.000 A 
ATOM      3  C   UNL     1       5.522   5.834  17.826  0.00  0.00    +0.000 A 
ATOM      4  C   UNL     1       4.386   5.051  17.838  0.00  0.00    +0.000 A 
ATOM      5  C   UNL     1       4.054   4.228  16.779  0.00  0.00    +0.000 A 
ATOM      6  C   UNL     1       4.852   4.156  15.649  0.00  0.00    +0.000 A 
ATOM      7  C   UNL     1       2.804   3.504  17.099  0.00  0.00    +0.000 C 
ATOM      8  C   UNL     1       2.738   3.712  18.645  0.00  0.00    +0.000 C 
ATOM      9  O   UNL     1       3.541   4.930  18.910  0.00  0.00    +0.000 OA
ATOM     10  C   UNL     1       1.283   4.094  19.083  0.00  0.00    +0.000 C 
ATOM     11  C   UNL     1       0.178   3.114  18.671  0.00  0.00    +0.000 C 
ATOM     12  C   UNL     1       1.207   4.391  20.591  0.00  0.00    +0.000 C 
ATOM     13  C   UNL     1       1.796   3.280  21.449  0.00  0.00    +0.000 C 
ATOM     14  C   UNL     1       3.224   2.927  21.031  0.00  0.00    +0.000 C 
ATOM     15  C   UNL     1       3.362   2.535  19.525  0.00  0.00    +0.000 C 
ATOM     16  C   UNL     1       2.712   1.155  19.257  0.00  0.00    +0.000 C 
ATOM     17  C   UNL     1       4.878   2.328  19.250  0.00  0.00    +0.000 C 
ENDROOT
BRANCH   1  18
ATOM     18  C   UNL     1       6.994   4.839  14.485  0.00  0.00    +0.000 C 
ATOM     19  O   UNL     1       7.910   5.628  14.322  0.00  0.00    +0.000 OA
BRANCH  18  21
ATOM     20  C   UNL     1       6.888   4.035  12.291  0.00  0.00    +0.000 C 
ATOM     21  O   UNL     1       6.703   3.783  13.684  0.00  0.00    +0.000 OA
ENDBRANCH  18  21
ENDBRANCH   1  18
BRANCH  14  22
ATOM     22  O   UNL     1       3.708   1.891  21.888  0.00  0.00    +0.000 OA
ATOM     23  H   UNL     1       4.074   2.300  22.690  0.00  0.00    +0.000 HD
ENDBRANCH  14  22
TORSDOF 3
ENDMDL
MODEL 4
REMARK VINA RESULT:      -6.6      2.566      4.024
REMARK  Name = 
REMARK  7 active torsions:
REMARK  status: ('A' for Active; 'I' for Inactive)
REMARK    1  A    between atoms: C_1  and  O_2
REMARK    2  A    between atoms: O_2  and  C_3
REMARK    3  A    between atoms: C_3  and  C_5
REMARK    4  A    between atoms: C_14  and  C_15
REMARK    5  A    between atoms: C_18  and  O_19
REMARK    6  A    between atoms: C_20  and  C_21
REMARK    7  A    between atoms: C_20  and  C_22
REMARK                            x       y       z     vdW  Elec       q    Type
REMARK                         _______ _______ _______ _____ _____    ______ ____
ROOT
ATOM      1  C   UNL     1       6.767   6.882  17.890  0.00  0.00    +0.000 A 
ATOM      2  C   UNL     1       5.726   7.267  17.017  0.00  0.00    +0.000 A 
ATOM      3  C   UNL     1       4.636   6.422  16.787  0.00  0.00    +0.000 A 
ATOM      4  C   UNL     1       4.599   5.219  17.461  0.00  0.00    +0.000 A 
ATOM      5  C   UNL     1       5.612   4.828  18.316  0.00  0.00    +0.000 A 
ATOM      6  C   UNL     1       6.718   5.634  18.532  0.00  0.00    +0.000 A 
ATOM      7  C   UNL     1       5.274   3.512  18.901  0.00  0.00    +0.000 C 
ATOM      8  C   UNL     1       3.746   3.441  18.590  0.00  0.00    +0.000 C 
ATOM      9  O   UNL     1       3.540   4.350  17.436  0.00  0.00    +0.000 OA
ATOM     10  C   UNL     1       3.363   2.022  18.049  0.00  0.00    +0.000 C 
ATOM     11  C   UNL     1       3.737   0.837  18.949  0.00  0.00    +0.000 C 
ATOM     12  C   UNL     1       1.879   1.950  17.652  0.00  0.00    +0.000 C 
ATOM     13  C   UNL     1       0.941   2.421  18.755  0.00  0.00    +0.000 C 
ATOM     14  C   UNL     1       1.306   3.816  19.263  0.00  0.00    +0.000 C 
ATOM     15  C   UNL     1       2.781   3.941  19.761  0.00  0.00    +0.000 C 
ATOM     16  C   UNL     1       2.978   3.171  21.090  0.00  0.00    +0.000 C 
ATOM     17  C   UNL     1       3.011   5.435  20.123  0.00  0.00    +0.000 C 
ENDROOT
BRANCH   1  18
ATOM     18  C   UNL     1       7.877   7.847  18.123  0.00  0.00    +0.000 C 
ATOM     19  O   UNL     1       8.781   7.657  18.921  0.00  0.00    +0.000 OA
BRANCH  18  21
ATOM     20  C   UNL     1       8.449  10.088  17.780  0.00  0.00    +0.000 C 
ATOM     21  O   UNL     1       7.737   8.936  17.327  0.00  0.00    +0.000 OA
ENDBRANCH  18  21
ENDBRANCH   1  18
BRANCH  14  22
ATOM     22  O   UNL     1       0.377   4.190  20.282  0.00  0.00    +0.000 OA
ATOM     23  H   UNL     1       0.494   5.135  20.475  0.00  0.00    +0.000 HD
ENDBRANCH  14  22
TORSDOF 3
ENDMDL
MODEL 5
REMARK VINA RESULT:      -6.5      9.697     12.329
REMARK  Name = 
REMARK  7 active torsions:
REMARK  status: ('A' for Active; 'I' for Inactive)
REMARK    1  A    between atoms: C_1  and  O_2
REMARK    2  A    between atoms: O_2  and  C_3
REMARK    3  A    between atoms: C_3  and  C_5
REMARK    4  A    between atoms: C_14  and  C_15
REMARK    5  A    between atoms: C_18  and  O_19
REMARK    6  A    between atoms: C_20  and  C_21
REMARK    7  A    between atoms: C_20  and  C_22
REMARK                            x       y       z     vdW  Elec       q    Type
REMARK                         _______ _______ _______ _____ _____    ______ ____
ROOT
ATOM      1  C   UNL     1       7.731  12.407  23.725  0.00  0.00    +0.000 A 
ATOM      2  C   UNL     1       8.195  13.727  23.918  0.00  0.00    +0.000 A 
ATOM      3  C   UNL     1       9.144  14.284  23.056  0.00  0.00    +0.000 A 
ATOM      4  C   UNL     1       9.587  13.515  22.000  0.00  0.00    +0.000 A 
ATOM      5  C   UNL     1       9.144  12.221  21.801  0.00  0.00    +0.000 A 
ATOM      6  C   UNL     1       8.230  11.637  22.663  0.00  0.00    +0.000 A 
ATOM      7  C   UNL     1       9.777  11.672  20.582  0.00  0.00    +0.000 C 
ATOM      8  C   UNL     1      10.284  12.983  19.904  0.00  0.00    +0.000 C 
ATOM      9  O   UNL     1      10.414  13.968  21.006  0.00  0.00    +0.000 OA
ATOM     10  C   UNL     1      11.744  12.794  19.369  0.00  0.00    +0.000 C 
ATOM     11  C   UNL     1      11.958  11.625  18.400  0.00  0.00    +0.000 C 
ATOM     12  C   UNL     1      12.302  14.098  18.774  0.00  0.00    +0.000 C 
ATOM     13  C   UNL     1      11.382  14.721  17.733  0.00  0.00    +0.000 C 
ATOM     14  C   UNL     1       9.964  14.925  18.268  0.00  0.00    +0.000 C 
ATOM     15  C   UNL     1       9.303  13.620  18.816  0.00  0.00    +0.000 C 
ATOM     16  C   UNL     1       8.958  12.652  17.659  0.00  0.00    +0.000 C 
ATOM     17  C   UNL     1       7.930  14.030  19.422  0.00  0.00    +0.000 C 
ENDROOT
BRANCH   1  18
ATOM     18  C   UNL     1       6.688  11.890  24.654  0.00  0.00    +0.000 C 
ATOM     19  O   UNL     1       5.589  11.504  24.289  0.00  0.00    +0.000 OA
BRANCH  18  21
ATOM     20  C   UNL     1       6.339  11.152  26.846  0.00  0.00    +0.000 C 
ATOM     21  O   UNL     1       7.139  11.905  25.934  0.00  0.00    +0.000 OA
ENDBRANCH  18  21
ENDBRANCH   1  18
BRANCH  14  22
ATOM     22  O   UNL     1       9.169  15.522  17.242  0.00  0.00    +0.000 OA
ATOM     23  H   UNL     1       8.238  15.293  17.400  0.00  0.00    +0.000 HD
ENDBRANCH  14  22
TORSDOF 3
ENDMDL
MODEL 6
REMARK VINA RESULT:      -6.4      2.828      4.098
REMARK  Name = 
REMARK  7 active torsions:
REMARK  status: ('A' for Active; 'I' for Inactive)
REMARK    1  A    between atoms: C_1  and  O_2
REMARK    2  A    between atoms: O_2  and  C_3
REMARK    3  A    between atoms: C_3  and  C_5
REMARK    4  A    between atoms: C_14  and  C_15
REMARK    5  A    between atoms: C_18  and  O_19
REMARK    6  A    between atoms: C_20  and  C_21
REMARK    7  A    between atoms: C_20  and  C_22
REMARK                            x       y       z     vdW  Elec       q    Type
REMARK                         _______ _______ _______ _____ _____    ______ ____
ROOT
ATOM      1  C   UNL     1       7.434   7.283  17.744  0.00  0.00    +0.000 A 
ATOM      2  C   UNL     1       7.265   6.705  16.467  0.00  0.00    +0.000 A 
ATOM      3  C   UNL     1       6.529   5.527  16.307  0.00  0.00    +0.000 A 
ATOM      4  C   UNL     1       5.953   4.969  17.429  0.00  0.00    +0.000 A 
ATOM      5  C   UNL     1       6.113   5.522  18.685  0.00  0.00    +0.000 A 
ATOM      6  C   UNL     1       6.867   6.669  18.872  0.00  0.00    +0.000 A 
ATOM      7  C   UNL     1       5.361   4.716  19.671  0.00  0.00    +0.000 C 
ATOM      8  C   UNL     1       4.418   3.908  18.725  0.00  0.00    +0.000 C 
ATOM      9  O   UNL     1       5.103   3.894  17.410  0.00  0.00    +0.000 OA
ATOM     10  C   UNL     1       4.365   2.404  19.159  0.00  0.00    +0.000 C 
ATOM     11  C   UNL     1       3.950   2.138  20.611  0.00  0.00    +0.000 C 
ATOM     12  C   UNL     1       3.512   1.566  18.192  0.00  0.00    +0.000 C 
ATOM     13  C   UNL     1       2.125   2.149  17.959  0.00  0.00    +0.000 C 
ATOM     14  C   UNL     1       2.184   3.611  17.514  0.00  0.00    +0.000 C 
ATOM     15  C   UNL     1       2.969   4.539  18.495  0.00  0.00    +0.000 C 
ATOM     16  C   UNL     1       2.174   4.746  19.807  0.00  0.00    +0.000 C 
ATOM     17  C   UNL     1       3.031   5.945  17.834  0.00  0.00    +0.000 C 
ENDROOT
BRANCH   1  18
ATOM     18  C   UNL     1       8.193   8.561  17.838  0.00  0.00    +0.000 C 
ATOM     19  O   UNL     1       8.199   9.410  16.961  0.00  0.00    +0.000 OA
BRANCH  18  21
ATOM     20  C   UNL     1       9.252   9.960  19.386  0.00  0.00    +0.000 C 
ATOM     21  O   UNL     1       8.854   8.637  19.021  0.00  0.00    +0.000 OA
ENDBRANCH  18  21
ENDBRANCH   1  18
BRANCH  14  22
ATOM     22  O   UNL     1       0.850   4.079  17.305  0.00  0.00    +0.000 OA
ATOM     23  H   UNL     1       0.246   3.544  17.846  0.00  0.00    +0.000 HD
ENDBRANCH  14  22
TORSDOF 3
ENDMDL
MODEL 7
REMARK VINA RESULT:      -6.3      8.446     10.176
REMARK  Name = 
REMARK  7 active torsions:
REMARK  status: ('A' for Active; 'I' for Inactive)
REMARK    1  A    between atoms: C_1  and  O_2
REMARK    2  A    between atoms: O_2  and  C_3
REMARK    3  A    between atoms: C_3  and  C_5
REMARK    4  A    between atoms: C_14  and  C_15
REMARK    5  A    between atoms: C_18  and  O_19
REMARK    6  A    between atoms: C_20  and  C_21
REMARK    7  A    between atoms: C_20  and  C_22
REMARK                            x       y       z     vdW  Elec       q    Type
REMARK                         _______ _______ _______ _____ _____    ______ ____
ROOT
ATOM      1  C   UNL     1      -2.996  10.355  15.781  0.00  0.00    +0.000 A 
ATOM      2  C   UNL     1      -3.970  11.187  16.376  0.00  0.00    +0.000 A 
ATOM      3  C   UNL     1      -3.835  11.612  17.701  0.00  0.00    +0.000 A 
ATOM      4  C   UNL     1      -2.710  11.216  18.394  0.00  0.00    +0.000 A 
ATOM      5  C   UNL     1      -1.751  10.399  17.826  0.00  0.00    +0.000 A 
ATOM      6  C   UNL     1      -1.881   9.938  16.526  0.00  0.00    +0.000 A 
ATOM      7  C   UNL     1      -0.663  10.174  18.803  0.00  0.00    +0.000 C 
ATOM      8  C   UNL     1      -0.943  11.326  19.818  0.00  0.00    +0.000 C 
ATOM      9  O   UNL     1      -2.379  11.654  19.650  0.00  0.00    +0.000 OA
ATOM     10  C   UNL     1      -0.828  10.800  21.289  0.00  0.00    +0.000 C 
ATOM     11  C   UNL     1       0.501  10.129  21.660  0.00  0.00    +0.000 C 
ATOM     12  C   UNL     1      -1.185  11.892  22.311  0.00  0.00    +0.000 C 
ATOM     13  C   UNL     1      -0.410  13.186  22.098  0.00  0.00    +0.000 C 
ATOM     14  C   UNL     1      -0.544  13.707  20.666  0.00  0.00    +0.000 C 
ATOM     15  C   UNL     1      -0.120  12.673  19.575  0.00  0.00    +0.000 C 
ATOM     16  C   UNL     1       1.415  12.466  19.585  0.00  0.00    +0.000 C 
ATOM     17  C   UNL     1      -0.431  13.319  18.196  0.00  0.00    +0.000 C 
ENDROOT
BRANCH   1  18
ATOM     18  C   UNL     1      -3.179   9.975  14.354  0.00  0.00    +0.000 C 
ATOM     19  O   UNL     1      -2.254   9.736  13.594  0.00  0.00    +0.000 OA
BRANCH  18  21
ATOM     20  C   UNL     1      -4.760   9.704  12.652  0.00  0.00    +0.000 C 
ATOM     21  O   UNL     1      -4.498   9.928  14.038  0.00  0.00    +0.000 OA
ENDBRANCH  18  21
ENDBRANCH   1  18
BRANCH  14  22
ATOM     22  O   UNL     1       0.197  14.923  20.551  0.00  0.00    +0.000 OA
ATOM     23  H   UNL     1      -0.241  15.604  21.088  0.00  0.00    +0.000 HD
ENDBRANCH  14  22
TORSDOF 3
ENDMDL
MODEL 8
REMARK VINA RESULT:      -6.3      9.622     11.253
REMARK  Name = 
REMARK  7 active torsions:
REMARK  status: ('A' for Active; 'I' for Inactive)
REMARK    1  A    between atoms: C_1  and  O_2
REMARK    2  A    between atoms: O_2  and  C_3
REMARK    3  A    between atoms: C_3  and  C_5
REMARK    4  A    between atoms: C_14  and  C_15
REMARK    5  A    between atoms: C_18  and  O_19
REMARK    6  A    between atoms: C_20  and  C_21
REMARK    7  A    between atoms: C_20  and  C_22
REMARK                            x       y       z     vdW  Elec       q    Type
REMARK                         _______ _______ _______ _____ _____    ______ ____
ROOT
ATOM      1  C   UNL     1       8.994  10.017  18.566  0.00  0.00    +0.000 A 
ATOM      2  C   UNL     1       9.251  10.158  19.948  0.00  0.00    +0.000 A 
ATOM      3  C   UNL     1       9.931  11.276  20.439  0.00  0.00    +0.000 A 
ATOM      4  C   UNL     1      10.315  12.246  19.536  0.00  0.00    +0.000 A 
ATOM      5  C   UNL     1      10.073  12.120  18.182  0.00  0.00    +0.000 A 
ATOM      6  C   UNL     1       9.431  11.005  17.668  0.00  0.00    +0.000 A 
ATOM      7  C   UNL     1      10.576  13.324  17.484  0.00  0.00    +0.000 C 
ATOM      8  C   UNL     1      10.729  14.311  18.684  0.00  0.00    +0.000 C 
ATOM      9  O   UNL     1      10.872  13.449  19.882  0.00  0.00    +0.000 OA
ATOM     10  C   UNL     1      12.089  15.083  18.588  0.00  0.00    +0.000 C 
ATOM     11  C   UNL     1      12.333  15.853  17.284  0.00  0.00    +0.000 C 
ATOM     12  C   UNL     1      12.306  15.999  19.805  0.00  0.00    +0.000 C 
ATOM     13  C   UNL     1      11.130  16.930  20.069  0.00  0.00    +0.000 C 
ATOM     14  C   UNL     1       9.809  16.168  20.184  0.00  0.00    +0.000 C 
ATOM     15  C   UNL     1       9.484  15.277  18.943  0.00  0.00    +0.000 C 
ATOM     16  C   UNL     1       9.120  16.153  17.720  0.00  0.00    +0.000 C 
ATOM     17  C   UNL     1       8.184  14.492  19.279  0.00  0.00    +0.000 C 
ENDROOT
BRANCH   1  18
ATOM     18  C   UNL     1       8.227   8.824  18.115  0.00  0.00    +0.000 C 
ATOM     19  O   UNL     1       7.411   8.848  17.208  0.00  0.00    +0.000 OA
BRANCH  18  21
ATOM     20  C   UNL     1       7.821   6.558  18.532  0.00  0.00    +0.000 C 
ATOM     21  O   UNL     1       8.573   7.732  18.843  0.00  0.00    +0.000 OA
ENDBRANCH  18  21
ENDBRANCH   1  18
BRANCH  14  22
ATOM     22  O   UNL     1       8.762  17.105  20.444  0.00  0.00    +0.000 OA
ATOM     23  H   UNL     1       7.969  16.825  19.956  0.00  0.00    +0.000 HD
ENDBRANCH  14  22
TORSDOF 3
ENDMDL
MODEL 9
REMARK VINA RESULT:      -6.1      2.449      6.821
REMARK  Name = 
REMARK  7 active torsions:
REMARK  status: ('A' for Active; 'I' for Inactive)
REMARK    1  A    between atoms: C_1  and  O_2
REMARK    2  A    between atoms: O_2  and  C_3
REMARK    3  A    between atoms: C_3  and  C_5
REMARK    4  A    between atoms: C_14  and  C_15
REMARK    5  A    between atoms: C_18  and  O_19
REMARK    6  A    between atoms: C_20  and  C_21
REMARK    7  A    between atoms: C_20  and  C_22
REMARK                            x       y       z     vdW  Elec       q    Type
REMARK                         _______ _______ _______ _____ _____    ______ ____
ROOT
ATOM      1  C   UNL     1       1.621   6.887  20.308  0.00  0.00    +0.000 A 
ATOM      2  C   UNL     1       1.627   5.479  20.420  0.00  0.00    +0.000 A 
ATOM      3  C   UNL     1       2.342   4.693  19.512  0.00  0.00    +0.000 A 
ATOM      4  C   UNL     1       3.062   5.337  18.527  0.00  0.00    +0.000 A 
ATOM      5  C   UNL     1       3.062   6.714  18.404  0.00  0.00    +0.000 A 
ATOM      6  C   UNL     1       2.333   7.511  19.271  0.00  0.00    +0.000 A 
ATOM      7  C   UNL     1       3.941   7.101  17.278  0.00  0.00    +0.000 C 
ATOM      8  C   UNL     1       4.757   5.785  17.083  0.00  0.00    +0.000 C 
ATOM      9  O   UNL     1       3.908   4.710  17.650  0.00  0.00    +0.000 OA
ATOM     10  C   UNL     1       4.874   5.434  15.561  0.00  0.00    +0.000 C 
ATOM     11  C   UNL     1       5.475   6.524  14.664  0.00  0.00    +0.000 C 
ATOM     12  C   UNL     1       5.599   4.096  15.343  0.00  0.00    +0.000 C 
ATOM     13  C   UNL     1       6.942   4.020  16.058  0.00  0.00    +0.000 C 
ATOM     14  C   UNL     1       6.817   4.341  17.548  0.00  0.00    +0.000 C 
ATOM     15  C   UNL     1       6.161   5.727  17.842  0.00  0.00    +0.000 C 
ATOM     16  C   UNL     1       7.118   6.881  17.453  0.00  0.00    +0.000 C 
ATOM     17  C   UNL     1       6.006   5.835  19.386  0.00  0.00    +0.000 C 
ENDROOT
BRANCH   1  18
ATOM     18  C   UNL     1       0.873   7.667  21.333  0.00  0.00    +0.000 C 
ATOM     19  O   UNL     1      -0.324   7.544  21.535  0.00  0.00    +0.000 OA
BRANCH  18  21
ATOM     20  C   UNL     1       1.042   9.533  22.733  0.00  0.00    +0.000 C 
ATOM     21  O   UNL     1       1.708   8.508  21.995  0.00  0.00    +0.000 OA
ENDBRANCH  18  21
ENDBRANCH   1  18
BRANCH  14  22
ATOM     22  O   UNL     1       8.110   4.237  18.148  0.00  0.00    +0.000 OA
ATOM     23  H   UNL     1       8.024   4.411  19.100  0.00  0.00    +0.000 HD
ENDBRANCH  14  22
TORSDOF 3
ENDMDL
