MODEL 1
REMARK VINA RESULT:      -7.5      0.000      0.000
REMARK  Name = 
REMARK  7 active torsions:
REMARK  status: ('A' for Active; 'I' for Inactive)
REMARK    1  A    between atoms: S_2  and  C_4
REMARK    2  A    between atoms: S_2  and  N_15
REMARK    3  A    between atoms: C_7  and  O_8
REMARK    4  A    between atoms: O_8  and  C_9
REMARK    5  A    between atoms: N_18  and  C_19
REMARK    6  A    between atoms: C_19  and  C_20
REMARK    7  A    between atoms: C_29  and  O_30
REMARK                            x       y       z     vdW  Elec       q    Type
REMARK                         _______ _______ _______ _____ _____    ______ ____
ROOT
ATOM      1  N   UNL     1       0.320  11.305  20.498  0.00  0.00    +0.000 NA
ATOM      2  C   UNL     1       1.152  12.365  21.154  0.00  0.00    +0.000 C 
ATOM      3  C   UNL     1       0.484  13.764  21.180  0.00  0.00    +0.000 C 
ATOM      4  N   UNL     1      -0.958  13.812  21.514  0.00  0.00    +0.000 NA
ATOM      5  C   UNL     1      -1.647  12.810  20.670  0.00  0.00    +0.000 C 
ATOM      6  C   UNL     1      -1.116  11.385  20.867  0.00  0.00    +0.000 C 
ENDROOT
BRANCH   1   8
ATOM      7  O   UNL     1       1.611  11.900  18.388  0.00  0.00    +0.000 OA
ATOM      8  S   UNL     1       0.636  10.945  18.868  0.00  0.00    +0.000 S 
ATOM      9  O   UNL     1      -0.616  10.723  18.181  0.00  0.00    +0.000 OA
BRANCH   8  10
ATOM     10  C   UNL     1       1.422   9.361  19.020  0.00  0.00    +0.000 A 
ATOM     11  C   UNL     1       2.087   8.839  17.910  0.00  0.00    +0.000 A 
ATOM     12  C   UNL     1       2.614   7.553  17.977  0.00  0.00    +0.000 A 
ATOM     13  C   UNL     1       2.496   6.790  19.146  0.00  0.00    +0.000 A 
ATOM     14  C   UNL     1       1.836   7.330  20.254  0.00  0.00    +0.000 A 
ATOM     15  C   UNL     1       1.312   8.627  20.201  0.00  0.00    +0.000 A 
BRANCH  13  16
ATOM     16  O   UNL     1       3.016   5.540  19.039  0.00  0.00    +0.000 OA
BRANCH  16  17
ATOM     17  C   UNL     1       2.179   4.430  18.767  0.00  0.00    +0.000 C 
ATOM     18  F   UNL     1       2.844   3.276  18.555  0.00  0.00    +0.000 F 
ATOM     19  F   UNL     1       1.313   4.257  19.788  0.00  0.00    +0.000 F 
ATOM     20  F   UNL     1       1.466   4.705  17.651  0.00  0.00    +0.000 F 
ENDBRANCH  16  17
ENDBRANCH  13  16
ENDBRANCH   8  10
ENDBRANCH   1   8
BRANCH   4  21
ATOM     21  C   UNL     1      -1.198  13.613  22.963  0.00  0.00    +0.000 C 
BRANCH  21  22
ATOM     22  C   UNL     1      -2.606  14.009  23.383  0.00  0.00    +0.000 A 
ATOM     23  C   UNL     1      -2.964  15.357  23.408  0.00  0.00    +0.000 A 
ATOM     24  C   UNL     1      -4.296  15.739  23.603  0.00  0.00    +0.000 A 
ATOM     25  C   UNL     1      -5.295  14.766  23.775  0.00  0.00    +0.000 A 
ATOM     26  C   UNL     1      -6.653  15.101  23.845  0.00  0.00    +0.000 A 
ATOM     27  C   UNL     1      -7.604  14.097  24.000  0.00  0.00    +0.000 A 
ATOM     28  C   UNL     1      -7.161  12.794  24.116  0.00  0.00    +0.000 A 
ATOM     29  N   UNL     1      -5.861  12.428  24.040  0.00  0.00    +0.000 NA
ATOM     30  C   UNL     1      -4.946  13.404  23.843  0.00  0.00    +0.000 A 
ATOM     31  C   UNL     1      -3.605  13.060  23.646  0.00  0.00    +0.000 A 
BRANCH  31  32
ATOM     32  O   UNL     1      -3.288  11.718  23.666  0.00  0.00    +0.000 OA
ATOM     33  H   UNL     1      -3.321  11.482  24.618  0.00  0.00    +0.000 HD
ENDBRANCH  31  32
ENDBRANCH  21  22
ENDBRANCH   4  21
TORSDOF 7
ENDMDL
MODEL 2
REMARK VINA RESULT:      -7.5      1.710      2.110
REMARK  Name = 
REMARK  7 active torsions:
REMARK  status: ('A' for Active; 'I' for Inactive)
REMARK    1  A    between atoms: S_2  and  C_4
REMARK    2  A    between atoms: S_2  and  N_15
REMARK    3  A    between atoms: C_7  and  O_8
REMARK    4  A    between atoms: O_8  and  C_9
REMARK    5  A    between atoms: N_18  and  C_19
REMARK    6  A    between atoms: C_19  and  C_20
REMARK    7  A    between atoms: C_29  and  O_30
REMARK                            x       y       z     vdW  Elec       q    Type
REMARK                         _______ _______ _______ _____ _____    ______ ____
ROOT
ATOM      1  N   UNL     1       0.919  10.705  19.820  0.00  0.00    +0.000 NA
ATOM      2  C   UNL     1       1.422  12.111  19.944  0.00  0.00    +0.000 C 
ATOM      3  C   UNL     1       0.356  13.192  19.627  0.00  0.00    +0.000 C 
ATOM      4  N   UNL     1      -1.005  12.970  20.168  0.00  0.00    +0.000 NA
ATOM      5  C   UNL     1      -1.402  11.586  19.825  0.00  0.00    +0.000 C 
ATOM      6  C   UNL     1      -0.444  10.526  20.382  0.00  0.00    +0.000 C 
ENDROOT
BRANCH   1   8
ATOM      7  O   UNL     1       2.330  10.539  17.709  0.00  0.00    +0.000 OA
ATOM      8  S   UNL     1       1.223   9.879  18.366  0.00  0.00    +0.000 S 
ATOM      9  O   UNL     1      -0.030   9.634  17.689  0.00  0.00    +0.000 OA
BRANCH   8  10
ATOM     10  C   UNL     1       1.784   8.312  18.982  0.00  0.00    +0.000 A 
ATOM     11  C   UNL     1       2.324   7.396  18.077  0.00  0.00    +0.000 A 
ATOM     12  C   UNL     1       2.667   6.123  18.523  0.00  0.00    +0.000 A 
ATOM     13  C   UNL     1       2.491   5.762  19.865  0.00  0.00    +0.000 A 
ATOM     14  C   UNL     1       1.959   6.693  20.763  0.00  0.00    +0.000 A 
ATOM     15  C   UNL     1       1.621   7.980  20.327  0.00  0.00    +0.000 A 
BRANCH  13  16
ATOM     16  O   UNL     1       2.826   4.473  20.134  0.00  0.00    +0.000 OA
BRANCH  16  17
ATOM     17  C   UNL     1       1.897   3.600  20.751  0.00  0.00    +0.000 C 
ATOM     18  F   UNL     1       0.606   3.898  20.496  0.00  0.00    +0.000 F 
ATOM     19  F   UNL     1       2.141   2.332  20.359  0.00  0.00    +0.000 F 
ATOM     20  F   UNL     1       2.078   3.670  22.089  0.00  0.00    +0.000 F 
ENDBRANCH  16  17
ENDBRANCH  13  16
ENDBRANCH   8  10
ENDBRANCH   1   8
BRANCH   4  21
ATOM     21  C   UNL     1      -1.076  13.251  21.622  0.00  0.00    +0.000 C 
BRANCH  21  22
ATOM     22  C   UNL     1      -2.478  13.069  22.184  0.00  0.00    +0.000 A 
ATOM     23  C   UNL     1      -2.666  12.298  23.332  0.00  0.00    +0.000 A 
ATOM     24  C   UNL     1      -3.907  12.269  23.977  0.00  0.00    +0.000 A 
ATOM     25  C   UNL     1      -4.984  13.019  23.478  0.00  0.00    +0.000 A 
ATOM     26  C   UNL     1      -6.202  13.117  24.163  0.00  0.00    +0.000 A 
ATOM     27  C   UNL     1      -7.233  13.886  23.632  0.00  0.00    +0.000 A 
ATOM     28  C   UNL     1      -7.023  14.503  22.413  0.00  0.00    +0.000 A 
ATOM     29  N   UNL     1      -5.859  14.444  21.728  0.00  0.00    +0.000 NA
ATOM     30  C   UNL     1      -4.846  13.732  22.272  0.00  0.00    +0.000 A 
ATOM     31  C   UNL     1      -3.592  13.737  21.653  0.00  0.00    +0.000 A 
BRANCH  31  32
ATOM     32  O   UNL     1      -3.459  14.481  20.500  0.00  0.00    +0.000 OA
ATOM     33  H   UNL     1      -4.338  14.405  20.069  0.00  0.00    +0.000 HD
ENDBRANCH  31  32
ENDBRANCH  21  22
ENDBRANCH   4  21
TORSDOF 7
ENDMDL
MODEL 3
REMARK VINA RESULT:      -7.2      5.137      9.886
REMARK  Name = 
REMARK  7 active torsions:
REMARK  status: ('A' for Active; 'I' for Inactive)
REMARK    1  A    between atoms: S_2  and  C_4
REMARK    2  A    between atoms: S_2  and  N_15
REMARK    3  A    between atoms: C_7  and  O_8
REMARK    4  A    between atoms: O_8  and  C_9
REMARK    5  A    between atoms: N_18  and  C_19
REMARK    6  A    between atoms: C_19  and  C_20
REMARK    7  A    between atoms: C_29  and  O_30
REMARK                            x       y       z     vdW  Elec       q    Type
REMARK                         _______ _______ _______ _____ _____    ______ ____
ROOT
ATOM      1  N   UNL     1       0.226  11.458  22.076  0.00  0.00    +0.000 NA
ATOM      2  C   UNL     1      -0.101  10.225  22.863  0.00  0.00    +0.000 C 
ATOM      3  C   UNL     1      -0.517   9.013  21.991  0.00  0.00    +0.000 C 
ATOM      4  N   UNL     1       0.268   8.772  20.759  0.00  0.00    +0.000 NA
ATOM      5  C   UNL     1       0.365  10.057  20.031  0.00  0.00    +0.000 C 
ATOM      6  C   UNL     1       1.021  11.172  20.855  0.00  0.00    +0.000 C 
ENDROOT
BRANCH   1   8
ATOM      7  O   UNL     1      -1.201  13.248  23.186  0.00  0.00    +0.000 OA
ATOM      8  S   UNL     1      -0.992  12.629  21.896  0.00  0.00    +0.000 S 
ATOM      9  O   UNL     1      -2.083  12.065  21.134  0.00  0.00    +0.000 OA
BRANCH   8  10
ATOM     10  C   UNL     1      -0.180  13.797  20.833  0.00  0.00    +0.000 A 
ATOM     11  C   UNL     1       0.902  14.518  21.342  0.00  0.00    +0.000 A 
ATOM     12  C   UNL     1       1.480  15.514  20.561  0.00  0.00    +0.000 A 
ATOM     13  C   UNL     1       1.000  15.785  19.273  0.00  0.00    +0.000 A 
ATOM     14  C   UNL     1      -0.077  15.047  18.773  0.00  0.00    +0.000 A 
ATOM     15  C   UNL     1      -0.660  14.036  19.546  0.00  0.00    +0.000 A 
BRANCH  13  16
ATOM     16  O   UNL     1       1.635  16.815  18.657  0.00  0.00    +0.000 OA
BRANCH  16  17
ATOM     17  C   UNL     1       2.807  16.588  17.894  0.00  0.00    +0.000 C 
ATOM     18  F   UNL     1       2.836  17.247  16.718  0.00  0.00    +0.000 F 
ATOM     19  F   UNL     1       3.892  16.934  18.619  0.00  0.00    +0.000 F 
ATOM     20  F   UNL     1       2.884  15.265  17.625  0.00  0.00    +0.000 F 
ENDBRANCH  16  17
ENDBRANCH  13  16
ENDBRANCH   8  10
ENDBRANCH   1   8
BRANCH   4  21
ATOM     21  C   UNL     1       1.592   8.172  21.054  0.00  0.00    +0.000 C 
BRANCH  21  22
ATOM     22  C   UNL     1       2.116   7.319  19.908  0.00  0.00    +0.000 A 
ATOM     23  C   UNL     1       2.408   7.917  18.682  0.00  0.00    +0.000 A 
ATOM     24  C   UNL     1       3.067   7.201  17.677  0.00  0.00    +0.000 A 
ATOM     25  C   UNL     1       3.445   5.864  17.889  0.00  0.00    +0.000 A 
ATOM     26  C   UNL     1       4.215   5.153  16.960  0.00  0.00    +0.000 A 
ATOM     27  C   UNL     1       4.575   3.836  17.227  0.00  0.00    +0.000 A 
ATOM     28  C   UNL     1       4.122   3.262  18.399  0.00  0.00    +0.000 A 
ATOM     29  N   UNL     1       3.389   3.918  19.327  0.00  0.00    +0.000 NA
ATOM     30  C   UNL     1       3.081   5.212  19.082  0.00  0.00    +0.000 A 
ATOM     31  C   UNL     1       2.422   5.959  20.064  0.00  0.00    +0.000 A 
BRANCH  31  32
ATOM     32  O   UNL     1       2.118   5.319  21.247  0.00  0.00    +0.000 OA
ATOM     33  H   UNL     1       1.344   4.760  21.019  0.00  0.00    +0.000 HD
ENDBRANCH  31  32
ENDBRANCH  21  22
ENDBRANCH   4  21
TORSDOF 7
ENDMDL
MODEL 4
REMARK VINA RESULT:      -7.2      1.069      1.482
REMARK  Name = 
REMARK  7 active torsions:
REMARK  status: ('A' for Active; 'I' for Inactive)
REMARK    1  A    between atoms: S_2  and  C_4
REMARK    2  A    between atoms: S_2  and  N_15
REMARK    3  A    between atoms: C_7  and  O_8
REMARK    4  A    between atoms: O_8  and  C_9
REMARK    5  A    between atoms: N_18  and  C_19
REMARK    6  A    between atoms: C_19  and  C_20
REMARK    7  A    between atoms: C_29  and  O_30
REMARK                            x       y       z     vdW  Elec       q    Type
REMARK                         _______ _______ _______ _____ _____    ______ ____
ROOT
ATOM      1  N   UNL     1       0.524  11.007  20.377  0.00  0.00    +0.000 NA
ATOM      2  C   UNL     1       1.376  12.077  20.989  0.00  0.00    +0.000 C 
ATOM      3  C   UNL     1       0.726  13.484  20.976  0.00  0.00    +0.000 C 
ATOM      4  N   UNL     1      -0.712  13.562  21.323  0.00  0.00    +0.000 NA
ATOM      5  C   UNL     1      -1.422  12.542  20.519  0.00  0.00    +0.000 C 
ATOM      6  C   UNL     1      -0.907  11.117  20.758  0.00  0.00    +0.000 C 
ENDROOT
BRANCH   1   8
ATOM      7  O   UNL     1       1.852  11.468  18.257  0.00  0.00    +0.000 OA
ATOM      8  S   UNL     1       0.818  10.590  18.756  0.00  0.00    +0.000 S 
ATOM      9  O   UNL     1      -0.445  10.432  18.071  0.00  0.00    +0.000 OA
BRANCH   8  10
ATOM     10  C   UNL     1       1.500   8.962  18.947  0.00  0.00    +0.000 A 
ATOM     11  C   UNL     1       1.394   8.339  20.192  0.00  0.00    +0.000 A 
ATOM     12  C   UNL     1       2.017   7.111  20.391  0.00  0.00    +0.000 A 
ATOM     13  C   UNL     1       2.732   6.494  19.356  0.00  0.00    +0.000 A 
ATOM     14  C   UNL     1       2.821   7.124  18.112  0.00  0.00    +0.000 A 
ATOM     15  C   UNL     1       2.188   8.355  17.898  0.00  0.00    +0.000 A 
BRANCH  13  16
ATOM     16  O   UNL     1       3.323   5.326  19.720  0.00  0.00    +0.000 OA
BRANCH  16  17
ATOM     17  C   UNL     1       4.559   4.933  19.148  0.00  0.00    +0.000 C 
ATOM     18  F   UNL     1       5.562   5.814  19.346  0.00  0.00    +0.000 F 
ATOM     19  F   UNL     1       4.924   3.732  19.643  0.00  0.00    +0.000 F 
ATOM     20  F   UNL     1       4.383   4.804  17.813  0.00  0.00    +0.000 F 
ENDBRANCH  16  17
ENDBRANCH  13  16
ENDBRANCH   8  10
ENDBRANCH   1   8
BRANCH   4  21
ATOM     21  C   UNL     1      -0.939  13.413  22.780  0.00  0.00    +0.000 C 
BRANCH  21  22
ATOM     22  C   UNL     1      -2.324  13.878  23.206  0.00  0.00    +0.000 A 
ATOM     23  C   UNL     1      -2.649  15.232  23.134  0.00  0.00    +0.000 A 
ATOM     24  C   UNL     1      -3.965  15.662  23.334  0.00  0.00    +0.000 A 
ATOM     25  C   UNL     1      -4.981  14.733  23.613  0.00  0.00    +0.000 A 
ATOM     26  C   UNL     1      -6.329  15.107  23.695  0.00  0.00    +0.000 A 
ATOM     27  C   UNL     1      -7.297  14.144  23.958  0.00  0.00    +0.000 A 
ATOM     28  C   UNL     1      -6.882  12.842  24.166  0.00  0.00    +0.000 A 
ATOM     29  N   UNL     1      -5.594  12.439  24.082  0.00  0.00    +0.000 NA
ATOM     30  C   UNL     1      -4.662  13.372  23.781  0.00  0.00    +0.000 A 
ATOM     31  C   UNL     1      -3.337  12.979  23.574  0.00  0.00    +0.000 A 
BRANCH  31  32
ATOM     32  O   UNL     1      -3.051  11.635  23.693  0.00  0.00    +0.000 OA
ATOM     33  H   UNL     1      -2.350  11.604  24.380  0.00  0.00    +0.000 HD
ENDBRANCH  31  32
ENDBRANCH  21  22
ENDBRANCH   4  21
TORSDOF 7
ENDMDL
MODEL 5
REMARK VINA RESULT:      -7.1      5.037      9.840
REMARK  Name = 
REMARK  7 active torsions:
REMARK  status: ('A' for Active; 'I' for Inactive)
REMARK    1  A    between atoms: S_2  and  C_4
REMARK    2  A    between atoms: S_2  and  N_15
REMARK    3  A    between atoms: C_7  and  O_8
REMARK    4  A    between atoms: O_8  and  C_9
REMARK    5  A    between atoms: N_18  and  C_19
REMARK    6  A    between atoms: C_19  and  C_20
REMARK    7  A    between atoms: C_29  and  O_30
REMARK                            x       y       z     vdW  Elec       q    Type
REMARK                         _______ _______ _______ _____ _____    ______ ____
ROOT
ATOM      1  N   UNL     1       0.194  11.501  21.934  0.00  0.00    +0.000 NA
ATOM      2  C   UNL     1      -0.061  10.270  22.750  0.00  0.00    +0.000 C 
ATOM      3  C   UNL     1      -0.454   9.027  21.910  0.00  0.00    +0.000 C 
ATOM      4  N   UNL     1       0.304   8.797  20.659  0.00  0.00    +0.000 NA
ATOM      5  C   UNL     1       0.328  10.072  19.908  0.00  0.00    +0.000 C 
ATOM      6  C   UNL     1       0.963  11.225  20.695  0.00  0.00    +0.000 C 
ENDROOT
BRANCH   1   8
ATOM      7  O   UNL     1      -1.429  13.078  23.098  0.00  0.00    +0.000 OA
ATOM      8  S   UNL     1      -1.075  12.621  21.773  0.00  0.00    +0.000 S 
ATOM      9  O   UNL     1      -2.061  12.090  20.859  0.00  0.00    +0.000 OA
BRANCH   8  10
ATOM     10  C   UNL     1      -0.250  13.941  20.919  0.00  0.00    +0.000 A 
ATOM     11  C   UNL     1      -0.694  14.287  19.642  0.00  0.00    +0.000 A 
ATOM     12  C   UNL     1       0.009  15.243  18.915  0.00  0.00    +0.000 A 
ATOM     13  C   UNL     1       1.140  15.867  19.458  0.00  0.00    +0.000 A 
ATOM     14  C   UNL     1       1.567  15.518  20.742  0.00  0.00    +0.000 A 
ATOM     15  C   UNL     1       0.861  14.565  21.486  0.00  0.00    +0.000 A 
BRANCH  13  16
ATOM     16  O   UNL     1       1.744  16.739  18.609  0.00  0.00    +0.000 OA
BRANCH  16  17
ATOM     17  C   UNL     1       2.910  16.364  17.897  0.00  0.00    +0.000 C 
ATOM     18  F   UNL     1       4.061  16.760  18.477  0.00  0.00    +0.000 F 
ATOM     19  F   UNL     1       2.933  15.024  17.744  0.00  0.00    +0.000 F 
ATOM     20  F   UNL     1       2.853  16.929  16.669  0.00  0.00    +0.000 F 
ENDBRANCH  16  17
ENDBRANCH  13  16
ENDBRANCH   8  10
ENDBRANCH   1   8
BRANCH   4  21
ATOM     21  C   UNL     1       1.659   8.255  20.924  0.00  0.00    +0.000 C 
BRANCH  21  22
ATOM     22  C   UNL     1       2.150   7.340  19.811  0.00  0.00    +0.000 A 
ATOM     23  C   UNL     1       2.491   7.884  18.573  0.00  0.00    +0.000 A 
ATOM     24  C   UNL     1       3.122   7.102  17.599  0.00  0.00    +0.000 A 
ATOM     25  C   UNL     1       3.422   5.754  17.856  0.00  0.00    +0.000 A 
ATOM     26  C   UNL     1       4.164   4.974  16.960  0.00  0.00    +0.000 A 
ATOM     27  C   UNL     1       4.447   3.648  17.270  0.00  0.00    +0.000 A 
ATOM     28  C   UNL     1       3.947   3.135  18.452  0.00  0.00    +0.000 A 
ATOM     29  N   UNL     1       3.240   3.858  19.349  0.00  0.00    +0.000 NA
ATOM     30  C   UNL     1       3.007   5.159  19.062  0.00  0.00    +0.000 A 
ATOM     31  C   UNL     1       2.377   5.970  20.011  0.00  0.00    +0.000 A 
BRANCH  31  32
ATOM     32  O   UNL     1       2.023   5.384  21.208  0.00  0.00    +0.000 OA
ATOM     33  H   UNL     1       1.324   4.741  20.957  0.00  0.00    +0.000 HD
ENDBRANCH  31  32
ENDBRANCH  21  22
ENDBRANCH   4  21
TORSDOF 7
ENDMDL
MODEL 6
REMARK VINA RESULT:      -7.1      1.241      1.743
REMARK  Name = 
REMARK  7 active torsions:
REMARK  status: ('A' for Active; 'I' for Inactive)
REMARK    1  A    between atoms: S_2  and  C_4
REMARK    2  A    between atoms: S_2  and  N_15
REMARK    3  A    between atoms: C_7  and  O_8
REMARK    4  A    between atoms: O_8  and  C_9
REMARK    5  A    between atoms: N_18  and  C_19
REMARK    6  A    between atoms: C_19  and  C_20
REMARK    7  A    between atoms: C_29  and  O_30
REMARK                            x       y       z     vdW  Elec       q    Type
REMARK                         _______ _______ _______ _____ _____    ______ ____
ROOT
ATOM      1  N   UNL     1       0.790  10.430  20.248  0.00  0.00    +0.000 NA
ATOM      2  C   UNL     1       1.398  11.629  20.910  0.00  0.00    +0.000 C 
ATOM      3  C   UNL     1       0.463  12.865  20.958  0.00  0.00    +0.000 C 
ATOM      4  N   UNL     1      -0.955  12.619  21.304  0.00  0.00    +0.000 NA
ATOM      5  C   UNL     1      -1.437  11.507  20.454  0.00  0.00    +0.000 C 
ATOM      6  C   UNL     1      -0.629  10.216  20.630  0.00  0.00    +0.000 C 
ENDROOT
BRANCH   1   8
ATOM      7  O   UNL     1       2.086  11.181  18.192  0.00  0.00    +0.000 OA
ATOM      8  S   UNL     1       1.155  10.158  18.611  0.00  0.00    +0.000 S 
ATOM      9  O   UNL     1      -0.071   9.900  17.889  0.00  0.00    +0.000 OA
BRANCH   8  10
ATOM     10  C   UNL     1       2.020   8.611  18.713  0.00  0.00    +0.000 A 
ATOM     11  C   UNL     1       2.835   8.233  17.645  0.00  0.00    +0.000 A 
ATOM     12  C   UNL     1       3.434   6.977  17.660  0.00  0.00    +0.000 A 
ATOM     13  C   UNL     1       3.239   6.103  18.736  0.00  0.00    +0.000 A 
ATOM     14  C   UNL     1       2.428   6.498  19.804  0.00  0.00    +0.000 A 
ATOM     15  C   UNL     1       1.830   7.765  19.805  0.00  0.00    +0.000 A 
BRANCH  13  16
ATOM     16  O   UNL     1       3.848   4.898  18.581  0.00  0.00    +0.000 OA
BRANCH  16  17
ATOM     17  C   UNL     1       3.134   3.789  18.063  0.00  0.00    +0.000 C 
ATOM     18  F   UNL     1       1.955   4.111  17.491  0.00  0.00    +0.000 F 
ATOM     19  F   UNL     1       3.899   3.142  17.160  0.00  0.00    +0.000 F 
ATOM     20  F   UNL     1       2.877   2.941  19.084  0.00  0.00    +0.000 F 
ENDBRANCH  16  17
ENDBRANCH  13  16
ENDBRANCH   8  10
ENDBRANCH   1   8
BRANCH   4  21
ATOM     21  C   UNL     1      -1.135  12.361  22.753  0.00  0.00    +0.000 C 
BRANCH  21  22
ATOM     22  C   UNL     1      -2.003  13.412  23.431  0.00  0.00    +0.000 A 
ATOM     23  C   UNL     1      -1.399  14.457  24.130  0.00  0.00    +0.000 A 
ATOM     24  C   UNL     1      -2.158  15.535  24.598  0.00  0.00    +0.000 A 
ATOM     25  C   UNL     1      -3.543  15.580  24.368  0.00  0.00    +0.000 A 
ATOM     26  C   UNL     1      -4.316  16.698  24.708  0.00  0.00    +0.000 A 
ATOM     27  C   UNL     1      -5.682  16.698  24.444  0.00  0.00    +0.000 A 
ATOM     28  C   UNL     1      -6.237  15.564  23.882  0.00  0.00    +0.000 A 
ATOM     29  N   UNL     1      -5.523  14.471  23.528  0.00  0.00    +0.000 NA
ATOM     30  C   UNL     1      -4.189  14.496  23.745  0.00  0.00    +0.000 A 
ATOM     31  C   UNL     1      -3.399  13.434  23.292  0.00  0.00    +0.000 A 
BRANCH  31  32
ATOM     32  O   UNL     1      -4.040  12.404  22.638  0.00  0.00    +0.000 OA
ATOM     33  H   UNL     1      -3.443  12.195  21.887  0.00  0.00    +0.000 HD
ENDBRANCH  31  32
ENDBRANCH  21  22
ENDBRANCH   4  21
TORSDOF 7
ENDMDL
MODEL 7
REMARK VINA RESULT:      -7.1      4.079      6.797
REMARK  Name = 
REMARK  7 active torsions:
REMARK  status: ('A' for Active; 'I' for Inactive)
REMARK    1  A    between atoms: S_2  and  C_4
REMARK    2  A    between atoms: S_2  and  N_15
REMARK    3  A    between atoms: C_7  and  O_8
REMARK    4  A    between atoms: O_8  and  C_9
REMARK    5  A    between atoms: N_18  and  C_19
REMARK    6  A    between atoms: C_19  and  C_20
REMARK    7  A    between atoms: C_29  and  O_30
REMARK                            x       y       z     vdW  Elec       q    Type
REMARK                         _______ _______ _______ _____ _____    ______ ____
ROOT
ATOM      1  N   UNL     1       3.478   5.009  20.081  0.00  0.00    +0.000 NA
ATOM      2  C   UNL     1       3.688   6.326  19.398  0.00  0.00    +0.000 C 
ATOM      3  C   UNL     1       2.376   7.094  19.092  0.00  0.00    +0.000 C 
ATOM      4  N   UNL     1       1.342   7.102  20.152  0.00  0.00    +0.000 NA
ATOM      5  C   UNL     1       1.154   5.706  20.605  0.00  0.00    +0.000 C 
ATOM      6  C   UNL     1       2.440   5.065  21.140  0.00  0.00    +0.000 C 
ENDROOT
BRANCH   1   8
ATOM      7  O   UNL     1       2.189   3.565  18.429  0.00  0.00    +0.000 OA
ATOM      8  S   UNL     1       3.461   3.610  19.115  0.00  0.00    +0.000 S 
ATOM      9  O   UNL     1       3.950   2.493  19.891  0.00  0.00    +0.000 OA
BRANCH   8  10
ATOM     10  C   UNL     1       4.728   4.003  17.935  0.00  0.00    +0.000 A 
ATOM     11  C   UNL     1       4.451   3.826  16.578  0.00  0.00    +0.000 A 
ATOM     12  C   UNL     1       5.465   4.024  15.647  0.00  0.00    +0.000 A 
ATOM     13  C   UNL     1       6.748   4.410  16.056  0.00  0.00    +0.000 A 
ATOM     14  C   UNL     1       7.009   4.593  17.418  0.00  0.00    +0.000 A 
ATOM     15  C   UNL     1       5.992   4.408  18.362  0.00  0.00    +0.000 A 
BRANCH  13  16
ATOM     16  O   UNL     1       7.640   4.515  15.037  0.00  0.00    +0.000 OA
BRANCH  16  17
ATOM     17  C   UNL     1       7.218   4.930  13.749  0.00  0.00    +0.000 C 
ATOM     18  F   UNL     1       6.832   3.919  12.943  0.00  0.00    +0.000 F 
ATOM     19  F   UNL     1       6.202   5.809  13.868  0.00  0.00    +0.000 F 
ATOM     20  F   UNL     1       8.254   5.560  13.150  0.00  0.00    +0.000 F 
ENDBRANCH  16  17
ENDBRANCH  13  16
ENDBRANCH   8  10
ENDBRANCH   1   8
BRANCH   4  21
ATOM     21  C   UNL     1       1.688   8.029  21.257  0.00  0.00    +0.000 C 
BRANCH  21  22
ATOM     22  C   UNL     1       0.590   9.045  21.534  0.00  0.00    +0.000 A 
ATOM     23  C   UNL     1       0.075   9.168  22.824  0.00  0.00    +0.000 A 
ATOM     24  C   UNL     1      -0.793  10.216  23.149  0.00  0.00    +0.000 A 
ATOM     25  C   UNL     1      -1.159  11.162  22.177  0.00  0.00    +0.000 A 
ATOM     26  C   UNL     1      -1.922  12.294  22.492  0.00  0.00    +0.000 A 
ATOM     27  C   UNL     1      -2.243  13.209  21.495  0.00  0.00    +0.000 A 
ATOM     28  C   UNL     1      -1.821  12.942  20.206  0.00  0.00    +0.000 A 
ATOM     29  N   UNL     1      -1.072  11.869  19.864  0.00  0.00    +0.000 NA
ATOM     30  C   UNL     1      -0.725  11.008  20.847  0.00  0.00    +0.000 A 
ATOM     31  C   UNL     1       0.140   9.948  20.558  0.00  0.00    +0.000 A 
BRANCH  31  32
ATOM     32  O   UNL     1       0.597   9.840  19.262  0.00  0.00    +0.000 OA
ATOM     33  H   UNL     1       0.067  10.504  18.770  0.00  0.00    +0.000 HD
ENDBRANCH  31  32
ENDBRANCH  21  22
ENDBRANCH   4  21
TORSDOF 7
ENDMDL
MODEL 8
REMARK VINA RESULT:      -7.1      4.642      7.682
REMARK  Name = 
REMARK  7 active torsions:
REMARK  status: ('A' for Active; 'I' for Inactive)
REMARK    1  A    between atoms: S_2  and  C_4
REMARK    2  A    between atoms: S_2  and  N_15
REMARK    3  A    between atoms: C_7  and  O_8
REMARK    4  A    between atoms: O_8  and  C_9
REMARK    5  A    between atoms: N_18  and  C_19
REMARK    6  A    between atoms: C_19  and  C_20
REMARK    7  A    between atoms: C_29  and  O_30
REMARK                            x       y       z     vdW  Elec       q    Type
REMARK                         _______ _______ _______ _____ _____    ______ ____
ROOT
ATOM      1  N   UNL     1       2.180   3.553  18.886  0.00  0.00    +0.000 NA
ATOM      2  C   UNL     1       2.713   3.957  20.228  0.00  0.00    +0.000 C 
ATOM      3  C   UNL     1       3.462   5.314  20.226  0.00  0.00    +0.000 C 
ATOM      4  N   UNL     1       2.854   6.414  19.443  0.00  0.00    +0.000 NA
ATOM      5  C   UNL     1       2.529   5.882  18.101  0.00  0.00    +0.000 C 
ATOM      6  C   UNL     1       1.573   4.684  18.140  0.00  0.00    +0.000 C 
ENDROOT
BRANCH   1   8
ATOM      7  O   UNL     1       2.366   2.178  16.753  0.00  0.00    +0.000 OA
ATOM      8  S   UNL     1       3.112   2.480  17.954  0.00  0.00    +0.000 S 
ATOM      9  O   UNL     1       3.633   1.439  18.811  0.00  0.00    +0.000 OA
BRANCH   8  10
ATOM     10  C   UNL     1       4.486   3.518  17.522  0.00  0.00    +0.000 A 
ATOM     11  C   UNL     1       5.473   3.749  18.482  0.00  0.00    +0.000 A 
ATOM     12  C   UNL     1       6.499   4.645  18.199  0.00  0.00    +0.000 A 
ATOM     13  C   UNL     1       6.556   5.301  16.962  0.00  0.00    +0.000 A 
ATOM     14  C   UNL     1       5.566   5.053  16.006  0.00  0.00    +0.000 A 
ATOM     15  C   UNL     1       4.536   4.144  16.277  0.00  0.00    +0.000 A 
BRANCH  13  16
ATOM     16  O   UNL     1       7.586   6.180  16.856  0.00  0.00    +0.000 OA
BRANCH  16  17
ATOM     17  C   UNL     1       7.573   7.399  17.578  0.00  0.00    +0.000 C 
ATOM     18  F   UNL     1       8.296   8.385  17.009  0.00  0.00    +0.000 F 
ATOM     19  F   UNL     1       6.300   7.819  17.731  0.00  0.00    +0.000 F 
ATOM     20  F   UNL     1       8.091   7.167  18.806  0.00  0.00    +0.000 F 
ENDBRANCH  16  17
ENDBRANCH  13  16
ENDBRANCH   8  10
ENDBRANCH   1   8
BRANCH   4  21
ATOM     21  C   UNL     1       1.681   7.003  20.133  0.00  0.00    +0.000 C 
BRANCH  21  22
ATOM     22  C   UNL     1       1.546   8.498  19.884  0.00  0.00    +0.000 A 
ATOM     23  C   UNL     1       1.703   8.998  18.591  0.00  0.00    +0.000 A 
ATOM     24  C   UNL     1       1.398  10.332  18.300  0.00  0.00    +0.000 A 
ATOM     25  C   UNL     1       0.929  11.190  19.308  0.00  0.00    +0.000 A 
ATOM     26  C   UNL     1       0.494  12.492  19.033  0.00  0.00    +0.000 A 
ATOM     27  C   UNL     1       0.022  13.295  20.067  0.00  0.00    +0.000 A 
ATOM     28  C   UNL     1       0.035  12.780  21.349  0.00  0.00    +0.000 A 
ATOM     29  N   UNL     1       0.434  11.524  21.654  0.00  0.00    +0.000 NA
ATOM     30  C   UNL     1       0.848  10.734  20.638  0.00  0.00    +0.000 A 
ATOM     31  C   UNL     1       1.162   9.395  20.892  0.00  0.00    +0.000 A 
BRANCH  31  32
ATOM     32  O   UNL     1       1.029   8.951  22.191  0.00  0.00    +0.000 OA
ATOM     33  H   UNL     1       1.902   9.145  22.596  0.00  0.00    +0.000 HD
ENDBRANCH  31  32
ENDBRANCH  21  22
ENDBRANCH   4  21
TORSDOF 7
ENDMDL
MODEL 9
REMARK VINA RESULT:      -7.1      3.904      6.424
REMARK  Name = 
REMARK  7 active torsions:
REMARK  status: ('A' for Active; 'I' for Inactive)
REMARK    1  A    between atoms: S_2  and  C_4
REMARK    2  A    between atoms: S_2  and  N_15
REMARK    3  A    between atoms: C_7  and  O_8
REMARK    4  A    between atoms: O_8  and  C_9
REMARK    5  A    between atoms: N_18  and  C_19
REMARK    6  A    between atoms: C_19  and  C_20
REMARK    7  A    between atoms: C_29  and  O_30
REMARK                            x       y       z     vdW  Elec       q    Type
REMARK                         _______ _______ _______ _____ _____    ______ ____
ROOT
ATOM      1  N   UNL     1       0.617   9.927  19.940  0.00  0.00    +0.000 NA
ATOM      2  C   UNL     1      -0.750  10.252  19.419  0.00  0.00    +0.000 C 
ATOM      3  C   UNL     1      -1.354  11.556  20.001  0.00  0.00    +0.000 C 
ATOM      4  N   UNL     1      -0.445  12.718  20.124  0.00  0.00    +0.000 NA
ATOM      5  C   UNL     1       0.791  12.252  20.793  0.00  0.00    +0.000 C 
ATOM      6  C   UNL     1       1.497  11.119  20.038  0.00  0.00    +0.000 C 
ENDROOT
BRANCH   1   8
ATOM      7  O   UNL     1      -0.610   8.436  21.597  0.00  0.00    +0.000 OA
ATOM      8  S   UNL     1       0.733   8.826  21.229  0.00  0.00    +0.000 S 
ATOM      9  O   UNL     1       1.674   9.333  22.202  0.00  0.00    +0.000 OA
BRANCH   8  10
ATOM     10  C   UNL     1       1.522   7.453  20.426  0.00  0.00    +0.000 A 
ATOM     11  C   UNL     1       1.427   6.192  21.018  0.00  0.00    +0.000 A 
ATOM     12  C   UNL     1       2.129   5.127  20.462  0.00  0.00    +0.000 A 
ATOM     13  C   UNL     1       2.911   5.306  19.314  0.00  0.00    +0.000 A 
ATOM     14  C   UNL     1       2.989   6.571  18.726  0.00  0.00    +0.000 A 
ATOM     15  C   UNL     1       2.277   7.647  19.271  0.00  0.00    +0.000 A 
BRANCH  13  16
ATOM     16  O   UNL     1       3.573   4.185  18.922  0.00  0.00    +0.000 OA
BRANCH  16  17
ATOM     17  C   UNL     1       3.013   3.319  17.951  0.00  0.00    +0.000 C 
ATOM     18  F   UNL     1       1.942   3.830  17.309  0.00  0.00    +0.000 F 
ATOM     19  F   UNL     1       3.955   2.991  17.043  0.00  0.00    +0.000 F 
ATOM     20  F   UNL     1       2.616   2.187  18.575  0.00  0.00    +0.000 F 
ENDBRANCH  16  17
ENDBRANCH  13  16
ENDBRANCH   8  10
ENDBRANCH   1   8
BRANCH   4  21
ATOM     21  C   UNL     1      -0.187  13.361  18.812  0.00  0.00    +0.000 C 
BRANCH  21  22
ATOM     22  C   UNL     1       0.907  14.417  18.884  0.00  0.00    +0.000 A 
ATOM     23  C   UNL     1       0.709  15.562  19.656  0.00  0.00    +0.000 A 
ATOM     24  C   UNL     1       1.762  16.452  19.894  0.00  0.00    +0.000 A 
ATOM     25  C   UNL     1       3.036  16.205  19.357  0.00  0.00    +0.000 A 
ATOM     26  C   UNL     1       4.144  17.002  19.674  0.00  0.00    +0.000 A 
ATOM     27  C   UNL     1       5.387  16.704  19.127  0.00  0.00    +0.000 A 
ATOM     28  C   UNL     1       5.475  15.639  18.251  0.00  0.00    +0.000 A 
ATOM     29  N   UNL     1       4.434  14.838  17.930  0.00  0.00    +0.000 NA
ATOM     30  C   UNL     1       3.237  15.106  18.501  0.00  0.00    +0.000 A 
ATOM     31  C   UNL     1       2.162  14.238  18.284  0.00  0.00    +0.000 A 
BRANCH  31  32
ATOM     32  O   UNL     1       2.390  13.138  17.485  0.00  0.00    +0.000 OA
ATOM     33  H   UNL     1       2.271  12.376  18.093  0.00  0.00    +0.000 HD
ENDBRANCH  31  32
ENDBRANCH  21  22
ENDBRANCH   4  21
TORSDOF 7
ENDMDL
