MODEL 1
REMARK VINA RESULT:      -8.8      0.000      0.000
REMARK  Name = 
REMARK  6 active torsions:
REMARK  status: ('A' for Active; 'I' for Inactive)
REMARK    1  A    between atoms: C_1  and  C_2
REMARK    2  A    between atoms: C_2  and  C_3
REMARK    3  A    between atoms: C_2  and  N_19
REMARK    4  A    between atoms: C_6  and  C_7
REMARK    5  A    between atoms: N_10  and  C_11
REMARK    6  A    between atoms: C_25  and  O_26
REMARK                            x       y       z     vdW  Elec       q    Type
REMARK                         _______ _______ _______ _____ _____    ______ ____
ROOT
ATOM      1  C   UNL     1       7.407   6.734  17.733  0.00  0.00    +0.000 A 
ATOM      2  C   UNL     1       8.309   6.942  18.791  0.00  0.00    +0.000 A 
ATOM      3  C   UNL     1       8.831   8.212  19.062  0.00  0.00    +0.000 A 
ATOM      4  C   UNL     1       8.433   9.309  18.299  0.00  0.00    +0.000 A 
ATOM      5  C   UNL     1       7.489   9.127  17.282  0.00  0.00    +0.000 A 
ATOM      6  C   UNL     1       6.992   7.853  16.995  0.00  0.00    +0.000 A 
ENDROOT
BRANCH   4   7
ATOM      7  C   UNL     1       8.991  10.651  18.515  0.00  0.00    +0.000 A 
ATOM      8  C   UNL     1       8.587  11.805  17.739  0.00  0.00    +0.000 A 
ATOM      9  C   UNL     1       9.290  12.942  17.805  0.00  0.00    +0.000 A 
ATOM     10  N   UNL     1      10.371  13.070  18.658  0.00  0.00    +0.000 N 
ATOM     11  C   UNL     1      10.773  12.032  19.506  0.00  0.00    +0.000 A 
ATOM     12  O   UNL     1      11.717  12.086  20.288  0.00  0.00    +0.000 OA
ATOM     13  C   UNL     1      10.010  10.761  19.383  0.00  0.00    +0.000 A 
BRANCH  10  14
ATOM     14  C   UNL     1      11.204  14.249  18.570  0.00  0.00    +0.000 C 
ATOM     15  C   UNL     1      12.219  14.523  17.489  0.00  0.00    +0.000 C 
ATOM     16  C   UNL     1      10.939  15.299  17.521  0.00  0.00    +0.000 C 
ENDBRANCH  10  14
ENDBRANCH   4   7
BRANCH   1  18
ATOM     17  C   UNL     1       6.908   5.069  15.873  0.00  0.00    +0.000 C 
ATOM     18  C   UNL     1       6.835   5.366  17.377  0.00  0.00    +0.000 C 
BRANCH  18  19
ATOM     19  N   UNL     1       5.475   5.115  17.897  0.00  0.00    +0.000 N 
ATOM     20  C   UNL     1       4.324   5.354  17.056  0.00  0.00    +0.000 C 
ATOM     21  C   UNL     1       3.331   4.238  17.204  0.00  0.00    +0.000 C 
ATOM     22  C   UNL     1       2.956   4.106  18.666  0.00  0.00    +0.000 C 
ATOM     23  C   UNL     1       2.081   5.246  19.205  0.00  0.00    +0.000 C 
ATOM     24  C   UNL     1       1.018   4.609  20.101  0.00  0.00    +0.000 C 
ATOM     25  C   UNL     1       1.234   3.103  20.054  0.00  0.00    +0.000 C 
ATOM     26  C   UNL     1       2.112   2.841  18.844  0.00  0.00    +0.000 C 
ATOM     27  O   UNL     1       4.129   4.030  19.501  0.00  0.00    +0.000 OA
ATOM     28  C   UNL     1       5.330   4.606  19.184  0.00  0.00    +0.000 C 
ATOM     29  O   UNL     1       6.242   4.588  20.004  0.00  0.00    +0.000 OA
BRANCH  25  30
ATOM     30  O   UNL     1      -0.007   2.418  19.928  0.00  0.00    +0.000 OA
ATOM     31  H   UNL     1      -0.720   3.028  20.193  0.00  0.00    +0.000 HD
ENDBRANCH  25  30
ENDBRANCH  18  19
ENDBRANCH   1  18
TORSDOF 5
ENDMDL
MODEL 2
REMARK VINA RESULT:      -8.7      1.189      1.597
REMARK  Name = 
REMARK  6 active torsions:
REMARK  status: ('A' for Active; 'I' for Inactive)
REMARK    1  A    between atoms: C_1  and  C_2
REMARK    2  A    between atoms: C_2  and  C_3
REMARK    3  A    between atoms: C_2  and  N_19
REMARK    4  A    between atoms: C_6  and  C_7
REMARK    5  A    between atoms: N_10  and  C_11
REMARK    6  A    between atoms: C_25  and  O_26
REMARK                            x       y       z     vdW  Elec       q    Type
REMARK                         _______ _______ _______ _____ _____    ______ ____
ROOT
ATOM      1  C   UNL     1       7.309   6.648  17.696  0.00  0.00    +0.000 A 
ATOM      2  C   UNL     1       8.142   6.665  18.828  0.00  0.00    +0.000 A 
ATOM      3  C   UNL     1       8.770   7.843  19.251  0.00  0.00    +0.000 A 
ATOM      4  C   UNL     1       8.549   9.037  18.566  0.00  0.00    +0.000 A 
ATOM      5  C   UNL     1       7.676   9.047  17.473  0.00  0.00    +0.000 A 
ATOM      6  C   UNL     1       7.074   7.864  17.036  0.00  0.00    +0.000 A 
ENDROOT
BRANCH   4   7
ATOM      7  C   UNL     1       9.225  10.287  18.943  0.00  0.00    +0.000 A 
ATOM      8  C   UNL     1       9.478  10.660  20.319  0.00  0.00    +0.000 A 
ATOM      9  C   UNL     1       9.871  11.904  20.619  0.00  0.00    +0.000 A 
ATOM     10  N   UNL     1      10.110  12.840  19.631  0.00  0.00    +0.000 N 
ATOM     11  C   UNL     1       9.974  12.534  18.272  0.00  0.00    +0.000 A 
ATOM     12  O   UNL     1      10.177  13.318  17.349  0.00  0.00    +0.000 OA
ATOM     13  C   UNL     1       9.490  11.163  17.960  0.00  0.00    +0.000 A 
BRANCH  10  14
ATOM     14  C   UNL     1      10.362  14.214  20.005  0.00  0.00    +0.000 C 
ATOM     15  C   UNL     1       9.307  15.225  20.380  0.00  0.00    +0.000 C 
ATOM     16  C   UNL     1      10.205  14.660  21.437  0.00  0.00    +0.000 C 
ENDBRANCH  10  14
ENDBRANCH   4   7
BRANCH   1  18
ATOM     17  C   UNL     1       6.533   5.355  15.645  0.00  0.00    +0.000 C 
ATOM     18  C   UNL     1       6.628   5.387  17.176  0.00  0.00    +0.000 C 
BRANCH  18  19
ATOM     19  N   UNL     1       5.316   5.099  17.790  0.00  0.00    +0.000 N 
ATOM     20  C   UNL     1       4.113   5.667  17.224  0.00  0.00    +0.000 C 
ATOM     21  C   UNL     1       3.021   4.639  17.189  0.00  0.00    +0.000 C 
ATOM     22  C   UNL     1       2.799   4.109  18.591  0.00  0.00    +0.000 C 
ATOM     23  C   UNL     1       2.130   5.102  19.550  0.00  0.00    +0.000 C 
ATOM     24  C   UNL     1       1.108   4.313  20.369  0.00  0.00    +0.000 C 
ATOM     25  C   UNL     1       1.141   2.877  19.867  0.00  0.00    +0.000 C 
ATOM     26  C   UNL     1       1.839   2.918  18.520  0.00  0.00    +0.000 C 
ATOM     27  O   UNL     1       4.043   3.696  19.195  0.00  0.00    +0.000 OA
ATOM     28  C   UNL     1       5.259   4.245  18.887  0.00  0.00    +0.000 C 
ATOM     29  O   UNL     1       6.250   3.912  19.530  0.00  0.00    +0.000 OA
BRANCH  25  30
ATOM     30  O   UNL     1      -0.178   2.360  19.728  0.00  0.00    +0.000 OA
ATOM     31  H   UNL     1      -0.464   2.496  18.806  0.00  0.00    +0.000 HD
ENDBRANCH  25  30
ENDBRANCH  18  19
ENDBRANCH   1  18
TORSDOF 5
ENDMDL
MODEL 3
REMARK VINA RESULT:      -8.4      1.205      1.799
REMARK  Name = 
REMARK  6 active torsions:
REMARK  status: ('A' for Active; 'I' for Inactive)
REMARK    1  A    between atoms: C_1  and  C_2
REMARK    2  A    between atoms: C_2  and  C_3
REMARK    3  A    between atoms: C_2  and  N_19
REMARK    4  A    between atoms: C_6  and  C_7
REMARK    5  A    between atoms: N_10  and  C_11
REMARK    6  A    between atoms: C_25  and  O_26
REMARK                            x       y       z     vdW  Elec       q    Type
REMARK                         _______ _______ _______ _____ _____    ______ ____
ROOT
ATOM      1  C   UNL     1       7.408   6.703  17.716  0.00  0.00    +0.000 A 
ATOM      2  C   UNL     1       7.149   7.876  16.986  0.00  0.00    +0.000 A 
ATOM      3  C   UNL     1       7.687   9.108  17.374  0.00  0.00    +0.000 A 
ATOM      4  C   UNL     1       8.526   9.185  18.485  0.00  0.00    +0.000 A 
ATOM      5  C   UNL     1       8.841   8.016  19.186  0.00  0.00    +0.000 A 
ATOM      6  C   UNL     1       8.279   6.792  18.813  0.00  0.00    +0.000 A 
ENDROOT
BRANCH   4   7
ATOM      7  C   UNL     1       9.075  10.464  18.959  0.00  0.00    +0.000 A 
ATOM      8  C   UNL     1       9.284  10.758  20.361  0.00  0.00    +0.000 A 
ATOM      9  C   UNL     1       9.552  12.009  20.755  0.00  0.00    +0.000 A 
ATOM     10  N   UNL     1       9.703  13.034  19.840  0.00  0.00    +0.000 N 
ATOM     11  C   UNL     1       9.603  12.816  18.461  0.00  0.00    +0.000 A 
ATOM     12  O   UNL     1       9.733  13.681  17.600  0.00  0.00    +0.000 OA
ATOM     13  C   UNL     1       9.257  11.431  18.045  0.00  0.00    +0.000 A 
BRANCH  10  14
ATOM     14  C   UNL     1       9.818  14.394  20.315  0.00  0.00    +0.000 C 
ATOM     15  C   UNL     1      10.404  14.810  21.641  0.00  0.00    +0.000 C 
ATOM     16  C   UNL     1      11.162  15.074  20.377  0.00  0.00    +0.000 C 
ENDBRANCH  10  14
ENDBRANCH   4   7
BRANCH   1  18
ATOM     17  C   UNL     1       6.871   5.061  15.846  0.00  0.00    +0.000 C 
ATOM     18  C   UNL     1       6.821   5.343  17.353  0.00  0.00    +0.000 C 
BRANCH  18  19
ATOM     19  N   UNL     1       5.466   5.097  17.889  0.00  0.00    +0.000 N 
ATOM     20  C   UNL     1       4.304   5.436  17.099  0.00  0.00    +0.000 C 
ATOM     21  C   UNL     1       3.278   4.344  17.189  0.00  0.00    +0.000 C 
ATOM     22  C   UNL     1       2.933   4.114  18.647  0.00  0.00    +0.000 C 
ATOM     23  C   UNL     1       2.111   5.238  19.292  0.00  0.00    +0.000 C 
ATOM     24  C   UNL     1       1.049   4.569  20.166  0.00  0.00    +0.000 C 
ATOM     25  C   UNL     1       1.213   3.065  20.002  0.00  0.00    +0.000 C 
ATOM     26  C   UNL     1       2.052   2.867  18.752  0.00  0.00    +0.000 C 
ATOM     27  O   UNL     1       4.123   3.938  19.443  0.00  0.00    +0.000 OA
ATOM     28  C   UNL     1       5.335   4.498  19.138  0.00  0.00    +0.000 C 
ATOM     29  O   UNL     1       6.265   4.389  19.930  0.00  0.00    +0.000 OA
BRANCH  25  30
ATOM     30  O   UNL     1      -0.053   2.431  19.858  0.00  0.00    +0.000 OA
ATOM     31  H   UNL     1      -0.050   1.619  20.397  0.00  0.00    +0.000 HD
ENDBRANCH  25  30
ENDBRANCH  18  19
ENDBRANCH   1  18
TORSDOF 5
ENDMDL
MODEL 4
REMARK VINA RESULT:      -8.2      7.223     10.905
REMARK  Name = 
REMARK  6 active torsions:
REMARK  status: ('A' for Active; 'I' for Inactive)
REMARK    1  A    between atoms: C_1  and  C_2
REMARK    2  A    between atoms: C_2  and  C_3
REMARK    3  A    between atoms: C_2  and  N_19
REMARK    4  A    between atoms: C_6  and  C_7
REMARK    5  A    between atoms: N_10  and  C_11
REMARK    6  A    between atoms: C_25  and  O_26
REMARK                            x       y       z     vdW  Elec       q    Type
REMARK                         _______ _______ _______ _____ _____    ______ ____
ROOT
ATOM      1  C   UNL     1       0.796  10.747  19.483  0.00  0.00    +0.000 A 
ATOM      2  C   UNL     1       1.354  10.182  18.323  0.00  0.00    +0.000 A 
ATOM      3  C   UNL     1       1.871   8.881  18.324  0.00  0.00    +0.000 A 
ATOM      4  C   UNL     1       1.810   8.106  19.481  0.00  0.00    +0.000 A 
ATOM      5  C   UNL     1       1.203   8.633  20.626  0.00  0.00    +0.000 A 
ATOM      6  C   UNL     1       0.714   9.942  20.630  0.00  0.00    +0.000 A 
ENDROOT
BRANCH   4   7
ATOM      7  C   UNL     1       2.384   6.754  19.543  0.00  0.00    +0.000 A 
ATOM      8  C   UNL     1       3.220   6.206  18.496  0.00  0.00    +0.000 A 
ATOM      9  C   UNL     1       3.516   4.901  18.482  0.00  0.00    +0.000 A 
ATOM     10  N   UNL     1       3.092   4.058  19.492  0.00  0.00    +0.000 N 
ATOM     11  C   UNL     1       2.355   4.524  20.586  0.00  0.00    +0.000 A 
ATOM     12  O   UNL     1       1.956   3.829  21.516  0.00  0.00    +0.000 OA
ATOM     13  C   UNL     1       1.995   5.967  20.560  0.00  0.00    +0.000 A 
BRANCH  10  14
ATOM     14  C   UNL     1       3.283   2.632  19.349  0.00  0.00    +0.000 C 
ATOM     15  C   UNL     1       2.284   1.672  18.751  0.00  0.00    +0.000 C 
ATOM     16  C   UNL     1       3.527   2.023  17.991  0.00  0.00    +0.000 C 
ENDBRANCH  10  14
ENDBRANCH   4   7
BRANCH   1  18
ATOM     17  C   UNL     1       1.357  13.227  19.595  0.00  0.00    +0.000 C 
ATOM     18  C   UNL     1       0.248  12.169  19.543  0.00  0.00    +0.000 C 
BRANCH  18  19
ATOM     19  N   UNL     1      -0.749  12.398  20.609  0.00  0.00    +0.000 N 
ATOM     20  C   UNL     1      -0.313  12.763  21.938  0.00  0.00    +0.000 C 
ATOM     21  C   UNL     1      -1.185  13.853  22.490  0.00  0.00    +0.000 C 
ATOM     22  C   UNL     1      -2.628  13.387  22.466  0.00  0.00    +0.000 C 
ATOM     23  C   UNL     1      -2.963  12.300  23.496  0.00  0.00    +0.000 C 
ATOM     24  C   UNL     1      -4.330  12.650  24.086  0.00  0.00    +0.000 C 
ATOM     25  C   UNL     1      -4.775  13.957  23.445  0.00  0.00    +0.000 C 
ATOM     26  C   UNL     1      -3.531  14.569  22.828  0.00  0.00    +0.000 C 
ATOM     27  O   UNL     1      -2.990  12.878  21.166  0.00  0.00    +0.000 OA
ATOM     28  C   UNL     1      -2.101  12.301  20.298  0.00  0.00    +0.000 C 
ATOM     29  O   UNL     1      -2.516  11.793  19.261  0.00  0.00    +0.000 OA
BRANCH  25  30
ATOM     30  O   UNL     1      -5.333  14.833  24.418  0.00  0.00    +0.000 OA
ATOM     31  H   UNL     1      -6.301  14.842  24.301  0.00  0.00    +0.000 HD
ENDBRANCH  25  30
ENDBRANCH  18  19
ENDBRANCH   1  18
TORSDOF 5
ENDMDL
MODEL 5
REMARK VINA RESULT:      -8.1      6.541     10.123
REMARK  Name = 
REMARK  6 active torsions:
REMARK  status: ('A' for Active; 'I' for Inactive)
REMARK    1  A    between atoms: C_1  and  C_2
REMARK    2  A    between atoms: C_2  and  C_3
REMARK    3  A    between atoms: C_2  and  N_19
REMARK    4  A    between atoms: C_6  and  C_7
REMARK    5  A    between atoms: N_10  and  C_11
REMARK    6  A    between atoms: C_25  and  O_26
REMARK                            x       y       z     vdW  Elec       q    Type
REMARK                         _______ _______ _______ _____ _____    ______ ____
ROOT
ATOM      1  C   UNL     1       0.474   9.626  19.485  0.00  0.00    +0.000 A 
ATOM      2  C   UNL     1       1.085   8.703  20.352  0.00  0.00    +0.000 A 
ATOM      3  C   UNL     1       2.019   7.772  19.882  0.00  0.00    +0.000 A 
ATOM      4  C   UNL     1       2.385   7.768  18.537  0.00  0.00    +0.000 A 
ATOM      5  C   UNL     1       1.830   8.720  17.675  0.00  0.00    +0.000 A 
ATOM      6  C   UNL     1       0.878   9.629  18.141  0.00  0.00    +0.000 A 
ENDROOT
BRANCH   4   7
ATOM      7  C   UNL     1       3.323   6.777  17.989  0.00  0.00    +0.000 A 
ATOM      8  C   UNL     1       4.576   7.144  17.364  0.00  0.00    +0.000 A 
ATOM      9  C   UNL     1       5.274   6.236  16.669  0.00  0.00    +0.000 A 
ATOM     10  N   UNL     1       4.859   4.921  16.586  0.00  0.00    +0.000 N 
ATOM     11  C   UNL     1       3.706   4.465  17.235  0.00  0.00    +0.000 A 
ATOM     12  O   UNL     1       3.290   3.311  17.206  0.00  0.00    +0.000 OA
ATOM     13  C   UNL     1       2.918   5.497  17.961  0.00  0.00    +0.000 A 
BRANCH  10  14
ATOM     14  C   UNL     1       5.544   4.019  15.688  0.00  0.00    +0.000 C 
ATOM     15  C   UNL     1       5.618   4.168  14.189  0.00  0.00    +0.000 C 
ATOM     16  C   UNL     1       6.834   4.431  15.023  0.00  0.00    +0.000 C 
ENDBRANCH  10  14
ENDBRANCH   4   7
BRANCH   1  18
ATOM     17  C   UNL     1      -1.662  10.876  18.889  0.00  0.00    +0.000 C 
ATOM     18  C   UNL     1      -0.570  10.639  19.941  0.00  0.00    +0.000 C 
BRANCH  18  19
ATOM     19  N   UNL     1      -0.015  11.921  20.420  0.00  0.00    +0.000 N 
ATOM     20  C   UNL     1       0.432  12.914  19.470  0.00  0.00    +0.000 C 
ATOM     21  C   UNL     1      -0.018  14.281  19.897  0.00  0.00    +0.000 C 
ATOM     22  C   UNL     1       0.498  14.552  21.297  0.00  0.00    +0.000 C 
ATOM     23  C   UNL     1       2.012  14.786  21.383  0.00  0.00    +0.000 C 
ATOM     24  C   UNL     1       2.230  15.942  22.360  0.00  0.00    +0.000 C 
ATOM     25  C   UNL     1       0.856  16.416  22.811  0.00  0.00    +0.000 C 
ATOM     26  C   UNL     1      -0.134  15.849  21.809  0.00  0.00    +0.000 C 
ATOM     27  O   UNL     1       0.176  13.467  22.191  0.00  0.00    +0.000 OA
ATOM     28  C   UNL     1       0.027  12.167  21.789  0.00  0.00    +0.000 C 
ATOM     29  O   UNL     1      -0.135  11.291  22.633  0.00  0.00    +0.000 OA
BRANCH  25  30
ATOM     30  O   UNL     1       0.792  17.838  22.825  0.00  0.00    +0.000 OA
ATOM     31  H   UNL     1       0.100  18.105  23.458  0.00  0.00    +0.000 HD
ENDBRANCH  25  30
ENDBRANCH  18  19
ENDBRANCH   1  18
TORSDOF 5
ENDMDL
MODEL 6
REMARK VINA RESULT:      -8.1      6.336     10.153
REMARK  Name = 
REMARK  6 active torsions:
REMARK  status: ('A' for Active; 'I' for Inactive)
REMARK    1  A    between atoms: C_1  and  C_2
REMARK    2  A    between atoms: C_2  and  C_3
REMARK    3  A    between atoms: C_2  and  N_19
REMARK    4  A    between atoms: C_6  and  C_7
REMARK    5  A    between atoms: N_10  and  C_11
REMARK    6  A    between atoms: C_25  and  O_26
REMARK                            x       y       z     vdW  Elec       q    Type
REMARK                         _______ _______ _______ _____ _____    ______ ____
ROOT
ATOM      1  C   UNL     1       0.707   9.761  19.279  0.00  0.00    +0.000 A 
ATOM      2  C   UNL     1       1.130   8.745  20.155  0.00  0.00    +0.000 A 
ATOM      3  C   UNL     1       2.034   7.759  19.742  0.00  0.00    +0.000 A 
ATOM      4  C   UNL     1       2.560   7.789  18.452  0.00  0.00    +0.000 A 
ATOM      5  C   UNL     1       2.195   8.828  17.589  0.00  0.00    +0.000 A 
ATOM      6  C   UNL     1       1.270   9.795  17.993  0.00  0.00    +0.000 A 
ENDROOT
BRANCH   4   7
ATOM      7  C   UNL     1       3.473   6.748  17.959  0.00  0.00    +0.000 A 
ATOM      8  C   UNL     1       4.795   7.040  17.445  0.00  0.00    +0.000 A 
ATOM      9  C   UNL     1       5.487   6.100  16.790  0.00  0.00    +0.000 A 
ATOM     10  N   UNL     1       4.994   4.817  16.644  0.00  0.00    +0.000 N 
ATOM     11  C   UNL     1       3.764   4.428  17.187  0.00  0.00    +0.000 A 
ATOM     12  O   UNL     1       3.277   3.305  17.098  0.00  0.00    +0.000 OA
ATOM     13  C   UNL     1       2.989   5.498  17.869  0.00  0.00    +0.000 A 
BRANCH  10  14
ATOM     14  C   UNL     1       5.691   3.886  15.783  0.00  0.00    +0.000 C 
ATOM     15  C   UNL     1       5.667   3.906  14.275  0.00  0.00    +0.000 C 
ATOM     16  C   UNL     1       6.907   4.324  15.005  0.00  0.00    +0.000 C 
ENDBRANCH  10  14
ENDBRANCH   4   7
BRANCH   1  18
ATOM     17  C   UNL     1      -1.636  10.692  18.932  0.00  0.00    +0.000 C 
ATOM     18  C   UNL     1      -0.298  10.839  19.668  0.00  0.00    +0.000 C 
BRANCH  18  19
ATOM     19  N   UNL     1       0.211  12.221  19.563  0.00  0.00    +0.000 N 
ATOM     20  C   UNL     1      -0.205  13.062  18.463  0.00  0.00    +0.000 C 
ATOM     21  C   UNL     1      -0.510  14.447  18.955  0.00  0.00    +0.000 C 
ATOM     22  C   UNL     1       0.711  14.995  19.667  0.00  0.00    +0.000 C 
ATOM     23  C   UNL     1       1.884  15.348  18.741  0.00  0.00    +0.000 C 
ATOM     24  C   UNL     1       2.467  16.669  19.243  0.00  0.00    +0.000 C 
ATOM     25  C   UNL     1       1.618  17.116  20.425  0.00  0.00    +0.000 C 
ATOM     26  C   UNL     1       0.333  16.314  20.347  0.00  0.00    +0.000 C 
ATOM     27  O   UNL     1       1.203  14.063  20.652  0.00  0.00    +0.000 OA
ATOM     28  C   UNL     1       1.055  12.705  20.557  0.00  0.00    +0.000 C 
ATOM     29  O   UNL     1       1.604  11.981  21.383  0.00  0.00    +0.000 OA
BRANCH  25  30
ATOM     30  O   UNL     1       1.341  18.510  20.350  0.00  0.00    +0.000 OA
ATOM     31  H   UNL     1       0.393  18.642  20.533  0.00  0.00    +0.000 HD
ENDBRANCH  25  30
ENDBRANCH  18  19
ENDBRANCH   1  18
TORSDOF 5
ENDMDL
MODEL 7
REMARK VINA RESULT:      -7.8      7.269     10.701
REMARK  Name = 
REMARK  6 active torsions:
REMARK  status: ('A' for Active; 'I' for Inactive)
REMARK    1  A    between atoms: C_1  and  C_2
REMARK    2  A    between atoms: C_2  and  C_3
REMARK    3  A    between atoms: C_2  and  N_19
REMARK    4  A    between atoms: C_6  and  C_7
REMARK    5  A    between atoms: N_10  and  C_11
REMARK    6  A    between atoms: C_25  and  O_26
REMARK                            x       y       z     vdW  Elec       q    Type
REMARK                         _______ _______ _______ _____ _____    ______ ____
ROOT
ATOM      1  C   UNL     1       0.810  10.790  19.537  0.00  0.00    +0.000 A 
ATOM      2  C   UNL     1       0.798   9.916  20.638  0.00  0.00    +0.000 A 
ATOM      3  C   UNL     1       1.277   8.605  20.532  0.00  0.00    +0.000 A 
ATOM      4  C   UNL     1       1.811   8.152  19.326  0.00  0.00    +0.000 A 
ATOM      5  C   UNL     1       1.885   9.030  18.239  0.00  0.00    +0.000 A 
ATOM      6  C   UNL     1       1.379  10.329  18.340  0.00  0.00    +0.000 A 
ENDROOT
BRANCH   4   7
ATOM      7  C   UNL     1       2.280   6.770  19.153  0.00  0.00    +0.000 A 
ATOM      8  C   UNL     1       2.132   5.756  20.174  0.00  0.00    +0.000 A 
ATOM      9  C   UNL     1       2.784   4.591  20.069  0.00  0.00    +0.000 A 
ATOM     10  N   UNL     1       3.558   4.299  18.961  0.00  0.00    +0.000 N 
ATOM     11  C   UNL     1       3.683   5.190  17.889  0.00  0.00    +0.000 A 
ATOM     12  O   UNL     1       4.348   4.986  16.878  0.00  0.00    +0.000 OA
ATOM     13  C   UNL     1       2.991   6.497  18.046  0.00  0.00    +0.000 A 
BRANCH  10  14
ATOM     14  C   UNL     1       4.381   3.110  18.968  0.00  0.00    +0.000 C 
ATOM     15  C   UNL     1       4.414   2.078  20.067  0.00  0.00    +0.000 C 
ATOM     16  C   UNL     1       3.765   1.750  18.757  0.00  0.00    +0.000 C 
ENDBRANCH  10  14
ENDBRANCH   4   7
BRANCH   1  18
ATOM     17  C   UNL     1       1.387  13.267  19.660  0.00  0.00    +0.000 C 
ATOM     18  C   UNL     1       0.271  12.215  19.593  0.00  0.00    +0.000 C 
BRANCH  18  19
ATOM     19  N   UNL     1      -0.736  12.450  20.647  0.00  0.00    +0.000 N 
ATOM     20  C   UNL     1      -0.315  12.823  21.979  0.00  0.00    +0.000 C 
ATOM     21  C   UNL     1      -1.194  13.915  22.515  0.00  0.00    +0.000 C 
ATOM     22  C   UNL     1      -2.636  13.448  22.479  0.00  0.00    +0.000 C 
ATOM     23  C   UNL     1      -2.981  12.366  23.511  0.00  0.00    +0.000 C 
ATOM     24  C   UNL     1      -4.354  12.719  24.085  0.00  0.00    +0.000 C 
ATOM     25  C   UNL     1      -4.794  14.020  23.431  0.00  0.00    +0.000 C 
ATOM     26  C   UNL     1      -3.544  14.631  22.824  0.00  0.00    +0.000 C 
ATOM     27  O   UNL     1      -2.984  12.930  21.178  0.00  0.00    +0.000 OA
ATOM     28  C   UNL     1      -2.086  12.349  20.323  0.00  0.00    +0.000 C 
ATOM     29  O   UNL     1      -2.489  11.835  19.285  0.00  0.00    +0.000 OA
BRANCH  25  30
ATOM     30  O   UNL     1      -5.363  14.902  24.393  0.00  0.00    +0.000 OA
ATOM     31  H   UNL     1      -6.114  14.447  24.817  0.00  0.00    +0.000 HD
ENDBRANCH  25  30
ENDBRANCH  18  19
ENDBRANCH   1  18
TORSDOF 5
ENDMDL
MODEL 8
REMARK VINA RESULT:      -7.8      6.035     10.030
REMARK  Name = 
REMARK  6 active torsions:
REMARK  status: ('A' for Active; 'I' for Inactive)
REMARK    1  A    between atoms: C_1  and  C_2
REMARK    2  A    between atoms: C_2  and  C_3
REMARK    3  A    between atoms: C_2  and  N_19
REMARK    4  A    between atoms: C_6  and  C_7
REMARK    5  A    between atoms: N_10  and  C_11
REMARK    6  A    between atoms: C_25  and  O_26
REMARK                            x       y       z     vdW  Elec       q    Type
REMARK                         _______ _______ _______ _____ _____    ______ ____
ROOT
ATOM      1  C   UNL     1       0.752   9.556  19.385  0.00  0.00    +0.000 A 
ATOM      2  C   UNL     1       1.240   8.531  20.215  0.00  0.00    +0.000 A 
ATOM      3  C   UNL     1       2.166   7.592  19.745  0.00  0.00    +0.000 A 
ATOM      4  C   UNL     1       2.648   7.681  18.439  0.00  0.00    +0.000 A 
ATOM      5  C   UNL     1       2.217   8.730  17.621  0.00  0.00    +0.000 A 
ATOM      6  C   UNL     1       1.272   9.648  18.084  0.00  0.00    +0.000 A 
ENDROOT
BRANCH   4   7
ATOM      7  C   UNL     1       3.583   6.690  17.886  0.00  0.00    +0.000 A 
ATOM      8  C   UNL     1       4.840   7.054  17.268  0.00  0.00    +0.000 A 
ATOM      9  C   UNL     1       5.535   6.148  16.569  0.00  0.00    +0.000 A 
ATOM     10  N   UNL     1       5.113   4.835  16.474  0.00  0.00    +0.000 N 
ATOM     11  C   UNL     1       3.955   4.381  17.115  0.00  0.00    +0.000 A 
ATOM     12  O   UNL     1       3.532   3.230  17.075  0.00  0.00    +0.000 OA
ATOM     13  C   UNL     1       3.170   5.412  17.847  0.00  0.00    +0.000 A 
BRANCH  10  14
ATOM     14  C   UNL     1       5.796   3.937  15.570  0.00  0.00    +0.000 C 
ATOM     15  C   UNL     1       5.670   3.948  14.067  0.00  0.00    +0.000 C 
ATOM     16  C   UNL     1       6.933   4.431  14.712  0.00  0.00    +0.000 C 
ENDBRANCH  10  14
ENDBRANCH   4   7
BRANCH   1  18
ATOM     17  C   UNL     1      -1.632  10.412  19.136  0.00  0.00    +0.000 C 
ATOM     18  C   UNL     1      -0.279  10.582  19.839  0.00  0.00    +0.000 C 
BRANCH  18  19
ATOM     19  N   UNL     1       0.178  11.985  19.766  0.00  0.00    +0.000 N 
ATOM     20  C   UNL     1       1.085  12.503  20.766  0.00  0.00    +0.000 C 
ATOM     21  C   UNL     1       2.149  13.339  20.119  0.00  0.00    +0.000 C 
ATOM     22  C   UNL     1       1.488  14.443  19.318  0.00  0.00    +0.000 C 
ATOM     23  C   UNL     1       0.835  15.542  20.167  0.00  0.00    +0.000 C 
ATOM     24  C   UNL     1       1.163  16.878  19.498  0.00  0.00    +0.000 C 
ATOM     25  C   UNL     1       2.039  16.573  18.291  0.00  0.00    +0.000 C 
ATOM     26  C   UNL     1       2.559  15.162  18.494  0.00  0.00    +0.000 C 
ATOM     27  O   UNL     1       0.472  13.915  18.441  0.00  0.00    +0.000 OA
ATOM     28  C   UNL     1      -0.243  12.776  18.702  0.00  0.00    +0.000 C 
ATOM     29  O   UNL     1      -1.166  12.462  17.956  0.00  0.00    +0.000 OA
BRANCH  25  30
ATOM     30  O   UNL     1       3.119  17.495  18.205  0.00  0.00    +0.000 OA
ATOM     31  H   UNL     1       3.773  17.263  18.890  0.00  0.00    +0.000 HD
ENDBRANCH  25  30
ENDBRANCH  18  19
ENDBRANCH   1  18
TORSDOF 5
ENDMDL
MODEL 9
REMARK VINA RESULT:      -7.8      7.738     11.022
REMARK  Name = 
REMARK  6 active torsions:
REMARK  status: ('A' for Active; 'I' for Inactive)
REMARK    1  A    between atoms: C_1  and  C_2
REMARK    2  A    between atoms: C_2  and  C_3
REMARK    3  A    between atoms: C_2  and  N_19
REMARK    4  A    between atoms: C_6  and  C_7
REMARK    5  A    between atoms: N_10  and  C_11
REMARK    6  A    between atoms: C_25  and  O_26
REMARK                            x       y       z     vdW  Elec       q    Type
REMARK                         _______ _______ _______ _____ _____    ______ ____
ROOT
ATOM      1  C   UNL     1       0.197  10.514  18.615  0.00  0.00    +0.000 A 
ATOM      2  C   UNL     1      -0.687   9.771  17.813  0.00  0.00    +0.000 A 
ATOM      3  C   UNL     1      -2.037  10.125  17.697  0.00  0.00    +0.000 A 
ATOM      4  C   UNL     1      -2.521  11.253  18.358  0.00  0.00    +0.000 A 
ATOM      5  C   UNL     1      -1.640  12.037  19.111  0.00  0.00    +0.000 A 
ATOM      6  C   UNL     1      -0.300  11.664  19.247  0.00  0.00    +0.000 A 
ENDROOT
BRANCH   4   7
ATOM      7  C   UNL     1      -3.940  11.636  18.306  0.00  0.00    +0.000 A 
ATOM      8  C   UNL     1      -4.704  11.658  17.076  0.00  0.00    +0.000 A 
ATOM      9  C   UNL     1      -5.909  12.241  17.041  0.00  0.00    +0.000 A 
ATOM     10  N   UNL     1      -6.483  12.772  18.181  0.00  0.00    +0.000 N 
ATOM     11  C   UNL     1      -5.849  12.713  19.427  0.00  0.00    +0.000 A 
ATOM     12  O   UNL     1      -6.309  13.160  20.474  0.00  0.00    +0.000 OA
ATOM     13  C   UNL     1      -4.491  12.106  19.437  0.00  0.00    +0.000 A 
BRANCH  10  14
ATOM     14  C   UNL     1      -7.701  13.542  18.064  0.00  0.00    +0.000 C 
ATOM     15  C   UNL     1      -7.816  15.032  18.274  0.00  0.00    +0.000 C 
ATOM     16  C   UNL     1      -7.916  14.465  16.891  0.00  0.00    +0.000 C 
ENDBRANCH  10  14
ENDBRANCH   4   7
BRANCH   1  18
ATOM     17  C   UNL     1       2.594  10.964  17.886  0.00  0.00    +0.000 C 
ATOM     18  C   UNL     1       1.667  10.152  18.799  0.00  0.00    +0.000 C 
BRANCH  18  19
ATOM     19  N   UNL     1       1.961   8.708  18.696  0.00  0.00    +0.000 N 
ATOM     20  C   UNL     1       2.425   8.153  17.445  0.00  0.00    +0.000 C 
ATOM     21  C   UNL     1       3.542   7.180  17.690  0.00  0.00    +0.000 C 
ATOM     22  C   UNL     1       3.059   6.110  18.649  0.00  0.00    +0.000 C 
ATOM     23  C   UNL     1       2.045   5.127  18.048  0.00  0.00    +0.000 C 
ATOM     24  C   UNL     1       2.421   3.733  18.552  0.00  0.00    +0.000 C 
ATOM     25  C   UNL     1       3.672   3.886  19.405  0.00  0.00    +0.000 C 
ATOM     26  C   UNL     1       4.253   5.245  19.061  0.00  0.00    +0.000 C 
ATOM     27  O   UNL     1       2.453   6.694  19.821  0.00  0.00    +0.000 OA
ATOM     28  C   UNL     1       1.826   7.911  19.828  0.00  0.00    +0.000 C 
ATOM     29  O   UNL     1       1.239   8.279  20.841  0.00  0.00    +0.000 OA
BRANCH  25  30
ATOM     30  O   UNL     1       4.610   2.855  19.115  0.00  0.00    +0.000 OA
ATOM     31  H   UNL     1       4.869   2.433  19.956  0.00  0.00    +0.000 HD
ENDBRANCH  25  30
ENDBRANCH  18  19
ENDBRANCH   1  18
TORSDOF 5
ENDMDL
