MODEL 1
REMARK VINA RESULT:      -8.3      0.000      0.000
REMARK  Name = 
REMARK  4 active torsions:
REMARK  status: ('A' for Active; 'I' for Inactive)
REMARK    1  A    between atoms: O_1  and  C_2
REMARK    2  A    between atoms: C_2  and  C_3
REMARK    3  A    between atoms: C_4  and  C_5
REMARK    4  A    between atoms: C_15  and  N_16
REMARK                            x       y       z     vdW  Elec       q    Type
REMARK                         _______ _______ _______ _____ _____    ______ ____
ROOT
ATOM      1  C   UNL     1       5.847   5.112  17.477  0.00  0.00    +0.000 C 
ATOM      2  C   UNL     1       6.764   5.894  16.519  0.00  0.00    +0.000 C 
ATOM      3  C   UNL     1       6.151   6.088  15.143  0.00  0.00    +0.000 C 
ATOM      4  C   UNL     1       5.819   4.741  14.523  0.00  0.00    +0.000 C 
ATOM      5  C   UNL     1       4.903   3.899  15.414  0.00  0.00    +0.000 C 
ATOM      6  C   UNL     1       5.427   3.705  16.868  0.00  0.00    +0.000 C 
ENDROOT
BRANCH   6   7
ATOM      7  N   UNL     1       4.420   2.871  17.615  0.00  0.00    +0.000 NA
ATOM      8  C   UNL     1       3.039   2.897  17.107  0.00  0.00    +0.000 C 
ATOM      9  C   UNL     1       2.114   3.895  17.805  0.00  0.00    +0.000 C 
ATOM     10  C   UNL     1       2.009   3.474  19.242  0.00  0.00    +0.000 A 
ATOM     11  C   UNL     1       0.801   3.521  19.943  0.00  0.00    +0.000 A 
ATOM     12  C   UNL     1       0.749   3.076  21.262  0.00  0.00    +0.000 A 
ATOM     13  C   UNL     1       1.903   2.595  21.879  0.00  0.00    +0.000 A 
ATOM     14  C   UNL     1       3.116   2.562  21.184  0.00  0.00    +0.000 A 
ATOM     15  C   UNL     1       3.180   2.996  19.854  0.00  0.00    +0.000 A 
ATOM     16  C   UNL     1       4.495   3.068  19.091  0.00  0.00    +0.000 C 
ENDBRANCH   6   7
BRANCH   1  17
ATOM     17  O   UNL     1       6.652   4.897  18.652  0.00  0.00    +0.000 OA
ATOM     18  H   UNL     1       6.064   5.016  19.416  0.00  0.00    +0.000 HD
ENDBRANCH   1  17
BRANCH   1  19
ATOM     19  C   UNL     1       4.674   5.938  17.837  0.00  0.00    +0.000 C 
ATOM     20  C   UNL     1       3.758   6.653  18.154  0.00  0.00    +0.000 C 
BRANCH  20  21
ATOM     21  C   UNL     1       2.743   7.563  18.575  0.00  0.00    +0.000 A 
ATOM     22  C   UNL     1       2.325   8.599  17.736  0.00  0.00    +0.000 A 
ATOM     23  C   UNL     1       1.385   9.527  18.189  0.00  0.00    +0.000 A 
ATOM     24  C   UNL     1       0.861   9.418  19.477  0.00  0.00    +0.000 A 
ATOM     25  C   UNL     1       1.264   8.375  20.309  0.00  0.00    +0.000 A 
ATOM     26  C   UNL     1       2.202   7.446  19.858  0.00  0.00    +0.000 A 
ENDBRANCH  20  21
ENDBRANCH   1  19
TORSDOF 4
ENDMDL
MODEL 2
REMARK VINA RESULT:      -8.1      7.464      9.852
REMARK  Name = 
REMARK  4 active torsions:
REMARK  status: ('A' for Active; 'I' for Inactive)
REMARK    1  A    between atoms: O_1  and  C_2
REMARK    2  A    between atoms: C_2  and  C_3
REMARK    3  A    between atoms: C_4  and  C_5
REMARK    4  A    between atoms: C_15  and  N_16
REMARK                            x       y       z     vdW  Elec       q    Type
REMARK                         _______ _______ _______ _____ _____    ______ ____
ROOT
ATOM      1  C   UNL     1       9.679  12.102  18.265  0.00  0.00    +0.000 C 
ATOM      2  C   UNL     1      11.012  12.056  17.497  0.00  0.00    +0.000 C 
ATOM      3  C   UNL     1      12.095  11.294  18.242  0.00  0.00    +0.000 C 
ATOM      4  C   UNL     1      12.330  11.918  19.607  0.00  0.00    +0.000 C 
ATOM      5  C   UNL     1      11.049  11.998  20.440  0.00  0.00    +0.000 C 
ATOM      6  C   UNL     1       9.863  12.708  19.723  0.00  0.00    +0.000 C 
ENDROOT
BRANCH   6   7
ATOM      7  N   UNL     1       8.683  12.697  20.659  0.00  0.00    +0.000 NA
ATOM      8  C   UNL     1       8.055  13.997  20.941  0.00  0.00    +0.000 C 
ATOM      9  C   UNL     1       8.537  14.684  22.219  0.00  0.00    +0.000 C 
ATOM     10  C   UNL     1       8.162  13.795  23.370  0.00  0.00    +0.000 A 
ATOM     11  C   UNL     1       7.670  14.307  24.573  0.00  0.00    +0.000 A 
ATOM     12  C   UNL     1       7.294  13.436  25.593  0.00  0.00    +0.000 A 
ATOM     13  C   UNL     1       7.418  12.059  25.412  0.00  0.00    +0.000 A 
ATOM     14  C   UNL     1       7.925  11.546  24.213  0.00  0.00    +0.000 A 
ATOM     15  C   UNL     1       8.296  12.410  23.176  0.00  0.00    +0.000 A 
ATOM     16  C   UNL     1       8.940  11.902  21.894  0.00  0.00    +0.000 C 
ENDBRANCH   6   7
BRANCH   1  17
ATOM     17  O   UNL     1       8.845  12.983  17.489  0.00  0.00    +0.000 OA
ATOM     18  H   UNL     1       9.114  13.889  17.714  0.00  0.00    +0.000 HD
ENDBRANCH   1  17
BRANCH   1  19
ATOM     19  C   UNL     1       9.067  10.755  18.293  0.00  0.00    +0.000 C 
ATOM     20  C   UNL     1       8.618   9.638  18.282  0.00  0.00    +0.000 C 
BRANCH  20  21
ATOM     21  C   UNL     1       8.164   8.287  18.207  0.00  0.00    +0.000 A 
ATOM     22  C   UNL     1       8.477   7.375  19.218  0.00  0.00    +0.000 A 
ATOM     23  C   UNL     1       8.091   6.039  19.096  0.00  0.00    +0.000 A 
ATOM     24  C   UNL     1       7.391   5.615  17.966  0.00  0.00    +0.000 A 
ATOM     25  C   UNL     1       7.063   6.527  16.964  0.00  0.00    +0.000 A 
ATOM     26  C   UNL     1       7.447   7.863  17.085  0.00  0.00    +0.000 A 
ENDBRANCH  20  21
ENDBRANCH   1  19
TORSDOF 4
ENDMDL
MODEL 3
REMARK VINA RESULT:      -7.8      2.185      6.215
REMARK  Name = 
REMARK  4 active torsions:
REMARK  status: ('A' for Active; 'I' for Inactive)
REMARK    1  A    between atoms: O_1  and  C_2
REMARK    2  A    between atoms: C_2  and  C_3
REMARK    3  A    between atoms: C_4  and  C_5
REMARK    4  A    between atoms: C_15  and  N_16
REMARK                            x       y       z     vdW  Elec       q    Type
REMARK                         _______ _______ _______ _____ _____    ______ ____
ROOT
ATOM      1  C   UNL     1       3.958   2.706  18.693  0.00  0.00    +0.000 C 
ATOM      2  C   UNL     1       2.956   1.554  18.494  0.00  0.00    +0.000 C 
ATOM      3  C   UNL     1       1.673   2.000  17.813  0.00  0.00    +0.000 C 
ATOM      4  C   UNL     1       1.009   3.103  18.619  0.00  0.00    +0.000 C 
ATOM      5  C   UNL     1       1.940   4.293  18.859  0.00  0.00    +0.000 C 
ATOM      6  C   UNL     1       3.310   3.914  19.496  0.00  0.00    +0.000 C 
ENDROOT
BRANCH   6   7
ATOM      7  N   UNL     1       4.109   5.180  19.658  0.00  0.00    +0.000 NA
ATOM      8  C   UNL     1       3.605   6.370  18.957  0.00  0.00    +0.000 C 
ATOM      9  C   UNL     1       4.243   6.633  17.592  0.00  0.00    +0.000 C 
ATOM     10  C   UNL     1       5.704   6.889  17.825  0.00  0.00    +0.000 A 
ATOM     11  C   UNL     1       6.404   7.880  17.131  0.00  0.00    +0.000 A 
ATOM     12  C   UNL     1       7.748   8.106  17.418  0.00  0.00    +0.000 A 
ATOM     13  C   UNL     1       8.390   7.339  18.390  0.00  0.00    +0.000 A 
ATOM     14  C   UNL     1       7.694   6.336  19.074  0.00  0.00    +0.000 A 
ATOM     15  C   UNL     1       6.340   6.106  18.803  0.00  0.00    +0.000 A 
ATOM     16  C   UNL     1       5.570   4.965  19.452  0.00  0.00    +0.000 C 
ENDBRANCH   6   7
BRANCH   1  17
ATOM     17  O   UNL     1       5.018   2.130  19.479  0.00  0.00    +0.000 OA
ATOM     18  H   UNL     1       5.846   2.313  19.005  0.00  0.00    +0.000 HD
ENDBRANCH   1  17
BRANCH   1  19
ATOM     19  C   UNL     1       4.501   3.132  17.384  0.00  0.00    +0.000 C 
ATOM     20  C   UNL     1       5.001   3.478  16.345  0.00  0.00    +0.000 C 
BRANCH  20  21
ATOM     21  C   UNL     1       5.684   3.897  15.164  0.00  0.00    +0.000 A 
ATOM     22  C   UNL     1       5.263   3.455  13.907  0.00  0.00    +0.000 A 
ATOM     23  C   UNL     1       5.985   3.813  12.765  0.00  0.00    +0.000 A 
ATOM     24  C   UNL     1       7.123   4.611  12.880  0.00  0.00    +0.000 A 
ATOM     25  C   UNL     1       7.534   5.066  14.132  0.00  0.00    +0.000 A 
ATOM     26  C   UNL     1       6.813   4.712  15.274  0.00  0.00    +0.000 A 
ENDBRANCH  20  21
ENDBRANCH   1  19
TORSDOF 4
ENDMDL
MODEL 4
REMARK VINA RESULT:      -7.7      1.674      6.069
REMARK  Name = 
REMARK  4 active torsions:
REMARK  status: ('A' for Active; 'I' for Inactive)
REMARK    1  A    between atoms: O_1  and  C_2
REMARK    2  A    between atoms: C_2  and  C_3
REMARK    3  A    between atoms: C_4  and  C_5
REMARK    4  A    between atoms: C_15  and  N_16
REMARK                            x       y       z     vdW  Elec       q    Type
REMARK                         _______ _______ _______ _____ _____    ______ ____
ROOT
ATOM      1  C   UNL     1       3.893   3.183  18.990  0.00  0.00    +0.000 C 
ATOM      2  C   UNL     1       3.345   1.754  18.828  0.00  0.00    +0.000 C 
ATOM      3  C   UNL     1       2.130   1.689  17.918  0.00  0.00    +0.000 C 
ATOM      4  C   UNL     1       1.027   2.587  18.453  0.00  0.00    +0.000 C 
ATOM      5  C   UNL     1       1.491   4.033  18.640  0.00  0.00    +0.000 C 
ATOM      6  C   UNL     1       2.774   4.185  19.510  0.00  0.00    +0.000 C 
ENDROOT
BRANCH   6   7
ATOM      7  N   UNL     1       3.105   5.652  19.591  0.00  0.00    +0.000 NA
ATOM      8  C   UNL     1       2.762   6.334  20.848  0.00  0.00    +0.000 C 
ATOM      9  C   UNL     1       1.417   7.062  20.841  0.00  0.00    +0.000 C 
ATOM     10  C   UNL     1       1.502   8.143  19.803  0.00  0.00    +0.000 A 
ATOM     11  C   UNL     1       0.959   9.414  20.009  0.00  0.00    +0.000 A 
ATOM     12  C   UNL     1       1.105  10.396  19.032  0.00  0.00    +0.000 A 
ATOM     13  C   UNL     1       1.784  10.104  17.849  0.00  0.00    +0.000 A 
ATOM     14  C   UNL     1       2.315   8.827  17.635  0.00  0.00    +0.000 A 
ATOM     15  C   UNL     1       2.185   7.835  18.615  0.00  0.00    +0.000 A 
ATOM     16  C   UNL     1       2.661   6.407  18.385  0.00  0.00    +0.000 C 
ENDBRANCH   6   7
BRANCH   1  17
ATOM     17  O   UNL     1       4.921   3.063  19.992  0.00  0.00    +0.000 OA
ATOM     18  H   UNL     1       4.489   2.723  20.794  0.00  0.00    +0.000 HD
ENDBRANCH   1  17
BRANCH   1  19
ATOM     19  C   UNL     1       4.504   3.635  17.721  0.00  0.00    +0.000 C 
ATOM     20  C   UNL     1       5.025   3.946  16.681  0.00  0.00    +0.000 C 
BRANCH  20  21
ATOM     21  C   UNL     1       5.686   4.220  15.446  0.00  0.00    +0.000 A 
ATOM     22  C   UNL     1       5.259   3.613  14.262  0.00  0.00    +0.000 A 
ATOM     23  C   UNL     1       5.960   3.831  13.074  0.00  0.00    +0.000 A 
ATOM     24  C   UNL     1       7.084   4.656  13.069  0.00  0.00    +0.000 A 
ATOM     25  C   UNL     1       7.502   5.276  14.246  0.00  0.00    +0.000 A 
ATOM     26  C   UNL     1       6.801   5.061  15.434  0.00  0.00    +0.000 A 
ENDBRANCH  20  21
ENDBRANCH   1  19
TORSDOF 4
ENDMDL
MODEL 5
REMARK VINA RESULT:      -7.6      2.765      3.996
REMARK  Name = 
REMARK  4 active torsions:
REMARK  status: ('A' for Active; 'I' for Inactive)
REMARK    1  A    between atoms: O_1  and  C_2
REMARK    2  A    between atoms: C_2  and  C_3
REMARK    3  A    between atoms: C_4  and  C_5
REMARK    4  A    between atoms: C_15  and  N_16
REMARK                            x       y       z     vdW  Elec       q    Type
REMARK                         _______ _______ _______ _____ _____    ______ ____
ROOT
ATOM      1  C   UNL     1       7.280   4.970  16.873  0.00  0.00    +0.000 C 
ATOM      2  C   UNL     1       7.807   4.789  15.438  0.00  0.00    +0.000 C 
ATOM      3  C   UNL     1       6.974   5.531  14.406  0.00  0.00    +0.000 C 
ATOM      4  C   UNL     1       5.529   5.065  14.467  0.00  0.00    +0.000 C 
ATOM      5  C   UNL     1       4.926   5.216  15.865  0.00  0.00    +0.000 C 
ATOM      6  C   UNL     1       5.755   4.538  16.996  0.00  0.00    +0.000 C 
ENDROOT
BRANCH   6   7
ATOM      7  N   UNL     1       5.043   4.781  18.301  0.00  0.00    +0.000 NA
ATOM      8  C   UNL     1       5.485   3.979  19.451  0.00  0.00    +0.000 C 
ATOM      9  C   UNL     1       4.661   2.717  19.712  0.00  0.00    +0.000 C 
ATOM     10  C   UNL     1       3.264   3.159  20.039  0.00  0.00    +0.000 A 
ATOM     11  C   UNL     1       2.509   2.549  21.046  0.00  0.00    +0.000 A 
ATOM     12  C   UNL     1       1.235   3.027  21.340  0.00  0.00    +0.000 A 
ATOM     13  C   UNL     1       0.714   4.105  20.625  0.00  0.00    +0.000 A 
ATOM     14  C   UNL     1       1.463   4.707  19.607  0.00  0.00    +0.000 A 
ATOM     15  C   UNL     1       2.749   4.243  19.309  0.00  0.00    +0.000 A 
ATOM     16  C   UNL     1       3.560   4.802  18.148  0.00  0.00    +0.000 C 
ENDBRANCH   6   7
BRANCH   1  17
ATOM     17  O   UNL     1       8.088   4.082  17.668  0.00  0.00    +0.000 OA
ATOM     18  H   UNL     1       7.571   3.268  17.787  0.00  0.00    +0.000 HD
ENDBRANCH   1  17
BRANCH   1  19
ATOM     19  C   UNL     1       7.505   6.362  17.320  0.00  0.00    +0.000 C 
ATOM     20  C   UNL     1       7.747   7.490  17.664  0.00  0.00    +0.000 C 
BRANCH  20  21
ATOM     21  C   UNL     1       8.133   8.811  18.045  0.00  0.00    +0.000 A 
ATOM     22  C   UNL     1       7.712   9.916  17.302  0.00  0.00    +0.000 A 
ATOM     23  C   UNL     1       8.158  11.195  17.641  0.00  0.00    +0.000 A 
ATOM     24  C   UNL     1       9.020  11.369  18.723  0.00  0.00    +0.000 A 
ATOM     25  C   UNL     1       9.428  10.269  19.477  0.00  0.00    +0.000 A 
ATOM     26  C   UNL     1       8.982   8.990  19.140  0.00  0.00    +0.000 A 
ENDBRANCH  20  21
ENDBRANCH   1  19
TORSDOF 4
ENDMDL
MODEL 6
REMARK VINA RESULT:      -7.5      2.050      5.281
REMARK  Name = 
REMARK  4 active torsions:
REMARK  status: ('A' for Active; 'I' for Inactive)
REMARK    1  A    between atoms: O_1  and  C_2
REMARK    2  A    between atoms: C_2  and  C_3
REMARK    3  A    between atoms: C_4  and  C_5
REMARK    4  A    between atoms: C_15  and  N_16
REMARK                            x       y       z     vdW  Elec       q    Type
REMARK                         _______ _______ _______ _____ _____    ______ ____
ROOT
ATOM      1  C   UNL     1       6.283   6.967  17.409  0.00  0.00    +0.000 C 
ATOM      2  C   UNL     1       7.700   7.287  17.915  0.00  0.00    +0.000 C 
ATOM      3  C   UNL     1       8.379   6.091  18.560  0.00  0.00    +0.000 C 
ATOM      4  C   UNL     1       7.543   5.576  19.719  0.00  0.00    +0.000 C 
ATOM      5  C   UNL     1       6.113   5.230  19.298  0.00  0.00    +0.000 C 
ATOM      6  C   UNL     1       5.364   6.384  18.567  0.00  0.00    +0.000 C 
ENDROOT
BRANCH   6   7
ATOM      7  N   UNL     1       3.987   5.888  18.212  0.00  0.00    +0.000 NA
ATOM      8  C   UNL     1       2.863   6.485  18.949  0.00  0.00    +0.000 C 
ATOM      9  C   UNL     1       2.388   5.683  20.161  0.00  0.00    +0.000 C 
ATOM     10  C   UNL     1       1.883   4.364  19.651  0.00  0.00    +0.000 A 
ATOM     11  C   UNL     1       0.732   3.761  20.165  0.00  0.00    +0.000 A 
ATOM     12  C   UNL     1       0.281   2.559  19.625  0.00  0.00    +0.000 A 
ATOM     13  C   UNL     1       0.984   1.958  18.581  0.00  0.00    +0.000 A 
ATOM     14  C   UNL     1       2.146   2.554  18.076  0.00  0.00    +0.000 A 
ATOM     15  C   UNL     1       2.603   3.767  18.603  0.00  0.00    +0.000 A 
ATOM     16  C   UNL     1       3.912   4.401  18.151  0.00  0.00    +0.000 C 
ENDBRANCH   6   7
BRANCH   1  17
ATOM     17  O   UNL     1       5.756   8.239  16.984  0.00  0.00    +0.000 OA
ATOM     18  H   UNL     1       5.513   8.140  16.048  0.00  0.00    +0.000 HD
ENDBRANCH   1  17
BRANCH   1  19
ATOM     19  C   UNL     1       6.357   6.060  16.243  0.00  0.00    +0.000 C 
ATOM     20  C   UNL     1       6.409   5.371  15.257  0.00  0.00    +0.000 C 
BRANCH  20  21
ATOM     21  C   UNL     1       6.448   4.639  14.032  0.00  0.00    +0.000 A 
ATOM     22  C   UNL     1       7.484   4.841  13.117  0.00  0.00    +0.000 A 
ATOM     23  C   UNL     1       7.470   4.174  11.890  0.00  0.00    +0.000 A 
ATOM     24  C   UNL     1       6.425   3.305  11.580  0.00  0.00    +0.000 A 
ATOM     25  C   UNL     1       5.399   3.088  12.500  0.00  0.00    +0.000 A 
ATOM     26  C   UNL     1       5.412   3.753  13.726  0.00  0.00    +0.000 A 
ENDBRANCH  20  21
ENDBRANCH   1  19
TORSDOF 4
ENDMDL
MODEL 7
REMARK VINA RESULT:      -7.4      7.112     10.720
REMARK  Name = 
REMARK  4 active torsions:
REMARK  status: ('A' for Active; 'I' for Inactive)
REMARK    1  A    between atoms: O_1  and  C_2
REMARK    2  A    between atoms: C_2  and  C_3
REMARK    3  A    between atoms: C_4  and  C_5
REMARK    4  A    between atoms: C_15  and  N_16
REMARK                            x       y       z     vdW  Elec       q    Type
REMARK                         _______ _______ _______ _____ _____    ______ ____
ROOT
ATOM      1  C   UNL     1       0.351  11.222  21.054  0.00  0.00    +0.000 C 
ATOM      2  C   UNL     1       1.080   9.916  21.415  0.00  0.00    +0.000 C 
ATOM      3  C   UNL     1       0.159   8.879  22.035  0.00  0.00    +0.000 C 
ATOM      4  C   UNL     1      -0.497   9.443  23.284  0.00  0.00    +0.000 C 
ATOM      5  C   UNL     1      -1.250  10.746  23.010  0.00  0.00    +0.000 C 
ATOM      6  C   UNL     1      -0.394  11.845  22.312  0.00  0.00    +0.000 C 
ENDROOT
BRANCH   6   7
ATOM      7  N   UNL     1      -1.272  13.051  22.104  0.00  0.00    +0.000 NA
ATOM      8  C   UNL     1      -0.858  14.290  22.779  0.00  0.00    +0.000 C 
ATOM      9  C   UNL     1      -1.533  14.547  24.127  0.00  0.00    +0.000 C 
ATOM     10  C   UNL     1      -3.003  14.700  23.866  0.00  0.00    +0.000 A 
ATOM     11  C   UNL     1      -3.777  15.661  24.522  0.00  0.00    +0.000 A 
ATOM     12  C   UNL     1      -5.128  15.792  24.210  0.00  0.00    +0.000 A 
ATOM     13  C   UNL     1      -5.704  14.958  23.251  0.00  0.00    +0.000 A 
ATOM     14  C   UNL     1      -4.933  13.986  22.605  0.00  0.00    +0.000 A 
ATOM     15  C   UNL     1      -3.572  13.852  22.902  0.00  0.00    +0.000 A 
ATOM     16  C   UNL     1      -2.719  12.746  22.295  0.00  0.00    +0.000 C 
ENDBRANCH   6   7
BRANCH   1  17
ATOM     17  O   UNL     1       1.399  12.117  20.636  0.00  0.00    +0.000 OA
ATOM     18  H   UNL     1       2.000  12.214  21.393  0.00  0.00    +0.000 HD
ENDBRANCH   1  17
BRANCH   1  19
ATOM     19  C   UNL     1      -0.569  10.989  19.918  0.00  0.00    +0.000 C 
ATOM     20  C   UNL     1      -1.320  10.861  18.986  0.00  0.00    +0.000 C 
BRANCH  20  21
ATOM     21  C   UNL     1      -2.220  10.813  17.880  0.00  0.00    +0.000 A 
ATOM     22  C   UNL     1      -3.432  11.508  17.919  0.00  0.00    +0.000 A 
ATOM     23  C   UNL     1      -4.336  11.392  16.861  0.00  0.00    +0.000 A 
ATOM     24  C   UNL     1      -4.029  10.586  15.765  0.00  0.00    +0.000 A 
ATOM     25  C   UNL     1      -2.813   9.906  15.716  0.00  0.00    +0.000 A 
ATOM     26  C   UNL     1      -1.907  10.021  16.772  0.00  0.00    +0.000 A 
ENDBRANCH  20  21
ENDBRANCH   1  19
TORSDOF 4
ENDMDL
MODEL 8
REMARK VINA RESULT:      -7.3      2.566      5.122
REMARK  Name = 
REMARK  4 active torsions:
REMARK  status: ('A' for Active; 'I' for Inactive)
REMARK    1  A    between atoms: O_1  and  C_2
REMARK    2  A    between atoms: C_2  and  C_3
REMARK    3  A    between atoms: C_4  and  C_5
REMARK    4  A    between atoms: C_15  and  N_16
REMARK                            x       y       z     vdW  Elec       q    Type
REMARK                         _______ _______ _______ _____ _____    ______ ____
ROOT
ATOM      1  C   UNL     1       5.654   6.773  17.375  0.00  0.00    +0.000 C 
ATOM      2  C   UNL     1       6.547   8.023  17.289  0.00  0.00    +0.000 C 
ATOM      3  C   UNL     1       8.023   7.706  17.462  0.00  0.00    +0.000 C 
ATOM      4  C   UNL     1       8.257   7.020  18.796  0.00  0.00    +0.000 C 
ATOM      5  C   UNL     1       7.406   5.759  18.961  0.00  0.00    +0.000 C 
ATOM      6  C   UNL     1       5.882   5.983  18.735  0.00  0.00    +0.000 C 
ENDROOT
BRANCH   6   7
ATOM      7  N   UNL     1       5.188   4.659  18.921  0.00  0.00    +0.000 NA
ATOM      8  C   UNL     1       4.674   4.009  17.706  0.00  0.00    +0.000 C 
ATOM      9  C   UNL     1       3.197   4.272  17.408  0.00  0.00    +0.000 C 
ATOM     10  C   UNL     1       2.405   3.691  18.544  0.00  0.00    +0.000 A 
ATOM     11  C   UNL     1       1.205   3.006  18.337  0.00  0.00    +0.000 A 
ATOM     12  C   UNL     1       0.532   2.447  19.421  0.00  0.00    +0.000 A 
ATOM     13  C   UNL     1       1.053   2.582  20.707  0.00  0.00    +0.000 A 
ATOM     14  C   UNL     1       2.247   3.281  20.917  0.00  0.00    +0.000 A 
ATOM     15  C   UNL     1       2.939   3.838  19.835  0.00  0.00    +0.000 A 
ATOM     16  C   UNL     1       4.187   4.688  20.026  0.00  0.00    +0.000 C 
ENDBRANCH   6   7
BRANCH   1  17
ATOM     17  O   UNL     1       4.309   7.288  17.347  0.00  0.00    +0.000 OA
ATOM     18  H   UNL     1       4.374   8.219  17.075  0.00  0.00    +0.000 HD
ENDBRANCH   1  17
BRANCH   1  19
ATOM     19  C   UNL     1       5.869   5.917  16.187  0.00  0.00    +0.000 C 
ATOM     20  C   UNL     1       6.049   5.273  15.186  0.00  0.00    +0.000 C 
BRANCH  20  21
ATOM     21  C   UNL     1       6.260   4.598  13.946  0.00  0.00    +0.000 A 
ATOM     22  C   UNL     1       7.379   4.888  13.162  0.00  0.00    +0.000 A 
ATOM     23  C   UNL     1       7.535   4.275  11.916  0.00  0.00    +0.000 A 
ATOM     24  C   UNL     1       6.575   3.373  11.457  0.00  0.00    +0.000 A 
ATOM     25  C   UNL     1       5.466   3.070  12.247  0.00  0.00    +0.000 A 
ATOM     26  C   UNL     1       5.310   3.680  13.492  0.00  0.00    +0.000 A 
ENDBRANCH  20  21
ENDBRANCH   1  19
TORSDOF 4
ENDMDL
MODEL 9
REMARK VINA RESULT:      -7.2      1.467      5.111
REMARK  Name = 
REMARK  4 active torsions:
REMARK  status: ('A' for Active; 'I' for Inactive)
REMARK    1  A    between atoms: O_1  and  C_2
REMARK    2  A    between atoms: C_2  and  C_3
REMARK    3  A    between atoms: C_4  and  C_5
REMARK    4  A    between atoms: C_15  and  N_16
REMARK                            x       y       z     vdW  Elec       q    Type
REMARK                         _______ _______ _______ _____ _____    ______ ____
ROOT
ATOM      1  C   UNL     1       1.822   3.135  19.100  0.00  0.00    +0.000 C 
ATOM      2  C   UNL     1       0.716   2.726  20.089  0.00  0.00    +0.000 C 
ATOM      3  C   UNL     1       1.083   3.014  21.535  0.00  0.00    +0.000 C 
ATOM      4  C   UNL     1       2.369   2.293  21.902  0.00  0.00    +0.000 C 
ATOM      5  C   UNL     1       3.525   2.649  20.965  0.00  0.00    +0.000 C 
ATOM      6  C   UNL     1       3.210   2.445  19.454  0.00  0.00    +0.000 C 
ENDROOT
BRANCH   6   7
ATOM      7  N   UNL     1       4.431   2.844  18.669  0.00  0.00    +0.000 NA
ATOM      8  C   UNL     1       5.358   3.780  19.325  0.00  0.00    +0.000 C 
ATOM      9  C   UNL     1       5.153   5.251  18.963  0.00  0.00    +0.000 C 
ATOM     10  C   UNL     1       5.414   5.388  17.491  0.00  0.00    +0.000 A 
ATOM     11  C   UNL     1       6.109   6.477  16.959  0.00  0.00    +0.000 A 
ATOM     12  C   UNL     1       6.365   6.533  15.590  0.00  0.00    +0.000 A 
ATOM     13  C   UNL     1       5.919   5.506  14.758  0.00  0.00    +0.000 A 
ATOM     14  C   UNL     1       5.210   4.422  15.288  0.00  0.00    +0.000 A 
ATOM     15  C   UNL     1       4.957   4.350  16.663  0.00  0.00    +0.000 A 
ATOM     16  C   UNL     1       4.108   3.241  17.268  0.00  0.00    +0.000 C 
ENDBRANCH   6   7
BRANCH   1  17
ATOM     17  O   UNL     1       1.364   2.648  17.825  0.00  0.00    +0.000 OA
ATOM     18  H   UNL     1       0.393   2.613  17.873  0.00  0.00    +0.000 HD
ENDBRANCH   1  17
BRANCH   1  19
ATOM     19  C   UNL     1       1.929   4.610  19.045  0.00  0.00    +0.000 C 
ATOM     20  C   UNL     1       1.957   5.813  19.022  0.00  0.00    +0.000 C 
BRANCH  20  21
ATOM     21  C   UNL     1       1.891   7.239  19.023  0.00  0.00    +0.000 A 
ATOM     22  C   UNL     1       1.459   7.929  20.159  0.00  0.00    +0.000 A 
ATOM     23  C   UNL     1       1.327   9.319  20.122  0.00  0.00    +0.000 A 
ATOM     24  C   UNL     1       1.628  10.018  18.954  0.00  0.00    +0.000 A 
ATOM     25  C   UNL     1       2.076   9.332  17.825  0.00  0.00    +0.000 A 
ATOM     26  C   UNL     1       2.210   7.944  17.860  0.00  0.00    +0.000 A 
ENDBRANCH  20  21
ENDBRANCH   1  19
TORSDOF 4
ENDMDL
