MODEL 1
REMARK VINA RESULT:      -8.1      0.000      0.000
REMARK  Name = 
REMARK  10 active torsions:
REMARK  status: ('A' for Active; 'I' for Inactive)
REMARK    1  A    between atoms: C_1  and  C_2
REMARK    2  A    between atoms: C_2  and  C_3
REMARK    3  A    between atoms: C_3  and  C_4
REMARK    4  A    between atoms: N_7  and  C_8
REMARK    5  A    between atoms: C_8  and  C_9
REMARK    6  A    between atoms: C_8  and  C_11
REMARK    7  A    between atoms: C_9  and  C_10
REMARK    8  A    between atoms: C_13  and  C_14
REMARK    9  A    between atoms: C_15  and  C_16
REMARK   10  A    between atoms: N_21  and  C_22
REMARK                            x       y       z     vdW  Elec       q    Type
REMARK                         _______ _______ _______ _____ _____    ______ ____
ROOT
ATOM      1  C   UNL     1       2.722   6.190  19.413  0.00  0.00    +0.000 A 
ATOM      2  N   UNL     1       3.830   5.976  18.655  0.00  0.00    +0.000 NA
ATOM      3  C   UNL     1       4.468   4.776  18.718  0.00  0.00    +0.000 A 
ATOM      4  N   UNL     1       5.535   4.496  17.905  0.00  0.00    +0.000 N 
ATOM      5  C   UNL     1       3.980   3.842  19.640  0.00  0.00    +0.000 A 
ATOM      6  C   UNL     1       4.341   2.577  20.147  0.00  0.00    +0.000 A 
ATOM      7  N   UNL     1       3.451   2.087  21.018  0.00  0.00    +0.000 NA
ATOM      8  N   UNL     1       2.498   3.048  21.052  0.00  0.00    +0.000 N 
ATOM      9  C   UNL     1       1.269   2.830  21.768  0.00  0.00    +0.000 C 
ATOM     10  C   UNL     1       2.811   4.156  20.308  0.00  0.00    +0.000 A 
ATOM     11  N   UNL     1       2.118   5.296  20.222  0.00  0.00    +0.000 NA
ATOM     12  H   UNL     1       5.952   3.573  17.912  0.00  0.00    +0.000 HD
ENDROOT
BRANCH   1  13
ATOM     13  C   UNL     1       2.113   7.571  19.372  0.00  0.00    +0.000 C 
BRANCH  13  15
ATOM     14  C   UNL     1       1.839   9.661  17.977  0.00  0.00    +0.000 C 
ATOM     15  C   UNL     1       2.251   8.199  17.979  0.00  0.00    +0.000 C 
ENDBRANCH  13  15
ENDBRANCH   1  13
BRANCH   4  16
ATOM     16  C   UNL     1       6.265   5.495  17.128  0.00  0.00    +0.000 C 
BRANCH  16  17
ATOM     17  C   UNL     1       6.541   5.028  15.695  0.00  0.00    +0.000 A 
ATOM     18  N   UNL     1       7.428   5.588  14.890  0.00  0.00    +0.000 NA
ATOM     19  C   UNL     1       7.355   5.024  13.626  0.00  0.00    +0.000 A 
ATOM     20  C   UNL     1       8.254   5.551  12.564  0.00  0.00    +0.000 C 
ATOM     21  C   UNL     1       6.406   4.024  13.488  0.00  0.00    +0.000 A 
ATOM     22  C   UNL     1       6.010   3.243  12.283  0.00  0.00    +0.000 C 
ATOM     23  S   UNL     1       5.635   3.744  14.994  0.00  0.00    +0.000 S 
ENDBRANCH  16  17
BRANCH  16  24
ATOM     24  C   UNL     1       7.604   5.833  17.828  0.00  0.00    +0.000 C 
ATOM     25  C   UNL     1       7.823   7.321  18.099  0.00  0.00    +0.000 C 
ENDBRANCH  16  24
ENDBRANCH   4  16
TORSDOF 5
ENDMDL
MODEL 2
REMARK VINA RESULT:      -7.1      2.229      6.587
REMARK  Name = 
REMARK  10 active torsions:
REMARK  status: ('A' for Active; 'I' for Inactive)
REMARK    1  A    between atoms: C_1  and  C_2
REMARK    2  A    between atoms: C_2  and  C_3
REMARK    3  A    between atoms: C_3  and  C_4
REMARK    4  A    between atoms: N_7  and  C_8
REMARK    5  A    between atoms: C_8  and  C_9
REMARK    6  A    between atoms: C_8  and  C_11
REMARK    7  A    between atoms: C_9  and  C_10
REMARK    8  A    between atoms: C_13  and  C_14
REMARK    9  A    between atoms: C_15  and  C_16
REMARK   10  A    between atoms: N_21  and  C_22
REMARK                            x       y       z     vdW  Elec       q    Type
REMARK                         _______ _______ _______ _____ _____    ______ ____
ROOT
ATOM      1  C   UNL     1       7.085   5.849  17.131  0.00  0.00    +0.000 A 
ATOM      2  N   UNL     1       6.060   5.076  17.580  0.00  0.00    +0.000 NA
ATOM      3  C   UNL     1       5.404   4.256  16.715  0.00  0.00    +0.000 A 
ATOM      4  N   UNL     1       4.425   3.402  17.150  0.00  0.00    +0.000 N 
ATOM      5  C   UNL     1       5.781   4.319  15.368  0.00  0.00    +0.000 A 
ATOM      6  C   UNL     1       5.353   3.795  14.130  0.00  0.00    +0.000 A 
ATOM      7  N   UNL     1       6.141   4.152  13.108  0.00  0.00    +0.000 NA
ATOM      8  N   UNL     1       7.096   4.900  13.708  0.00  0.00    +0.000 N 
ATOM      9  C   UNL     1       8.240   5.354  12.963  0.00  0.00    +0.000 C 
ATOM     10  C   UNL     1       6.876   5.098  15.047  0.00  0.00    +0.000 A 
ATOM     11  N   UNL     1       7.589   5.864  15.880  0.00  0.00    +0.000 NA
ATOM     12  H   UNL     1       3.999   2.747  16.507  0.00  0.00    +0.000 HD
ENDROOT
BRANCH   1  13
ATOM     13  C   UNL     1       7.711   6.807  18.115  0.00  0.00    +0.000 C 
BRANCH  13  15
ATOM     14  C   UNL     1       8.577   9.165  18.388  0.00  0.00    +0.000 C 
ATOM     15  C   UNL     1       7.657   8.250  17.598  0.00  0.00    +0.000 C 
ENDBRANCH  13  15
ENDBRANCH   1  13
BRANCH   4  16
ATOM     16  C   UNL     1       3.793   3.474  18.466  0.00  0.00    +0.000 C 
BRANCH  16  17
ATOM     17  C   UNL     1       3.147   4.839  18.725  0.00  0.00    +0.000 A 
ATOM     18  N   UNL     1       3.112   5.822  17.842  0.00  0.00    +0.000 NA
ATOM     19  C   UNL     1       2.573   6.965  18.414  0.00  0.00    +0.000 A 
ATOM     20  C   UNL     1       2.485   8.196  17.585  0.00  0.00    +0.000 C 
ATOM     21  C   UNL     1       2.194   6.829  19.740  0.00  0.00    +0.000 A 
ATOM     22  C   UNL     1       1.640   7.840  20.683  0.00  0.00    +0.000 C 
ATOM     23  S   UNL     1       2.460   5.216  20.257  0.00  0.00    +0.000 S 
ENDBRANCH  16  17
BRANCH  16  24
ATOM     24  C   UNL     1       4.837   3.178  19.570  0.00  0.00    +0.000 C 
ATOM     25  C   UNL     1       4.494   1.991  20.468  0.00  0.00    +0.000 C 
ENDBRANCH  16  24
ENDBRANCH   4  16
TORSDOF 5
ENDMDL
MODEL 3
REMARK VINA RESULT:      -7.0      1.812      3.527
REMARK  Name = 
REMARK  10 active torsions:
REMARK  status: ('A' for Active; 'I' for Inactive)
REMARK    1  A    between atoms: C_1  and  C_2
REMARK    2  A    between atoms: C_2  and  C_3
REMARK    3  A    between atoms: C_3  and  C_4
REMARK    4  A    between atoms: N_7  and  C_8
REMARK    5  A    between atoms: C_8  and  C_9
REMARK    6  A    between atoms: C_8  and  C_11
REMARK    7  A    between atoms: C_9  and  C_10
REMARK    8  A    between atoms: C_13  and  C_14
REMARK    9  A    between atoms: C_15  and  C_16
REMARK   10  A    between atoms: N_21  and  C_22
REMARK                            x       y       z     vdW  Elec       q    Type
REMARK                         _______ _______ _______ _____ _____    ______ ____
ROOT
ATOM      1  C   UNL     1       3.193   5.853  17.993  0.00  0.00    +0.000 A 
ATOM      2  N   UNL     1       4.166   5.230  17.276  0.00  0.00    +0.000 NA
ATOM      3  C   UNL     1       4.227   3.871  17.261  0.00  0.00    +0.000 A 
ATOM      4  N   UNL     1       5.140   3.210  16.481  0.00  0.00    +0.000 N 
ATOM      5  C   UNL     1       3.313   3.183  18.067  0.00  0.00    +0.000 A 
ATOM      6  C   UNL     1       3.058   1.857  18.473  0.00  0.00    +0.000 A 
ATOM      7  N   UNL     1       1.973   1.745  19.249  0.00  0.00    +0.000 NA
ATOM      8  N   UNL     1       1.519   3.018  19.323  0.00  0.00    +0.000 N 
ATOM      9  C   UNL     1       0.257   3.306  19.952  0.00  0.00    +0.000 C 
ATOM     10  C   UNL     1       2.335   3.927  18.701  0.00  0.00    +0.000 A 
ATOM     11  N   UNL     1       2.201   5.257  18.685  0.00  0.00    +0.000 NA
ATOM     12  H   UNL     1       5.123   2.200  16.425  0.00  0.00    +0.000 HD
ENDROOT
BRANCH   1  13
ATOM     13  C   UNL     1       3.234   7.361  18.048  0.00  0.00    +0.000 C 
BRANCH  13  15
ATOM     14  C   UNL     1       1.867   9.481  17.891  0.00  0.00    +0.000 C 
ATOM     15  C   UNL     1       1.833   7.962  17.881  0.00  0.00    +0.000 C 
ENDBRANCH  13  15
ENDBRANCH   1  13
BRANCH   4  16
ATOM     16  C   UNL     1       6.289   3.845  15.838  0.00  0.00    +0.000 C 
BRANCH  16  17
ATOM     17  C   UNL     1       6.967   4.874  16.748  0.00  0.00    +0.000 A 
ATOM     18  N   UNL     1       7.385   4.618  17.975  0.00  0.00    +0.000 NA
ATOM     19  C   UNL     1       7.840   5.778  18.583  0.00  0.00    +0.000 A 
ATOM     20  C   UNL     1       8.319   5.699  19.989  0.00  0.00    +0.000 C 
ATOM     21  C   UNL     1       7.766   6.915  17.794  0.00  0.00    +0.000 A 
ATOM     22  C   UNL     1       8.103   8.328  18.123  0.00  0.00    +0.000 C 
ATOM     23  S   UNL     1       7.175   6.505  16.238  0.00  0.00    +0.000 S 
ENDBRANCH  16  17
BRANCH  16  24
ATOM     24  C   UNL     1       5.845   4.530  14.522  0.00  0.00    +0.000 C 
ATOM     25  C   UNL     1       6.177   3.746  13.254  0.00  0.00    +0.000 C 
ENDBRANCH  16  24
ENDBRANCH   4  16
TORSDOF 5
ENDMDL
MODEL 4
REMARK VINA RESULT:      -6.9      3.194      7.314
REMARK  Name = 
REMARK  10 active torsions:
REMARK  status: ('A' for Active; 'I' for Inactive)
REMARK    1  A    between atoms: C_1  and  C_2
REMARK    2  A    between atoms: C_2  and  C_3
REMARK    3  A    between atoms: C_3  and  C_4
REMARK    4  A    between atoms: N_7  and  C_8
REMARK    5  A    between atoms: C_8  and  C_9
REMARK    6  A    between atoms: C_8  and  C_11
REMARK    7  A    between atoms: C_9  and  C_10
REMARK    8  A    between atoms: C_13  and  C_14
REMARK    9  A    between atoms: C_15  and  C_16
REMARK   10  A    between atoms: N_21  and  C_22
REMARK                            x       y       z     vdW  Elec       q    Type
REMARK                         _______ _______ _______ _____ _____    ______ ____
ROOT
ATOM      1  C   UNL     1       2.462   4.578  18.122  0.00  0.00    +0.000 A 
ATOM      2  N   UNL     1       2.131   5.873  18.367  0.00  0.00    +0.000 NA
ATOM      3  C   UNL     1       2.964   6.871  17.963  0.00  0.00    +0.000 A 
ATOM      4  N   UNL     1       2.621   8.188  18.117  0.00  0.00    +0.000 N 
ATOM      5  C   UNL     1       4.178   6.489  17.379  0.00  0.00    +0.000 A 
ATOM      6  C   UNL     1       5.367   7.100  16.931  0.00  0.00    +0.000 A 
ATOM      7  N   UNL     1       6.227   6.233  16.381  0.00  0.00    +0.000 NA
ATOM      8  N   UNL     1       5.567   5.055  16.465  0.00  0.00    +0.000 N 
ATOM      9  C   UNL     1       6.097   3.876  15.833  0.00  0.00    +0.000 C 
ATOM     10  C   UNL     1       4.371   5.143  17.129  0.00  0.00    +0.000 A 
ATOM     11  N   UNL     1       3.546   4.140  17.449  0.00  0.00    +0.000 NA
ATOM     12  H   UNL     1       3.218   8.916  17.744  0.00  0.00    +0.000 HD
ENDROOT
BRANCH   1  13
ATOM     13  C   UNL     1       1.545   3.514  18.676  0.00  0.00    +0.000 C 
BRANCH  13  15
ATOM     14  C   UNL     1       1.768   3.381  21.190  0.00  0.00    +0.000 C 
ATOM     15  C   UNL     1       0.959   3.935  20.030  0.00  0.00    +0.000 C 
ENDBRANCH  13  15
ENDBRANCH   1  13
BRANCH   4  16
ATOM     16  C   UNL     1       1.519   8.662  18.952  0.00  0.00    +0.000 C 
BRANCH  16  17
ATOM     17  C   UNL     1       1.248  10.158  18.760  0.00  0.00    +0.000 A 
ATOM     18  N   UNL     1       2.171  11.043  18.426  0.00  0.00    +0.000 NA
ATOM     19  C   UNL     1       1.644  12.324  18.452  0.00  0.00    +0.000 A 
ATOM     20  C   UNL     1       2.544  13.466  18.139  0.00  0.00    +0.000 C 
ATOM     21  C   UNL     1       0.305  12.396  18.804  0.00  0.00    +0.000 A 
ATOM     22  C   UNL     1      -0.571  13.586  18.990  0.00  0.00    +0.000 C 
ATOM     23  S   UNL     1      -0.317  10.816  19.042  0.00  0.00    +0.000 S 
ENDBRANCH  16  17
BRANCH  16  24
ATOM     24  C   UNL     1       1.829   8.380  20.443  0.00  0.00    +0.000 C 
ATOM     25  C   UNL     1       0.609   8.011  21.287  0.00  0.00    +0.000 C 
ENDBRANCH  16  24
ENDBRANCH   4  16
TORSDOF 5
ENDMDL
MODEL 5
REMARK VINA RESULT:      -6.8      1.120      1.467
REMARK  Name = 
REMARK  10 active torsions:
REMARK  status: ('A' for Active; 'I' for Inactive)
REMARK    1  A    between atoms: C_1  and  C_2
REMARK    2  A    between atoms: C_2  and  C_3
REMARK    3  A    between atoms: C_3  and  C_4
REMARK    4  A    between atoms: N_7  and  C_8
REMARK    5  A    between atoms: C_8  and  C_9
REMARK    6  A    between atoms: C_8  and  C_11
REMARK    7  A    between atoms: C_9  and  C_10
REMARK    8  A    between atoms: C_13  and  C_14
REMARK    9  A    between atoms: C_15  and  C_16
REMARK   10  A    between atoms: N_21  and  C_22
REMARK                            x       y       z     vdW  Elec       q    Type
REMARK                         _______ _______ _______ _____ _____    ______ ____
ROOT
ATOM      1  C   UNL     1       2.813   6.286  19.224  0.00  0.00    +0.000 A 
ATOM      2  N   UNL     1       3.726   6.024  18.251  0.00  0.00    +0.000 NA
ATOM      3  C   UNL     1       4.287   4.787  18.168  0.00  0.00    +0.000 A 
ATOM      4  N   UNL     1       5.145   4.463  17.149  0.00  0.00    +0.000 N 
ATOM      5  C   UNL     1       3.942   3.863  19.162  0.00  0.00    +0.000 A 
ATOM      6  C   UNL     1       4.320   2.568  19.571  0.00  0.00    +0.000 A 
ATOM      7  N   UNL     1       3.599   2.111  20.603  0.00  0.00    +0.000 NA
ATOM      8  N   UNL     1       2.736   3.126  20.843  0.00  0.00    +0.000 N 
ATOM      9  C   UNL     1       1.670   2.965  21.795  0.00  0.00    +0.000 C 
ATOM     10  C   UNL     1       2.958   4.230  20.061  0.00  0.00    +0.000 A 
ATOM     11  N   UNL     1       2.334   5.411  20.131  0.00  0.00    +0.000 NA
ATOM     12  H   UNL     1       5.495   3.518  17.061  0.00  0.00    +0.000 HD
ENDROOT
BRANCH   1  13
ATOM     13  C   UNL     1       2.296   7.701  19.323  0.00  0.00    +0.000 C 
BRANCH  13  15
ATOM     14  C   UNL     1       1.195   9.428  17.843  0.00  0.00    +0.000 C 
ATOM     15  C   UNL     1       2.300   8.392  17.954  0.00  0.00    +0.000 C 
ENDBRANCH  13  15
ENDBRANCH   1  13
BRANCH   4  16
ATOM     16  C   UNL     1       5.760   5.435  16.249  0.00  0.00    +0.000 C 
BRANCH  16  17
ATOM     17  C   UNL     1       5.891   4.899  14.819  0.00  0.00    +0.000 A 
ATOM     18  N   UNL     1       4.892   4.379  14.128  0.00  0.00    +0.000 NA
ATOM     19  C   UNL     1       5.351   3.873  12.922  0.00  0.00    +0.000 A 
ATOM     20  C   UNL     1       4.376   3.209  12.016  0.00  0.00    +0.000 C 
ATOM     21  C   UNL     1       6.712   4.026  12.707  0.00  0.00    +0.000 A 
ATOM     22  C   UNL     1       7.557   3.564  11.571  0.00  0.00    +0.000 C 
ATOM     23  S   UNL     1       7.414   4.880  14.018  0.00  0.00    +0.000 S 
ENDBRANCH  16  17
BRANCH  16  24
ATOM     24  C   UNL     1       7.158   5.837  16.780  0.00  0.00    +0.000 C 
ATOM     25  C   UNL     1       7.220   7.221  17.424  0.00  0.00    +0.000 C 
ENDBRANCH  16  24
ENDBRANCH   4  16
TORSDOF 5
ENDMDL
MODEL 6
REMARK VINA RESULT:      -6.7      2.795      7.655
REMARK  Name = 
REMARK  10 active torsions:
REMARK  status: ('A' for Active; 'I' for Inactive)
REMARK    1  A    between atoms: C_1  and  C_2
REMARK    2  A    between atoms: C_2  and  C_3
REMARK    3  A    between atoms: C_3  and  C_4
REMARK    4  A    between atoms: N_7  and  C_8
REMARK    5  A    between atoms: C_8  and  C_9
REMARK    6  A    between atoms: C_8  and  C_11
REMARK    7  A    between atoms: C_9  and  C_10
REMARK    8  A    between atoms: C_13  and  C_14
REMARK    9  A    between atoms: C_15  and  C_16
REMARK   10  A    between atoms: N_21  and  C_22
REMARK                            x       y       z     vdW  Elec       q    Type
REMARK                         _______ _______ _______ _____ _____    ______ ____
ROOT
ATOM      1  C   UNL     1       3.599   3.646  17.224  0.00  0.00    +0.000 A 
ATOM      2  N   UNL     1       3.012   4.619  17.971  0.00  0.00    +0.000 NA
ATOM      3  C   UNL     1       3.564   5.862  18.012  0.00  0.00    +0.000 A 
ATOM      4  N   UNL     1       2.952   6.888  18.684  0.00  0.00    +0.000 N 
ATOM      5  C   UNL     1       4.773   6.046  17.332  0.00  0.00    +0.000 A 
ATOM      6  C   UNL     1       5.753   7.049  17.178  0.00  0.00    +0.000 A 
ATOM      7  N   UNL     1       6.730   6.703  16.330  0.00  0.00    +0.000 NA
ATOM      8  N   UNL     1       6.357   5.467  15.924  0.00  0.00    +0.000 N 
ATOM      9  C   UNL     1       7.076   4.798  14.873  0.00  0.00    +0.000 C 
ATOM     10  C   UNL     1       5.237   4.997  16.560  0.00  0.00    +0.000 A 
ATOM     11  N   UNL     1       4.687   3.783  16.440  0.00  0.00    +0.000 NA
ATOM     12  H   UNL     1       3.337   7.824  18.643  0.00  0.00    +0.000 HD
ENDROOT
BRANCH   1  13
ATOM     13  C   UNL     1       2.995   2.264  17.294  0.00  0.00    +0.000 C 
BRANCH  13  15
ATOM     14  C   UNL     1       4.134   1.962  19.529  0.00  0.00    +0.000 C 
ATOM     15  C   UNL     1       2.843   1.796  18.746  0.00  0.00    +0.000 C 
ENDBRANCH  13  15
ENDBRANCH   1  13
BRANCH   4  16
ATOM     16  C   UNL     1       1.854   6.715  19.633  0.00  0.00    +0.000 C 
BRANCH  16  17
ATOM     17  C   UNL     1       1.389   8.047  20.231  0.00  0.00    +0.000 A 
ATOM     18  N   UNL     1       0.973   8.195  21.477  0.00  0.00    +0.000 NA
ATOM     19  C   UNL     1       0.504   9.484  21.679  0.00  0.00    +0.000 A 
ATOM     20  C   UNL     1      -0.044   9.835  23.016  0.00  0.00    +0.000 C 
ATOM     21  C   UNL     1       0.578  10.311  20.569  0.00  0.00    +0.000 A 
ATOM     22  C   UNL     1       0.123  11.718  20.396  0.00  0.00    +0.000 C 
ATOM     23  S   UNL     1       1.311   9.470  19.267  0.00  0.00    +0.000 S 
ENDBRANCH  16  17
BRANCH  16  24
ATOM     24  C   UNL     1       2.287   5.759  20.772  0.00  0.00    +0.000 C 
ATOM     25  C   UNL     1       1.468   4.472  20.868  0.00  0.00    +0.000 C 
ENDBRANCH  16  24
ENDBRANCH   4  16
TORSDOF 5
ENDMDL
MODEL 7
REMARK VINA RESULT:      -6.6      2.941      7.440
REMARK  Name = 
REMARK  10 active torsions:
REMARK  status: ('A' for Active; 'I' for Inactive)
REMARK    1  A    between atoms: C_1  and  C_2
REMARK    2  A    between atoms: C_2  and  C_3
REMARK    3  A    between atoms: C_3  and  C_4
REMARK    4  A    between atoms: N_7  and  C_8
REMARK    5  A    between atoms: C_8  and  C_9
REMARK    6  A    between atoms: C_8  and  C_11
REMARK    7  A    between atoms: C_9  and  C_10
REMARK    8  A    between atoms: C_13  and  C_14
REMARK    9  A    between atoms: C_15  and  C_16
REMARK   10  A    between atoms: N_21  and  C_22
REMARK                            x       y       z     vdW  Elec       q    Type
REMARK                         _______ _______ _______ _____ _____    ______ ____
ROOT
ATOM      1  C   UNL     1       3.366   4.021  17.235  0.00  0.00    +0.000 A 
ATOM      2  N   UNL     1       2.849   5.122  17.842  0.00  0.00    +0.000 NA
ATOM      3  C   UNL     1       3.543   6.293  17.821  0.00  0.00    +0.000 A 
ATOM      4  N   UNL     1       3.013   7.442  18.348  0.00  0.00    +0.000 N 
ATOM      5  C   UNL     1       4.812   6.271  17.231  0.00  0.00    +0.000 A 
ATOM      6  C   UNL     1       5.914   7.136  17.073  0.00  0.00    +0.000 A 
ATOM      7  N   UNL     1       6.901   6.602  16.344  0.00  0.00    +0.000 NA
ATOM      8  N   UNL     1       6.412   5.383  16.017  0.00  0.00    +0.000 N 
ATOM      9  C   UNL     1       7.120   4.538  15.092  0.00  0.00    +0.000 C 
ATOM     10  C   UNL     1       5.200   5.106  16.595  0.00  0.00    +0.000 A 
ATOM     11  N   UNL     1       4.518   3.958  16.535  0.00  0.00    +0.000 NA
ATOM     12  H   UNL     1       3.510   8.319  18.258  0.00  0.00    +0.000 HD
ENDROOT
BRANCH   1  13
ATOM     13  C   UNL     1       2.597   2.730  17.373  0.00  0.00    +0.000 C 
BRANCH  13  15
ATOM     14  C   UNL     1       3.709   2.279  19.597  0.00  0.00    +0.000 C 
ATOM     15  C   UNL     1       3.363   1.714  18.229  0.00  0.00    +0.000 C 
ENDBRANCH  13  15
ENDBRANCH   1  13
BRANCH   4  16
ATOM     16  C   UNL     1       1.835   7.486  19.213  0.00  0.00    +0.000 C 
BRANCH  16  17
ATOM     17  C   UNL     1       1.362   8.920  19.474  0.00  0.00    +0.000 A 
ATOM     18  N   UNL     1       1.626   9.944  18.681  0.00  0.00    +0.000 NA
ATOM     19  C   UNL     1       1.170  11.124  19.249  0.00  0.00    +0.000 A 
ATOM     20  C   UNL     1       1.409  12.398  18.520  0.00  0.00    +0.000 C 
ATOM     21  C   UNL     1       0.550  10.976  20.479  0.00  0.00    +0.000 A 
ATOM     22  C   UNL     1      -0.005  12.008  21.399  0.00  0.00    +0.000 C 
ATOM     23  S   UNL     1       0.482   9.315  20.899  0.00  0.00    +0.000 S 
ENDBRANCH  16  17
BRANCH  16  24
ATOM     24  C   UNL     1       2.144   6.789  20.561  0.00  0.00    +0.000 C 
ATOM     25  C   UNL     1       1.469   5.431  20.743  0.00  0.00    +0.000 C 
ENDBRANCH  16  24
ENDBRANCH   4  16
TORSDOF 5
ENDMDL
MODEL 8
REMARK VINA RESULT:      -6.6      2.008      4.196
REMARK  Name = 
REMARK  10 active torsions:
REMARK  status: ('A' for Active; 'I' for Inactive)
REMARK    1  A    between atoms: C_1  and  C_2
REMARK    2  A    between atoms: C_2  and  C_3
REMARK    3  A    between atoms: C_3  and  C_4
REMARK    4  A    between atoms: N_7  and  C_8
REMARK    5  A    between atoms: C_8  and  C_9
REMARK    6  A    between atoms: C_8  and  C_11
REMARK    7  A    between atoms: C_9  and  C_10
REMARK    8  A    between atoms: C_13  and  C_14
REMARK    9  A    between atoms: C_15  and  C_16
REMARK   10  A    between atoms: N_21  and  C_22
REMARK                            x       y       z     vdW  Elec       q    Type
REMARK                         _______ _______ _______ _____ _____    ______ ____
ROOT
ATOM      1  C   UNL     1       2.399   5.295  20.468  0.00  0.00    +0.000 A 
ATOM      2  N   UNL     1       3.153   5.030  19.368  0.00  0.00    +0.000 NA
ATOM      3  C   UNL     1       3.307   5.985  18.410  0.00  0.00    +0.000 A 
ATOM      4  N   UNL     1       4.129   5.782  17.332  0.00  0.00    +0.000 N 
ATOM      5  C   UNL     1       2.599   7.180  18.582  0.00  0.00    +0.000 A 
ATOM      6  C   UNL     1       2.339   8.362  17.858  0.00  0.00    +0.000 A 
ATOM      7  N   UNL     1       1.605   9.247  18.544  0.00  0.00    +0.000 NA
ATOM      8  N   UNL     1       1.411   8.626  19.731  0.00  0.00    +0.000 N 
ATOM      9  C   UNL     1       0.787   9.323  20.824  0.00  0.00    +0.000 C 
ATOM     10  C   UNL     1       1.916   7.352  19.771  0.00  0.00    +0.000 A 
ATOM     11  N   UNL     1       1.798   6.465  20.765  0.00  0.00    +0.000 NA
ATOM     12  H   UNL     1       4.290   6.529  16.668  0.00  0.00    +0.000 HD
ENDROOT
BRANCH   1  13
ATOM     13  C   UNL     1       2.188   4.167  21.448  0.00  0.00    +0.000 C 
BRANCH  13  15
ATOM     14  C   UNL     1       0.803   3.383  19.485  0.00  0.00    +0.000 C 
ATOM     15  C   UNL     1       1.089   3.211  20.967  0.00  0.00    +0.000 C 
ENDBRANCH  13  15
ENDBRANCH   1  13
BRANCH   4  16
ATOM     16  C   UNL     1       4.674   4.484  16.943  0.00  0.00    +0.000 C 
BRANCH  16  17
ATOM     17  C   UNL     1       5.427   4.547  15.609  0.00  0.00    +0.000 A 
ATOM     18  N   UNL     1       5.113   3.829  14.545  0.00  0.00    +0.000 NA
ATOM     19  C   UNL     1       6.052   4.015  13.543  0.00  0.00    +0.000 A 
ATOM     20  C   UNL     1       5.890   3.258  12.273  0.00  0.00    +0.000 C 
ATOM     21  C   UNL     1       7.077   4.892  13.861  0.00  0.00    +0.000 A 
ATOM     22  C   UNL     1       8.275   5.287  13.069  0.00  0.00    +0.000 C 
ATOM     23  S   UNL     1       6.819   5.542  15.426  0.00  0.00    +0.000 S 
ENDBRANCH  16  17
BRANCH  16  24
ATOM     24  C   UNL     1       3.534   3.440  16.844  0.00  0.00    +0.000 C 
ATOM     25  C   UNL     1       3.776   2.157  17.637  0.00  0.00    +0.000 C 
ENDBRANCH  16  24
ENDBRANCH   4  16
TORSDOF 5
ENDMDL
MODEL 9
REMARK VINA RESULT:      -6.6      3.549      7.832
REMARK  Name = 
REMARK  10 active torsions:
REMARK  status: ('A' for Active; 'I' for Inactive)
REMARK    1  A    between atoms: C_1  and  C_2
REMARK    2  A    between atoms: C_2  and  C_3
REMARK    3  A    between atoms: C_3  and  C_4
REMARK    4  A    between atoms: N_7  and  C_8
REMARK    5  A    between atoms: C_8  and  C_9
REMARK    6  A    between atoms: C_8  and  C_11
REMARK    7  A    between atoms: C_9  and  C_10
REMARK    8  A    between atoms: C_13  and  C_14
REMARK    9  A    between atoms: C_15  and  C_16
REMARK   10  A    between atoms: N_21  and  C_22
REMARK                            x       y       z     vdW  Elec       q    Type
REMARK                         _______ _______ _______ _____ _____    ______ ____
ROOT
ATOM      1  C   UNL     1       4.197   6.421  17.810  0.00  0.00    +0.000 A 
ATOM      2  N   UNL     1       3.367   7.406  18.245  0.00  0.00    +0.000 NA
ATOM      3  C   UNL     1       2.472   7.144  19.236  0.00  0.00    +0.000 A 
ATOM      4  N   UNL     1       1.681   8.135  19.758  0.00  0.00    +0.000 N 
ATOM      5  C   UNL     1       2.403   5.826  19.701  0.00  0.00    +0.000 A 
ATOM      6  C   UNL     1       1.607   5.059  20.576  0.00  0.00    +0.000 A 
ATOM      7  N   UNL     1       2.031   3.795  20.701  0.00  0.00    +0.000 NA
ATOM      8  N   UNL     1       3.127   3.762  19.906  0.00  0.00    +0.000 N 
ATOM      9  C   UNL     1       3.976   2.601  19.885  0.00  0.00    +0.000 C 
ATOM     10  C   UNL     1       3.341   4.930  19.222  0.00  0.00    +0.000 A 
ATOM     11  N   UNL     1       4.280   5.167  18.299  0.00  0.00    +0.000 NA
ATOM     12  H   UNL     1       1.074   7.939  20.544  0.00  0.00    +0.000 HD
ENDROOT
BRANCH   1  13
ATOM     13  C   UNL     1       5.102   6.745  16.646  0.00  0.00    +0.000 C 
BRANCH  13  15
ATOM     14  C   UNL     1       7.409   7.358  17.475  0.00  0.00    +0.000 C 
ATOM     15  C   UNL     1       6.534   6.257  16.901  0.00  0.00    +0.000 C 
ENDBRANCH  13  15
ENDBRANCH   1  13
BRANCH   4  16
ATOM     16  C   UNL     1       1.497   9.450  19.149  0.00  0.00    +0.000 C 
BRANCH  16  17
ATOM     17  C   UNL     1       0.940  10.476  20.142  0.00  0.00    +0.000 A 
ATOM     18  N   UNL     1       0.168  10.169  21.171  0.00  0.00    +0.000 NA
ATOM     19  C   UNL     1      -0.272  11.321  21.804  0.00  0.00    +0.000 A 
ATOM     20  C   UNL     1      -1.188  11.181  22.968  0.00  0.00    +0.000 C 
ATOM     21  C   UNL     1       0.183  12.504  21.244  0.00  0.00    +0.000 A 
ATOM     22  C   UNL     1      -0.122  13.914  21.613  0.00  0.00    +0.000 C 
ATOM     23  S   UNL     1       1.238  12.158  19.937  0.00  0.00    +0.000 S 
ENDBRANCH  16  17
BRANCH  16  24
ATOM     24  C   UNL     1       0.548   9.341  17.931  0.00  0.00    +0.000 C 
ATOM     25  C   UNL     1      -0.800  10.038  18.110  0.00  0.00    +0.000 C 
ENDBRANCH  16  24
ENDBRANCH   4  16
TORSDOF 5
ENDMDL
