MODEL 1
REMARK VINA RESULT:      -6.1      0.000      0.000
REMARK  Name = 
REMARK  10 active torsions:
REMARK  status: ('A' for Active; 'I' for Inactive)
REMARK    1  A    between atoms: C_1  and  C_2
REMARK    2  A    between atoms: C_2  and  N_3
REMARK    3  A    between atoms: N_3  and  C_4
REMARK    4  A    between atoms: C_10  and  C_11
REMARK    5  A    between atoms: N_14  and  C_15
REMARK    6  A    between atoms: C_15  and  O_16
REMARK    7  A    between atoms: O_16  and  C_17
REMARK    8  A    between atoms: C_17  and  C_18
REMARK    9  A    between atoms: C_18  and  O_19
REMARK   10  A    between atoms: O_19  and  C_20
REMARK                            x       y       z     vdW  Elec       q    Type
REMARK                         _______ _______ _______ _____ _____    ______ ____
ROOT
ATOM      1  C   UNL     1       2.853   5.840  19.630  0.00  0.00    +0.000 A 
ATOM      2  N   UNL     1       2.262   7.039  19.423  0.00  0.00    +0.000 NA
ATOM      3  C   UNL     1       2.607   7.754  18.336  0.00  0.00    +0.000 A 
ATOM      4  N   UNL     1       3.465   7.419  17.354  0.00  0.00    +0.000 NA
ATOM      5  C   UNL     1       3.998   6.198  17.548  0.00  0.00    +0.000 A 
ATOM      6  C   UNL     1       3.746   5.369  18.643  0.00  0.00    +0.000 A 
ATOM      7  C   UNL     1       4.518   4.195  18.439  0.00  0.00    +0.000 A 
ATOM      8  C   UNL     1       5.202   4.324  17.252  0.00  0.00    +0.000 A 
ATOM      9  N   UNL     1       4.882   5.548  16.708  0.00  0.00    +0.000 N 
ENDROOT
BRANCH   1  10
ATOM     10  N   UNL     1       2.604   5.155  20.818  0.00  0.00    +0.000 N 
ATOM     11  H   UNL     1       3.422   4.780  21.280  0.00  0.00    +0.000 HD
BRANCH  10  13
ATOM     12  C   UNL     1       1.784   3.025  21.632  0.00  0.00    +0.000 C 
ATOM     13  C   UNL     1       1.451   4.267  20.819  0.00  0.00    +0.000 C 
ENDBRANCH  10  13
ENDBRANCH   1  10
BRANCH   7  14
ATOM     14  C   UNL     1       4.569   3.050  19.295  0.00  0.00    +0.000 C 
ATOM     15  N   UNL     1       4.669   2.128  19.982  0.00  0.00    +0.000 NA
ENDBRANCH   7  14
BRANCH   9  16
ATOM     16  C   UNL     1       5.459   6.038  15.460  0.00  0.00    +0.000 C 
BRANCH  16  17
ATOM     17  O   UNL     1       6.821   5.607  15.356  0.00  0.00    +0.000 OA
BRANCH  17  18
ATOM     18  C   UNL     1       6.965   4.557  14.391  0.00  0.00    +0.000 C 
BRANCH  18  19
ATOM     19  C   UNL     1       7.656   5.121  13.156  0.00  0.00    +0.000 C 
BRANCH  19  20
ATOM     20  O   UNL     1       7.285   4.361  12.009  0.00  0.00    +0.000 OA
ATOM     21  C   UNL     1       6.261   3.426  12.327  0.00  0.00    +0.000 C 
ENDBRANCH  19  20
ENDBRANCH  18  19
ENDBRANCH  17  18
ENDBRANCH  16  17
ENDBRANCH   9  16
TORSDOF 8
ENDMDL
MODEL 2
REMARK VINA RESULT:      -6.1      2.230      3.397
REMARK  Name = 
REMARK  10 active torsions:
REMARK  status: ('A' for Active; 'I' for Inactive)
REMARK    1  A    between atoms: C_1  and  C_2
REMARK    2  A    between atoms: C_2  and  N_3
REMARK    3  A    between atoms: N_3  and  C_4
REMARK    4  A    between atoms: C_10  and  C_11
REMARK    5  A    between atoms: N_14  and  C_15
REMARK    6  A    between atoms: C_15  and  O_16
REMARK    7  A    between atoms: O_16  and  C_17
REMARK    8  A    between atoms: C_17  and  C_18
REMARK    9  A    between atoms: C_18  and  O_19
REMARK   10  A    between atoms: O_19  and  C_20
REMARK                            x       y       z     vdW  Elec       q    Type
REMARK                         _______ _______ _______ _____ _____    ______ ____
ROOT
ATOM      1  C   UNL     1       2.202   7.093  19.739  0.00  0.00    +0.000 A 
ATOM      2  N   UNL     1       2.217   8.190  18.947  0.00  0.00    +0.000 NA
ATOM      3  C   UNL     1       2.904   8.147  17.791  0.00  0.00    +0.000 A 
ATOM      4  N   UNL     1       3.577   7.111  17.258  0.00  0.00    +0.000 NA
ATOM      5  C   UNL     1       3.501   6.011  18.031  0.00  0.00    +0.000 A 
ATOM      6  C   UNL     1       2.847   5.931  19.262  0.00  0.00    +0.000 A 
ATOM      7  C   UNL     1       3.027   4.600  19.723  0.00  0.00    +0.000 A 
ATOM      8  C   UNL     1       3.763   3.911  18.785  0.00  0.00    +0.000 A 
ATOM      9  N   UNL     1       4.050   4.774  17.752  0.00  0.00    +0.000 N 
ENDROOT
BRANCH   1  10
ATOM     10  N   UNL     1       1.609   7.170  20.998  0.00  0.00    +0.000 N 
ATOM     11  H   UNL     1       0.908   6.466  21.189  0.00  0.00    +0.000 HD
BRANCH  10  13
ATOM     12  C   UNL     1      -0.238   8.582  21.681  0.00  0.00    +0.000 C 
ATOM     13  C   UNL     1       1.266   8.505  21.466  0.00  0.00    +0.000 C 
ENDBRANCH  10  13
ENDBRANCH   1  10
BRANCH   7  14
ATOM     14  C   UNL     1       2.517   4.042  20.937  0.00  0.00    +0.000 C 
ATOM     15  N   UNL     1       2.152   3.557  21.918  0.00  0.00    +0.000 NA
ENDBRANCH   7  14
BRANCH   9  16
ATOM     16  C   UNL     1       4.853   4.390  16.595  0.00  0.00    +0.000 C 
BRANCH  16  17
ATOM     17  O   UNL     1       6.240   4.375  16.954  0.00  0.00    +0.000 OA
BRANCH  17  18
ATOM     18  C   UNL     1       6.928   5.520  16.436  0.00  0.00    +0.000 C 
BRANCH  18  19
ATOM     19  C   UNL     1       7.317   6.423  17.599  0.00  0.00    +0.000 C 
BRANCH  19  20
ATOM     20  O   UNL     1       7.034   7.781  17.269  0.00  0.00    +0.000 OA
ATOM     21  C   UNL     1       8.035   8.649  17.786  0.00  0.00    +0.000 C 
ENDBRANCH  19  20
ENDBRANCH  18  19
ENDBRANCH  17  18
ENDBRANCH  16  17
ENDBRANCH   9  16
TORSDOF 8
ENDMDL
MODEL 3
REMARK VINA RESULT:      -6.0      1.872      2.959
REMARK  Name = 
REMARK  10 active torsions:
REMARK  status: ('A' for Active; 'I' for Inactive)
REMARK    1  A    between atoms: C_1  and  C_2
REMARK    2  A    between atoms: C_2  and  N_3
REMARK    3  A    between atoms: N_3  and  C_4
REMARK    4  A    between atoms: C_10  and  C_11
REMARK    5  A    between atoms: N_14  and  C_15
REMARK    6  A    between atoms: C_15  and  O_16
REMARK    7  A    between atoms: O_16  and  C_17
REMARK    8  A    between atoms: C_17  and  C_18
REMARK    9  A    between atoms: C_18  and  O_19
REMARK   10  A    between atoms: O_19  and  C_20
REMARK                            x       y       z     vdW  Elec       q    Type
REMARK                         _______ _______ _______ _____ _____    ______ ____
ROOT
ATOM      1  C   UNL     1       2.278   6.763  19.734  0.00  0.00    +0.000 A 
ATOM      2  N   UNL     1       2.380   7.815  18.889  0.00  0.00    +0.000 NA
ATOM      3  C   UNL     1       3.178   7.707  17.811  0.00  0.00    +0.000 A 
ATOM      4  N   UNL     1       3.895   6.642  17.406  0.00  0.00    +0.000 NA
ATOM      5  C   UNL     1       3.735   5.587  18.227  0.00  0.00    +0.000 A 
ATOM      6  C   UNL     1       2.960   5.575  19.388  0.00  0.00    +0.000 A 
ATOM      7  C   UNL     1       3.085   4.272  19.938  0.00  0.00    +0.000 A 
ATOM      8  C   UNL     1       3.906   3.531  19.118  0.00  0.00    +0.000 A 
ATOM      9  N   UNL     1       4.301   4.336  18.073  0.00  0.00    +0.000 N 
ENDROOT
BRANCH   1  10
ATOM     10  N   UNL     1       1.562   6.910  20.921  0.00  0.00    +0.000 N 
ATOM     11  H   UNL     1       0.798   6.260  21.047  0.00  0.00    +0.000 HD
BRANCH  10  13
ATOM     12  C   UNL     1      -0.220   8.389  21.632  0.00  0.00    +0.000 C 
ATOM     13  C   UNL     1       1.266   8.276  21.328  0.00  0.00    +0.000 C 
ENDBRANCH  10  13
ENDBRANCH   1  10
BRANCH   7  14
ATOM     14  C   UNL     1       2.452   3.783  21.123  0.00  0.00    +0.000 C 
ATOM     15  N   UNL     1       1.990   3.359  22.092  0.00  0.00    +0.000 NA
ENDBRANCH   7  14
BRANCH   9  16
ATOM     16  C   UNL     1       5.214   3.888  17.026  0.00  0.00    +0.000 C 
BRANCH  16  17
ATOM     17  O   UNL     1       4.751   4.352  15.752  0.00  0.00    +0.000 OA
BRANCH  17  18
ATOM     18  C   UNL     1       5.810   4.956  14.998  0.00  0.00    +0.000 C 
BRANCH  18  19
ATOM     19  C   UNL     1       7.063   4.996  15.865  0.00  0.00    +0.000 C 
BRANCH  19  20
ATOM     20  O   UNL     1       7.492   6.345  16.026  0.00  0.00    +0.000 OA
ATOM     21  C   UNL     1       7.443   6.734  17.394  0.00  0.00    +0.000 C 
ENDBRANCH  19  20
ENDBRANCH  18  19
ENDBRANCH  17  18
ENDBRANCH  16  17
ENDBRANCH   9  16
TORSDOF 8
ENDMDL
MODEL 4
REMARK VINA RESULT:      -6.0      1.399      2.865
REMARK  Name = 
REMARK  10 active torsions:
REMARK  status: ('A' for Active; 'I' for Inactive)
REMARK    1  A    between atoms: C_1  and  C_2
REMARK    2  A    between atoms: C_2  and  N_3
REMARK    3  A    between atoms: N_3  and  C_4
REMARK    4  A    between atoms: C_10  and  C_11
REMARK    5  A    between atoms: N_14  and  C_15
REMARK    6  A    between atoms: C_15  and  O_16
REMARK    7  A    between atoms: O_16  and  C_17
REMARK    8  A    between atoms: C_17  and  C_18
REMARK    9  A    between atoms: C_18  and  O_19
REMARK   10  A    between atoms: O_19  and  C_20
REMARK                            x       y       z     vdW  Elec       q    Type
REMARK                         _______ _______ _______ _____ _____    ______ ____
ROOT
ATOM      1  C   UNL     1       2.371   4.083  18.986  0.00  0.00    +0.000 A 
ATOM      2  N   UNL     1       2.691   2.855  18.515  0.00  0.00    +0.000 NA
ATOM      3  C   UNL     1       3.523   2.760  17.461  0.00  0.00    +0.000 A 
ATOM      4  N   UNL     1       4.148   3.751  16.799  0.00  0.00    +0.000 NA
ATOM      5  C   UNL     1       3.864   4.960  17.319  0.00  0.00    +0.000 A 
ATOM      6  C   UNL     1       2.999   5.198  18.389  0.00  0.00    +0.000 A 
ATOM      7  C   UNL     1       2.994   6.604  18.592  0.00  0.00    +0.000 A 
ATOM      8  C   UNL     1       3.839   7.179  17.671  0.00  0.00    +0.000 A 
ATOM      9  N   UNL     1       4.371   6.174  16.895  0.00  0.00    +0.000 N 
ENDROOT
BRANCH   1  10
ATOM     10  N   UNL     1       1.408   4.198  19.987  0.00  0.00    +0.000 N 
ATOM     11  H   UNL     1       0.749   4.956  19.866  0.00  0.00    +0.000 HD
BRANCH  10  13
ATOM     12  C   UNL     1       1.559   2.596  21.798  0.00  0.00    +0.000 C 
ATOM     13  C   UNL     1       1.876   4.016  21.353  0.00  0.00    +0.000 C 
ENDBRANCH  10  13
ENDBRANCH   1  10
BRANCH   7  14
ATOM     14  C   UNL     1       2.264   7.317  19.594  0.00  0.00    +0.000 C 
ATOM     15  N   UNL     1       1.726   7.916  20.420  0.00  0.00    +0.000 NA
ENDBRANCH   7  14
BRANCH   9  16
ATOM     16  C   UNL     1       5.285   6.425  15.785  0.00  0.00    +0.000 C 
BRANCH  16  17
ATOM     17  O   UNL     1       6.618   6.063  16.167  0.00  0.00    +0.000 OA
BRANCH  17  18
ATOM     18  C   UNL     1       7.101   4.955  15.397  0.00  0.00    +0.000 C 
BRANCH  18  19
ATOM     19  C   UNL     1       6.230   4.808  14.156  0.00  0.00    +0.000 C 
BRANCH  19  20
ATOM     20  O   UNL     1       6.311   3.471  13.667  0.00  0.00    +0.000 OA
ATOM     21  C   UNL     1       6.465   3.455  12.253  0.00  0.00    +0.000 C 
ENDBRANCH  19  20
ENDBRANCH  18  19
ENDBRANCH  17  18
ENDBRANCH  16  17
ENDBRANCH   9  16
TORSDOF 8
ENDMDL
MODEL 5
REMARK VINA RESULT:      -6.0      1.144      1.268
REMARK  Name = 
REMARK  10 active torsions:
REMARK  status: ('A' for Active; 'I' for Inactive)
REMARK    1  A    between atoms: C_1  and  C_2
REMARK    2  A    between atoms: C_2  and  N_3
REMARK    3  A    between atoms: N_3  and  C_4
REMARK    4  A    between atoms: C_10  and  C_11
REMARK    5  A    between atoms: N_14  and  C_15
REMARK    6  A    between atoms: C_15  and  O_16
REMARK    7  A    between atoms: O_16  and  C_17
REMARK    8  A    between atoms: C_17  and  C_18
REMARK    9  A    between atoms: C_18  and  O_19
REMARK   10  A    between atoms: O_19  and  C_20
REMARK                            x       y       z     vdW  Elec       q    Type
REMARK                         _______ _______ _______ _____ _____    ______ ____
ROOT
ATOM      1  C   UNL     1       2.765   5.323  19.457  0.00  0.00    +0.000 A 
ATOM      2  N   UNL     1       2.142   6.436  19.007  0.00  0.00    +0.000 NA
ATOM      3  C   UNL     1       2.791   7.242  18.147  0.00  0.00    +0.000 A 
ATOM      4  N   UNL     1       4.013   7.075  17.608  0.00  0.00    +0.000 NA
ATOM      5  C   UNL     1       4.593   5.933  18.022  0.00  0.00    +0.000 A 
ATOM      6  C   UNL     1       4.041   5.027  18.929  0.00  0.00    +0.000 A 
ATOM      7  C   UNL     1       4.991   3.983  19.078  0.00  0.00    +0.000 A 
ATOM      8  C   UNL     1       6.073   4.260  18.274  0.00  0.00    +0.000 A 
ATOM      9  N   UNL     1       5.828   5.452  17.628  0.00  0.00    +0.000 N 
ENDROOT
BRANCH   1  10
ATOM     10  N   UNL     1       2.156   4.556  20.449  0.00  0.00    +0.000 N 
ATOM     11  H   UNL     1       2.781   3.966  20.983  0.00  0.00    +0.000 HD
BRANCH  10  13
ATOM     12  C   UNL     1       1.162   2.801  19.106  0.00  0.00    +0.000 C 
ATOM     13  C   UNL     1       0.892   3.929  20.091  0.00  0.00    +0.000 C 
ENDBRANCH  10  13
ENDBRANCH   1  10
BRANCH   7  14
ATOM     14  C   UNL     1       4.856   2.818  19.897  0.00  0.00    +0.000 C 
ATOM     15  N   UNL     1       4.786   1.902  20.595  0.00  0.00    +0.000 NA
ENDBRANCH   7  14
BRANCH   9  16
ATOM     16  C   UNL     1       6.784   6.075  16.719  0.00  0.00    +0.000 C 
BRANCH  16  17
ATOM     17  O   UNL     1       7.496   5.061  15.999  0.00  0.00    +0.000 OA
BRANCH  17  18
ATOM     18  C   UNL     1       7.070   4.992  14.632  0.00  0.00    +0.000 C 
BRANCH  18  19
ATOM     19  C   UNL     1       6.202   3.753  14.454  0.00  0.00    +0.000 C 
BRANCH  19  20
ATOM     20  O   UNL     1       5.405   3.890  13.280  0.00  0.00    +0.000 OA
ATOM     21  C   UNL     1       6.046   3.293  12.159  0.00  0.00    +0.000 C 
ENDBRANCH  19  20
ENDBRANCH  18  19
ENDBRANCH  17  18
ENDBRANCH  16  17
ENDBRANCH   9  16
TORSDOF 8
ENDMDL
MODEL 6
REMARK VINA RESULT:      -6.0      2.057      3.714
REMARK  Name = 
REMARK  10 active torsions:
REMARK  status: ('A' for Active; 'I' for Inactive)
REMARK    1  A    between atoms: C_1  and  C_2
REMARK    2  A    between atoms: C_2  and  N_3
REMARK    3  A    between atoms: N_3  and  C_4
REMARK    4  A    between atoms: C_10  and  C_11
REMARK    5  A    between atoms: N_14  and  C_15
REMARK    6  A    between atoms: C_15  and  O_16
REMARK    7  A    between atoms: O_16  and  C_17
REMARK    8  A    between atoms: C_17  and  C_18
REMARK    9  A    between atoms: C_18  and  O_19
REMARK   10  A    between atoms: O_19  and  C_20
REMARK                            x       y       z     vdW  Elec       q    Type
REMARK                         _______ _______ _______ _____ _____    ______ ____
ROOT
ATOM      1  C   UNL     1       2.330   4.084  19.059  0.00  0.00    +0.000 A 
ATOM      2  N   UNL     1       2.633   2.863  18.562  0.00  0.00    +0.000 NA
ATOM      3  C   UNL     1       3.428   2.781  17.480  0.00  0.00    +0.000 A 
ATOM      4  N   UNL     1       4.032   3.780  16.810  0.00  0.00    +0.000 NA
ATOM      5  C   UNL     1       3.767   4.983  17.354  0.00  0.00    +0.000 A 
ATOM      6  C   UNL     1       2.939   5.207  18.456  0.00  0.00    +0.000 A 
ATOM      7  C   UNL     1       2.942   6.610  18.677  0.00  0.00    +0.000 A 
ATOM      8  C   UNL     1       3.757   7.197  17.736  0.00  0.00    +0.000 A 
ATOM      9  N   UNL     1       4.261   6.201  16.929  0.00  0.00    +0.000 N 
ENDROOT
BRANCH   1  10
ATOM     10  N   UNL     1       1.402   4.188  20.094  0.00  0.00    +0.000 N 
ATOM     11  H   UNL     1       0.764   4.970  20.024  0.00  0.00    +0.000 HD
BRANCH  10  13
ATOM     12  C   UNL     1       1.475   2.541  21.869  0.00  0.00    +0.000 C 
ATOM     13  C   UNL     1       1.904   3.935  21.436  0.00  0.00    +0.000 C 
ENDBRANCH  10  13
ENDBRANCH   1  10
BRANCH   7  14
ATOM     14  C   UNL     1       2.247   7.310  19.712  0.00  0.00    +0.000 C 
ATOM     15  N   UNL     1       1.653   7.828  20.555  0.00  0.00    +0.000 NA
ENDBRANCH   7  14
BRANCH   9  16
ATOM     16  C   UNL     1       5.137   6.466  15.793  0.00  0.00    +0.000 C 
BRANCH  16  17
ATOM     17  O   UNL     1       6.500   6.499  16.233  0.00  0.00    +0.000 OA
BRANCH  17  18
ATOM     18  C   UNL     1       7.156   5.246  16.000  0.00  0.00    +0.000 C 
BRANCH  18  19
ATOM     19  C   UNL     1       7.482   4.609  17.345  0.00  0.00    +0.000 C 
BRANCH  19  20
ATOM     20  O   UNL     1       7.013   5.447  18.399  0.00  0.00    +0.000 OA
ATOM     21  C   UNL     1       8.082   5.839  19.252  0.00  0.00    +0.000 C 
ENDBRANCH  19  20
ENDBRANCH  18  19
ENDBRANCH  17  18
ENDBRANCH  16  17
ENDBRANCH   9  16
TORSDOF 8
ENDMDL
MODEL 7
REMARK VINA RESULT:      -5.9      4.166      7.160
REMARK  Name = 
REMARK  10 active torsions:
REMARK  status: ('A' for Active; 'I' for Inactive)
REMARK    1  A    between atoms: C_1  and  C_2
REMARK    2  A    between atoms: C_2  and  N_3
REMARK    3  A    between atoms: N_3  and  C_4
REMARK    4  A    between atoms: C_10  and  C_11
REMARK    5  A    between atoms: N_14  and  C_15
REMARK    6  A    between atoms: C_15  and  O_16
REMARK    7  A    between atoms: O_16  and  C_17
REMARK    8  A    between atoms: C_17  and  C_18
REMARK    9  A    between atoms: C_18  and  O_19
REMARK   10  A    between atoms: O_19  and  C_20
REMARK                            x       y       z     vdW  Elec       q    Type
REMARK                         _______ _______ _______ _____ _____    ______ ____
ROOT
ATOM      1  C   UNL     1       4.076   4.048  18.987  0.00  0.00    +0.000 A 
ATOM      2  N   UNL     1       4.842   4.625  18.032  0.00  0.00    +0.000 NA
ATOM      3  C   UNL     1       4.646   5.922  17.737  0.00  0.00    +0.000 A 
ATOM      4  N   UNL     1       3.786   6.787  18.307  0.00  0.00    +0.000 NA
ATOM      5  C   UNL     1       3.073   6.210  19.294  0.00  0.00    +0.000 A 
ATOM      6  C   UNL     1       3.161   4.872  19.679  0.00  0.00    +0.000 A 
ATOM      7  C   UNL     1       2.235   4.701  20.742  0.00  0.00    +0.000 A 
ATOM      8  C   UNL     1       1.621   5.909  20.982  0.00  0.00    +0.000 A 
ATOM      9  N   UNL     1       2.136   6.831  20.097  0.00  0.00    +0.000 N 
ENDROOT
BRANCH   1  10
ATOM     10  N   UNL     1       4.178   2.675  19.205  0.00  0.00    +0.000 N 
ATOM     11  H   UNL     1       5.061   2.364  19.589  0.00  0.00    +0.000 HD
BRANCH  10  13
ATOM     12  C   UNL     1       2.122   1.944  18.153  0.00  0.00    +0.000 C 
ATOM     13  C   UNL     1       3.638   1.817  18.161  0.00  0.00    +0.000 C 
ENDBRANCH  10  13
ENDBRANCH   1  10
BRANCH   7  14
ATOM     14  C   UNL     1       1.986   3.495  21.470  0.00  0.00    +0.000 C 
ATOM     15  N   UNL     1       1.842   2.519  22.067  0.00  0.00    +0.000 NA
ENDBRANCH   7  14
BRANCH   9  16
ATOM     16  C   UNL     1       1.684   8.217  20.041  0.00  0.00    +0.000 C 
BRANCH  16  17
ATOM     17  O   UNL     1       1.317   8.658  21.354  0.00  0.00    +0.000 OA
BRANCH  17  18
ATOM     18  C   UNL     1      -0.094   8.894  21.452  0.00  0.00    +0.000 C 
BRANCH  18  19
ATOM     19  C   UNL     1      -0.409   9.386  22.859  0.00  0.00    +0.000 C 
BRANCH  19  20
ATOM     20  O   UNL     1      -0.128  10.780  22.954  0.00  0.00    +0.000 OA
ATOM     21  C   UNL     1      -1.329  11.543  22.944  0.00  0.00    +0.000 C 
ENDBRANCH  19  20
ENDBRANCH  18  19
ENDBRANCH  17  18
ENDBRANCH  16  17
ENDBRANCH   9  16
TORSDOF 8
ENDMDL
MODEL 8
REMARK VINA RESULT:      -5.9      2.320      3.947
REMARK  Name = 
REMARK  10 active torsions:
REMARK  status: ('A' for Active; 'I' for Inactive)
REMARK    1  A    between atoms: C_1  and  C_2
REMARK    2  A    between atoms: C_2  and  N_3
REMARK    3  A    between atoms: N_3  and  C_4
REMARK    4  A    between atoms: C_10  and  C_11
REMARK    5  A    between atoms: N_14  and  C_15
REMARK    6  A    between atoms: C_15  and  O_16
REMARK    7  A    between atoms: O_16  and  C_17
REMARK    8  A    between atoms: C_17  and  C_18
REMARK    9  A    between atoms: C_18  and  O_19
REMARK   10  A    between atoms: O_19  and  C_20
REMARK                            x       y       z     vdW  Elec       q    Type
REMARK                         _______ _______ _______ _____ _____    ______ ____
ROOT
ATOM      1  C   UNL     1       2.062   3.822  19.047  0.00  0.00    +0.000 A 
ATOM      2  N   UNL     1       2.288   2.578  18.566  0.00  0.00    +0.000 NA
ATOM      3  C   UNL     1       3.127   2.427  17.525  0.00  0.00    +0.000 A 
ATOM      4  N   UNL     1       3.842   3.371  16.885  0.00  0.00    +0.000 NA
ATOM      5  C   UNL     1       3.649   4.594  17.415  0.00  0.00    +0.000 A 
ATOM      6  C   UNL     1       2.788   4.890  18.474  0.00  0.00    +0.000 A 
ATOM      7  C   UNL     1       2.893   6.288  18.694  0.00  0.00    +0.000 A 
ATOM      8  C   UNL     1       3.798   6.803  17.794  0.00  0.00    +0.000 A 
ATOM      9  N   UNL     1       4.260   5.766  17.014  0.00  0.00    +0.000 N 
ENDROOT
BRANCH   1  10
ATOM     10  N   UNL     1       1.094   4.005  20.034  0.00  0.00    +0.000 N 
ATOM     11  H   UNL     1       0.984   4.957  20.360  0.00  0.00    +0.000 HD
BRANCH  10  13
ATOM     12  C   UNL     1       2.310   3.109  21.928  0.00  0.00    +0.000 C 
ATOM     13  C   UNL     1       1.049   2.998  21.084  0.00  0.00    +0.000 C 
ENDBRANCH  10  13
ENDBRANCH   1  10
BRANCH   7  14
ATOM     14  C   UNL     1       2.207   7.048  19.693  0.00  0.00    +0.000 C 
ATOM     15  N   UNL     1       1.670   7.709  20.471  0.00  0.00    +0.000 NA
ENDBRANCH   7  14
BRANCH   9  16
ATOM     16  C   UNL     1       5.210   5.954  15.923  0.00  0.00    +0.000 C 
BRANCH  16  17
ATOM     17  O   UNL     1       6.083   7.048  16.227  0.00  0.00    +0.000 OA
BRANCH  17  18
ATOM     18  C   UNL     1       7.329   6.590  16.768  0.00  0.00    +0.000 C 
BRANCH  18  19
ATOM     19  C   UNL     1       7.753   7.536  17.884  0.00  0.00    +0.000 C 
BRANCH  19  20
ATOM     20  O   UNL     1       8.292   6.787  18.970  0.00  0.00    +0.000 OA
ATOM     21  C   UNL     1       7.493   5.643  19.246  0.00  0.00    +0.000 C 
ENDBRANCH  19  20
ENDBRANCH  18  19
ENDBRANCH  17  18
ENDBRANCH  16  17
ENDBRANCH   9  16
TORSDOF 8
ENDMDL
MODEL 9
REMARK VINA RESULT:      -5.9      2.044      3.096
REMARK  Name = 
REMARK  10 active torsions:
REMARK  status: ('A' for Active; 'I' for Inactive)
REMARK    1  A    between atoms: C_1  and  C_2
REMARK    2  A    between atoms: C_2  and  N_3
REMARK    3  A    between atoms: N_3  and  C_4
REMARK    4  A    between atoms: C_10  and  C_11
REMARK    5  A    between atoms: N_14  and  C_15
REMARK    6  A    between atoms: C_15  and  O_16
REMARK    7  A    between atoms: O_16  and  C_17
REMARK    8  A    between atoms: C_17  and  C_18
REMARK    9  A    between atoms: C_18  and  O_19
REMARK   10  A    between atoms: O_19  and  C_20
REMARK                            x       y       z     vdW  Elec       q    Type
REMARK                         _______ _______ _______ _____ _____    ______ ____
ROOT
ATOM      1  C   UNL     1       2.684   5.548  19.957  0.00  0.00    +0.000 A 
ATOM      2  N   UNL     1       2.032   6.717  19.763  0.00  0.00    +0.000 NA
ATOM      3  C   UNL     1       2.392   7.499  18.728  0.00  0.00    +0.000 A 
ATOM      4  N   UNL     1       3.324   7.260  17.787  0.00  0.00    +0.000 NA
ATOM      5  C   UNL     1       3.921   6.066  17.963  0.00  0.00    +0.000 A 
ATOM      6  C   UNL     1       3.660   5.176  19.006  0.00  0.00    +0.000 A 
ATOM      7  C   UNL     1       4.515   4.061  18.803  0.00  0.00    +0.000 A 
ATOM      8  C   UNL     1       5.256   4.283  17.664  0.00  0.00    +0.000 A 
ATOM      9  N   UNL     1       4.891   5.508  17.151  0.00  0.00    +0.000 N 
ENDROOT
BRANCH   1  10
ATOM     10  N   UNL     1       2.412   4.798  21.100  0.00  0.00    +0.000 N 
ATOM     11  H   UNL     1       3.224   4.432  21.579  0.00  0.00    +0.000 HD
BRANCH  10  13
ATOM     12  C   UNL     1       1.642   2.602  21.774  0.00  0.00    +0.000 C 
ATOM     13  C   UNL     1       1.295   3.870  21.008  0.00  0.00    +0.000 C 
ENDBRANCH  10  13
ENDBRANCH   1  10
BRANCH   7  14
ATOM     14  C   UNL     1       4.589   2.885  19.613  0.00  0.00    +0.000 C 
ATOM     15  N   UNL     1       4.689   1.915  20.230  0.00  0.00    +0.000 NA
ENDBRANCH   7  14
BRANCH   9  16
ATOM     16  C   UNL     1       5.505   6.086  15.960  0.00  0.00    +0.000 C 
BRANCH  16  17
ATOM     17  O   UNL     1       6.350   7.180  16.337  0.00  0.00    +0.000 OA
BRANCH  17  18
ATOM     18  C   UNL     1       7.534   6.722  17.003  0.00  0.00    +0.000 C 
BRANCH  18  19
ATOM     19  C   UNL     1       7.786   7.610  18.215  0.00  0.00    +0.000 C 
BRANCH  19  20
ATOM     20  O   UNL     1       8.155   8.918  17.785  0.00  0.00    +0.000 OA
ATOM     21  C   UNL     1       8.956   9.568  18.764  0.00  0.00    +0.000 C 
ENDBRANCH  19  20
ENDBRANCH  18  19
ENDBRANCH  17  18
ENDBRANCH  16  17
ENDBRANCH   9  16
TORSDOF 8
ENDMDL
