MODEL 1
REMARK VINA RESULT:      -7.1      0.000      0.000
REMARK  Name = 
REMARK  6 active torsions:
REMARK  status: ('A' for Active; 'I' for Inactive)
REMARK    1  A    between atoms: C_1  and  O_2
REMARK    2  A    between atoms: O_2  and  C_3
REMARK    3  A    between atoms: C_6  and  C_7
REMARK    4  A    between atoms: N_14  and  C_15
REMARK    5  A    between atoms: N_18  and  C_19
REMARK    6  A    between atoms: C_19  and  C_20
REMARK                            x       y       z     vdW  Elec       q    Type
REMARK                         _______ _______ _______ _____ _____    ______ ____
ROOT
ATOM      1  C   UNL     1       0.984   8.847  20.577  0.00  0.00    +0.000 A 
ATOM      2  C   UNL     1       1.089   8.740  21.956  0.00  0.00    +0.000 A 
ATOM      3  S   UNL     1       0.094   9.849  22.790  0.00  0.00    +0.000 S 
ATOM      4  C   UNL     1      -0.497  10.484  21.338  0.00  0.00    +0.000 A 
ATOM      5  C   UNL     1       0.009   9.860  20.226  0.00  0.00    +0.000 A 
ATOM      6  C   UNL     1      -0.497  10.267  18.929  0.00  0.00    +0.000 A 
ATOM      7  O   UNL     1      -0.285   9.621  17.906  0.00  0.00    +0.000 OA
ATOM      8  N   UNL     1      -1.276  11.424  18.945  0.00  0.00    +0.000 N 
ATOM      9  C   UNL     1      -1.762  11.920  17.671  0.00  0.00    +0.000 C 
ATOM     10  C   UNL     1      -1.800  12.036  20.089  0.00  0.00    +0.000 A 
ATOM     11  O   UNL     1      -2.613  12.962  19.998  0.00  0.00    +0.000 OA
ATOM     12  N   UNL     1      -1.425  11.516  21.327  0.00  0.00    +0.000 N 
ENDROOT
BRANCH   1  16
ATOM     13  C   UNL     1       3.427   6.412  18.017  0.00  0.00    +0.000 A 
ATOM     14  C   UNL     1       3.127   7.727  17.658  0.00  0.00    +0.000 A 
ATOM     15  C   UNL     1       2.357   8.539  18.501  0.00  0.00    +0.000 A 
ATOM     16  C   UNL     1       1.840   8.034  19.703  0.00  0.00    +0.000 A 
ATOM     17  C   UNL     1       2.118   6.700  20.029  0.00  0.00    +0.000 A 
ATOM     18  C   UNL     1       2.921   5.901  19.206  0.00  0.00    +0.000 A 
BRANCH  13  20
ATOM     19  C   UNL     1       3.994   4.301  17.117  0.00  0.00    +0.000 C 
ATOM     20  O   UNL     1       4.178   5.713  17.114  0.00  0.00    +0.000 OA
ENDBRANCH  13  20
ENDBRANCH   1  16
BRANCH  12  21
ATOM     21  C   UNL     1      -2.107  12.036  22.512  0.00  0.00    +0.000 C 
BRANCH  21  22
ATOM     22  C   UNL     1      -1.538  13.317  23.144  0.00  0.00    +0.000 C 
ATOM     23  O   UNL     1      -0.336  13.465  23.367  0.00  0.00    +0.000 OA
ATOM     24  N   UNL     1      -2.481  14.299  23.459  0.00  0.00    +0.000 N 
ATOM     25  C   UNL     1      -2.054  15.569  24.058  0.00  0.00    +0.000 C 
ATOM     26  C   UNL     1      -3.106  16.098  25.046  0.00  0.00    +0.000 C 
ATOM     27  O   UNL     1      -4.416  16.151  24.456  0.00  0.00    +0.000 OA
ATOM     28  C   UNL     1      -4.820  14.851  24.006  0.00  0.00    +0.000 C 
ATOM     29  C   UNL     1      -3.855  14.332  22.940  0.00  0.00    +0.000 C 
ENDBRANCH  21  22
ENDBRANCH  12  21
TORSDOF 4
ENDMDL
MODEL 2
REMARK VINA RESULT:      -7.1      2.021      2.484
REMARK  Name = 
REMARK  6 active torsions:
REMARK  status: ('A' for Active; 'I' for Inactive)
REMARK    1  A    between atoms: C_1  and  O_2
REMARK    2  A    between atoms: O_2  and  C_3
REMARK    3  A    between atoms: C_6  and  C_7
REMARK    4  A    between atoms: N_14  and  C_15
REMARK    5  A    between atoms: N_18  and  C_19
REMARK    6  A    between atoms: C_19  and  C_20
REMARK                            x       y       z     vdW  Elec       q    Type
REMARK                         _______ _______ _______ _____ _____    ______ ____
ROOT
ATOM      1  C   UNL     1       0.229  10.474  20.268  0.00  0.00    +0.000 A 
ATOM      2  C   UNL     1       0.663  11.104  21.424  0.00  0.00    +0.000 A 
ATOM      3  S   UNL     1      -0.435  12.283  21.994  0.00  0.00    +0.000 S 
ATOM      4  C   UNL     1      -1.504  11.971  20.722  0.00  0.00    +0.000 A 
ATOM      5  C   UNL     1      -1.077  10.970  19.885  0.00  0.00    +0.000 A 
ATOM      6  C   UNL     1      -1.960  10.562  18.809  0.00  0.00    +0.000 A 
ATOM      7  O   UNL     1      -1.776   9.535  18.161  0.00  0.00    +0.000 OA
ATOM      8  N   UNL     1      -3.053  11.402  18.601  0.00  0.00    +0.000 N 
ATOM      9  C   UNL     1      -3.941  11.083  17.499  0.00  0.00    +0.000 C 
ATOM     10  C   UNL     1      -3.486  12.406  19.475  0.00  0.00    +0.000 A 
ATOM     11  O   UNL     1      -4.557  12.992  19.289  0.00  0.00    +0.000 OA
ATOM     12  N   UNL     1      -2.699  12.666  20.597  0.00  0.00    +0.000 N 
ENDROOT
BRANCH   1  16
ATOM     13  C   UNL     1       2.695   7.563  18.292  0.00  0.00    +0.000 A 
ATOM     14  C   UNL     1       2.298   8.721  17.620  0.00  0.00    +0.000 A 
ATOM     15  C   UNL     1       1.520   9.690  18.266  0.00  0.00    +0.000 A 
ATOM     16  C   UNL     1       1.092   9.498  19.587  0.00  0.00    +0.000 A 
ATOM     17  C   UNL     1       1.467   8.314  20.234  0.00  0.00    +0.000 A 
ATOM     18  C   UNL     1       2.278   7.364  19.603  0.00  0.00    +0.000 A 
BRANCH  13  20
ATOM     19  C   UNL     1       3.208   5.306  17.818  0.00  0.00    +0.000 C 
ATOM     20  O   UNL     1       3.445   6.686  17.560  0.00  0.00    +0.000 OA
ENDBRANCH  13  20
ENDBRANCH   1  16
BRANCH  12  21
ATOM     21  C   UNL     1      -3.237  13.585  21.600  0.00  0.00    +0.000 C 
BRANCH  21  22
ATOM     22  C   UNL     1      -4.074  12.973  22.736  0.00  0.00    +0.000 C 
ATOM     23  O   UNL     1      -3.710  11.975  23.359  0.00  0.00    +0.000 OA
ATOM     24  N   UNL     1      -5.283  13.621  23.005  0.00  0.00    +0.000 N 
ATOM     25  C   UNL     1      -6.161  13.132  24.074  0.00  0.00    +0.000 C 
ATOM     26  C   UNL     1      -7.642  13.335  23.711  0.00  0.00    +0.000 C 
ATOM     27  O   UNL     1      -7.916  14.689  23.313  0.00  0.00    +0.000 OA
ATOM     28  C   UNL     1      -7.111  15.056  22.186  0.00  0.00    +0.000 C 
ATOM     29  C   UNL     1      -5.626  14.971  22.539  0.00  0.00    +0.000 C 
ENDBRANCH  21  22
ENDBRANCH  12  21
TORSDOF 4
ENDMDL
MODEL 3
REMARK VINA RESULT:      -7.1      4.150     10.755
REMARK  Name = 
REMARK  6 active torsions:
REMARK  status: ('A' for Active; 'I' for Inactive)
REMARK    1  A    between atoms: C_1  and  O_2
REMARK    2  A    between atoms: O_2  and  C_3
REMARK    3  A    between atoms: C_6  and  C_7
REMARK    4  A    between atoms: N_14  and  C_15
REMARK    5  A    between atoms: N_18  and  C_19
REMARK    6  A    between atoms: C_19  and  C_20
REMARK                            x       y       z     vdW  Elec       q    Type
REMARK                         _______ _______ _______ _____ _____    ______ ____
ROOT
ATOM      1  C   UNL     1       2.197   7.918  19.055  0.00  0.00    +0.000 A 
ATOM      2  C   UNL     1       2.967   8.361  17.990  0.00  0.00    +0.000 A 
ATOM      3  S   UNL     1       4.104   7.201  17.461  0.00  0.00    +0.000 S 
ATOM      4  C   UNL     1       3.590   6.093  18.629  0.00  0.00    +0.000 A 
ATOM      5  C   UNL     1       2.552   6.556  19.398  0.00  0.00    +0.000 A 
ATOM      6  C   UNL     1       1.975   5.652  20.375  0.00  0.00    +0.000 A 
ATOM      7  O   UNL     1       0.908   5.885  20.939  0.00  0.00    +0.000 OA
ATOM      8  N   UNL     1       2.703   4.482  20.588  0.00  0.00    +0.000 N 
ATOM      9  C   UNL     1       2.212   3.564  21.599  0.00  0.00    +0.000 C 
ATOM     10  C   UNL     1       3.748   4.016  19.783  0.00  0.00    +0.000 A 
ATOM     11  O   UNL     1       4.227   2.890  19.953  0.00  0.00    +0.000 OA
ATOM     12  N   UNL     1       4.174   4.839  18.741  0.00  0.00    +0.000 N 
ENDROOT
BRANCH   1  16
ATOM     13  C   UNL     1      -0.560  10.591  20.981  0.00  0.00    +0.000 A 
ATOM     14  C   UNL     1      -0.443  10.585  19.590  0.00  0.00    +0.000 A 
ATOM     15  C   UNL     1       0.430   9.695  18.951  0.00  0.00    +0.000 A 
ATOM     16  C   UNL     1       1.233   8.821  19.699  0.00  0.00    +0.000 A 
ATOM     17  C   UNL     1       1.131   8.867  21.095  0.00  0.00    +0.000 A 
ATOM     18  C   UNL     1       0.229   9.727  21.732  0.00  0.00    +0.000 A 
BRANCH  13  20
ATOM     19  C   UNL     1      -1.510  11.564  22.914  0.00  0.00    +0.000 C 
ATOM     20  O   UNL     1      -1.437  11.506  21.494  0.00  0.00    +0.000 OA
ENDBRANCH  13  20
ENDBRANCH   1  16
BRANCH  12  21
ATOM     21  C   UNL     1       5.139   4.282  17.792  0.00  0.00    +0.000 C 
BRANCH  21  22
ATOM     22  C   UNL     1       4.606   3.863  16.413  0.00  0.00    +0.000 C 
ATOM     23  O   UNL     1       3.568   3.214  16.276  0.00  0.00    +0.000 OA
ATOM     24  N   UNL     1       5.386   4.260  15.323  0.00  0.00    +0.000 N 
ATOM     25  C   UNL     1       4.971   3.926  13.956  0.00  0.00    +0.000 C 
ATOM     26  C   UNL     1       6.190   3.657  13.057  0.00  0.00    +0.000 C 
ATOM     27  O   UNL     1       7.150   4.725  13.124  0.00  0.00    +0.000 OA
ATOM     28  C   UNL     1       7.604   4.913  14.470  0.00  0.00    +0.000 C 
ATOM     29  C   UNL     1       6.434   5.288  15.380  0.00  0.00    +0.000 C 
ENDBRANCH  21  22
ENDBRANCH  12  21
TORSDOF 4
ENDMDL
MODEL 4
REMARK VINA RESULT:      -7.0      4.252     10.827
REMARK  Name = 
REMARK  6 active torsions:
REMARK  status: ('A' for Active; 'I' for Inactive)
REMARK    1  A    between atoms: C_1  and  O_2
REMARK    2  A    between atoms: O_2  and  C_3
REMARK    3  A    between atoms: C_6  and  C_7
REMARK    4  A    between atoms: N_14  and  C_15
REMARK    5  A    between atoms: N_18  and  C_19
REMARK    6  A    between atoms: C_19  and  C_20
REMARK                            x       y       z     vdW  Elec       q    Type
REMARK                         _______ _______ _______ _____ _____    ______ ____
ROOT
ATOM      1  C   UNL     1       1.938   7.924  19.349  0.00  0.00    +0.000 A 
ATOM      2  C   UNL     1       2.358   8.532  18.176  0.00  0.00    +0.000 A 
ATOM      3  S   UNL     1       3.237   7.480  17.156  0.00  0.00    +0.000 S 
ATOM      4  C   UNL     1       3.068   6.201  18.250  0.00  0.00    +0.000 A 
ATOM      5  C   UNL     1       2.332   6.530  19.362  0.00  0.00    +0.000 A 
ATOM      6  C   UNL     1       2.052   5.482  20.324  0.00  0.00    +0.000 A 
ATOM      7  O   UNL     1       1.219   5.614  21.218  0.00  0.00    +0.000 OA
ATOM      8  N   UNL     1       2.769   4.303  20.128  0.00  0.00    +0.000 N 
ATOM      9  C   UNL     1       2.581   3.237  21.094  0.00  0.00    +0.000 C 
ATOM     10  C   UNL     1       3.500   3.976  18.980  0.00  0.00    +0.000 A 
ATOM     11  O   UNL     1       3.969   2.844  18.826  0.00  0.00    +0.000 OA
ATOM     12  N   UNL     1       3.614   4.952  17.990  0.00  0.00    +0.000 N 
ENDROOT
BRANCH   1  16
ATOM     13  C   UNL     1      -0.001  10.243  22.401  0.00  0.00    +0.000 A 
ATOM     14  C   UNL     1      -0.345  10.420  21.060  0.00  0.00    +0.000 A 
ATOM     15  C   UNL     1       0.259   9.646  20.061  0.00  0.00    +0.000 A 
ATOM     16  C   UNL     1       1.249   8.707  20.384  0.00  0.00    +0.000 A 
ATOM     17  C   UNL     1       1.611   8.571  21.731  0.00  0.00    +0.000 A 
ATOM     18  C   UNL     1       0.978   9.315  22.734  0.00  0.00    +0.000 A 
BRANCH  13  20
ATOM     19  C   UNL     1      -1.650  11.905  22.731  0.00  0.00    +0.000 C 
ATOM     20  O   UNL     1      -0.649  11.058  23.287  0.00  0.00    +0.000 OA
ENDBRANCH  13  20
ENDBRANCH   1  16
BRANCH  12  21
ATOM     21  C   UNL     1       4.221   4.556  16.719  0.00  0.00    +0.000 C 
BRANCH  21  22
ATOM     22  C   UNL     1       5.661   5.023  16.453  0.00  0.00    +0.000 C 
ATOM     23  O   UNL     1       6.292   5.709  17.259  0.00  0.00    +0.000 OA
ATOM     24  N   UNL     1       6.203   4.626  15.227  0.00  0.00    +0.000 N 
ATOM     25  C   UNL     1       7.574   5.005  14.868  0.00  0.00    +0.000 C 
ATOM     26  C   UNL     1       7.703   5.254  13.356  0.00  0.00    +0.000 C 
ATOM     27  O   UNL     1       7.187   4.154  12.586  0.00  0.00    +0.000 OA
ATOM     28  C   UNL     1       5.808   3.922  12.899  0.00  0.00    +0.000 C 
ATOM     29  C   UNL     1       5.649   3.564  14.377  0.00  0.00    +0.000 C 
ENDBRANCH  21  22
ENDBRANCH  12  21
TORSDOF 4
ENDMDL
MODEL 5
REMARK VINA RESULT:      -7.0      2.074      2.612
REMARK  Name = 
REMARK  6 active torsions:
REMARK  status: ('A' for Active; 'I' for Inactive)
REMARK    1  A    between atoms: C_1  and  O_2
REMARK    2  A    between atoms: O_2  and  C_3
REMARK    3  A    between atoms: C_6  and  C_7
REMARK    4  A    between atoms: N_14  and  C_15
REMARK    5  A    between atoms: N_18  and  C_19
REMARK    6  A    between atoms: C_19  and  C_20
REMARK                            x       y       z     vdW  Elec       q    Type
REMARK                         _______ _______ _______ _____ _____    ______ ____
ROOT
ATOM      1  C   UNL     1       0.383  10.187  20.140  0.00  0.00    +0.000 A 
ATOM      2  C   UNL     1       0.838  10.785  21.305  0.00  0.00    +0.000 A 
ATOM      3  S   UNL     1      -0.217  11.995  21.890  0.00  0.00    +0.000 S 
ATOM      4  C   UNL     1      -1.295  11.739  20.612  0.00  0.00    +0.000 A 
ATOM      5  C   UNL     1      -0.903  10.736  19.762  0.00  0.00    +0.000 A 
ATOM      6  C   UNL     1      -1.798  10.374  18.680  0.00  0.00    +0.000 A 
ATOM      7  O   UNL     1      -1.651   9.350  18.017  0.00  0.00    +0.000 OA
ATOM      8  N   UNL     1      -2.860  11.256  18.482  0.00  0.00    +0.000 N 
ATOM      9  C   UNL     1      -3.757  10.984  17.374  0.00  0.00    +0.000 C 
ATOM     10  C   UNL     1      -3.257  12.262  19.369  0.00  0.00    +0.000 A 
ATOM     11  O   UNL     1      -4.307  12.889  19.190  0.00  0.00    +0.000 OA
ATOM     12  N   UNL     1      -2.464  12.479  20.495  0.00  0.00    +0.000 N 
ENDROOT
BRANCH   1  16
ATOM     13  C   UNL     1       2.867   7.330  18.108  0.00  0.00    +0.000 A 
ATOM     14  C   UNL     1       2.341   7.034  19.367  0.00  0.00    +0.000 A 
ATOM     15  C   UNL     1       1.505   7.946  20.023  0.00  0.00    +0.000 A 
ATOM     16  C   UNL     1       1.212   9.190  19.447  0.00  0.00    +0.000 A 
ATOM     17  C   UNL     1       1.780   9.487  18.201  0.00  0.00    +0.000 A 
ATOM     18  C   UNL     1       2.582   8.560  17.526  0.00  0.00    +0.000 A 
BRANCH  13  20
ATOM     19  C   UNL     1       4.802   5.995  18.354  0.00  0.00    +0.000 C 
ATOM     20  O   UNL     1       3.676   6.369  17.568  0.00  0.00    +0.000 OA
ENDBRANCH  13  20
ENDBRANCH   1  16
BRANCH  12  21
ATOM     21  C   UNL     1      -2.971  13.403  21.511  0.00  0.00    +0.000 C 
BRANCH  21  22
ATOM     22  C   UNL     1      -3.812  12.803  22.648  0.00  0.00    +0.000 C 
ATOM     23  O   UNL     1      -3.362  11.966  23.432  0.00  0.00    +0.000 OA
ATOM     24  N   UNL     1      -5.130  13.264  22.725  0.00  0.00    +0.000 N 
ATOM     25  C   UNL     1      -6.025  12.769  23.777  0.00  0.00    +0.000 C 
ATOM     26  C   UNL     1      -7.474  12.671  23.271  0.00  0.00    +0.000 C 
ATOM     27  O   UNL     1      -7.915  13.899  22.668  0.00  0.00    +0.000 OA
ATOM     28  C   UNL     1      -7.067  14.256  21.569  0.00  0.00    +0.000 C 
ATOM     29  C   UNL     1      -5.631  14.468  22.051  0.00  0.00    +0.000 C 
ENDBRANCH  21  22
ENDBRANCH  12  21
TORSDOF 4
ENDMDL
MODEL 6
REMARK VINA RESULT:      -7.0      4.292     10.750
REMARK  Name = 
REMARK  6 active torsions:
REMARK  status: ('A' for Active; 'I' for Inactive)
REMARK    1  A    between atoms: C_1  and  O_2
REMARK    2  A    between atoms: O_2  and  C_3
REMARK    3  A    between atoms: C_6  and  C_7
REMARK    4  A    between atoms: N_14  and  C_15
REMARK    5  A    between atoms: N_18  and  C_19
REMARK    6  A    between atoms: C_19  and  C_20
REMARK                            x       y       z     vdW  Elec       q    Type
REMARK                         _______ _______ _______ _____ _____    ______ ____
ROOT
ATOM      1  C   UNL     1       2.245   7.694  18.991  0.00  0.00    +0.000 A 
ATOM      2  C   UNL     1       2.950   8.020  17.843  0.00  0.00    +0.000 A 
ATOM      3  S   UNL     1       3.923   6.738  17.270  0.00  0.00    +0.000 S 
ATOM      4  C   UNL     1       3.420   5.730  18.530  0.00  0.00    +0.000 A 
ATOM      5  C   UNL     1       2.503   6.319  19.365  0.00  0.00    +0.000 A 
ATOM      6  C   UNL     1       1.938   5.512  20.430  0.00  0.00    +0.000 A 
ATOM      7  O   UNL     1       0.954   5.867  21.074  0.00  0.00    +0.000 OA
ATOM      8  N   UNL     1       2.573   4.287  20.632  0.00  0.00    +0.000 N 
ATOM      9  C   UNL     1       2.095   3.459  21.725  0.00  0.00    +0.000 C 
ATOM     10  C   UNL     1       3.492   3.693  19.761  0.00  0.00    +0.000 A 
ATOM     11  O   UNL     1       3.880   2.534  19.940  0.00  0.00    +0.000 OA
ATOM     12  N   UNL     1       3.894   4.431  18.648  0.00  0.00    +0.000 N 
ENDROOT
BRANCH   1  16
ATOM     13  C   UNL     1      -0.202  10.637  20.943  0.00  0.00    +0.000 A 
ATOM     14  C   UNL     1       0.478   9.678  21.695  0.00  0.00    +0.000 A 
ATOM     15  C   UNL     1       1.303   8.734  21.070  0.00  0.00    +0.000 A 
ATOM     16  C   UNL     1       1.430   8.709  19.674  0.00  0.00    +0.000 A 
ATOM     17  C   UNL     1       0.710   9.654  18.932  0.00  0.00    +0.000 A 
ATOM     18  C   UNL     1      -0.082  10.623  19.558  0.00  0.00    +0.000 A 
BRANCH  13  20
ATOM     19  C   UNL     1      -1.177  11.169  23.029  0.00  0.00    +0.000 C 
ATOM     20  O   UNL     1      -0.983  11.501  21.658  0.00  0.00    +0.000 OA
ENDBRANCH  13  20
ENDBRANCH   1  16
BRANCH  12  21
ATOM     21  C   UNL     1       4.712   3.748  17.645  0.00  0.00    +0.000 C 
BRANCH  21  22
ATOM     22  C   UNL     1       6.049   4.404  17.265  0.00  0.00    +0.000 C 
ATOM     23  O   UNL     1       6.757   4.985  18.090  0.00  0.00    +0.000 OA
ATOM     24  N   UNL     1       6.402   4.307  15.916  0.00  0.00    +0.000 N 
ATOM     25  C   UNL     1       7.662   4.888  15.438  0.00  0.00    +0.000 C 
ATOM     26  C   UNL     1       7.514   5.434  14.008  0.00  0.00    +0.000 C 
ATOM     27  O   UNL     1       6.955   4.454  13.116  0.00  0.00    +0.000 OA
ATOM     28  C   UNL     1       5.669   4.024  13.581  0.00  0.00    +0.000 C 
ATOM     29  C   UNL     1       5.789   3.376  14.960  0.00  0.00    +0.000 C 
ENDBRANCH  21  22
ENDBRANCH  12  21
TORSDOF 4
ENDMDL
MODEL 7
REMARK VINA RESULT:      -6.9      3.460      4.193
REMARK  Name = 
REMARK  6 active torsions:
REMARK  status: ('A' for Active; 'I' for Inactive)
REMARK    1  A    between atoms: C_1  and  O_2
REMARK    2  A    between atoms: O_2  and  C_3
REMARK    3  A    between atoms: C_6  and  C_7
REMARK    4  A    between atoms: N_14  and  C_15
REMARK    5  A    between atoms: N_18  and  C_19
REMARK    6  A    between atoms: C_19  and  C_20
REMARK                            x       y       z     vdW  Elec       q    Type
REMARK                         _______ _______ _______ _____ _____    ______ ____
ROOT
ATOM      1  C   UNL     1       2.162   8.083  18.749  0.00  0.00    +0.000 A 
ATOM      2  C   UNL     1       2.483   8.903  17.677  0.00  0.00    +0.000 A 
ATOM      3  S   UNL     1       1.846  10.481  17.829  0.00  0.00    +0.000 S 
ATOM      4  C   UNL     1       1.141  10.104  19.320  0.00  0.00    +0.000 A 
ATOM      5  C   UNL     1       1.398   8.821  19.734  0.00  0.00    +0.000 A 
ATOM      6  C   UNL     1       0.913   8.420  21.041  0.00  0.00    +0.000 A 
ATOM      7  O   UNL     1       1.287   7.388  21.593  0.00  0.00    +0.000 OA
ATOM      8  N   UNL     1       0.028   9.318  21.635  0.00  0.00    +0.000 N 
ATOM      9  C   UNL     1      -0.542   8.945  22.917  0.00  0.00    +0.000 C 
ATOM     10  C   UNL     1      -0.209  10.629  21.210  0.00  0.00    +0.000 A 
ATOM     11  O   UNL     1      -0.886  11.406  21.891  0.00  0.00    +0.000 OA
ATOM     12  N   UNL     1       0.407  11.045  20.029  0.00  0.00    +0.000 N 
ENDROOT
BRANCH   1  16
ATOM     13  C   UNL     1       3.292   3.940  18.636  0.00  0.00    +0.000 A 
ATOM     14  C   UNL     1       4.083   4.866  19.318  0.00  0.00    +0.000 A 
ATOM     15  C   UNL     1       3.706   6.213  19.386  0.00  0.00    +0.000 A 
ATOM     16  C   UNL     1       2.548   6.666  18.739  0.00  0.00    +0.000 A 
ATOM     17  C   UNL     1       1.786   5.730  18.026  0.00  0.00    +0.000 A 
ATOM     18  C   UNL     1       2.140   4.377  17.991  0.00  0.00    +0.000 A 
BRANCH  13  20
ATOM     19  C   UNL     1       4.300   2.188  19.861  0.00  0.00    +0.000 C 
ATOM     20  O   UNL     1       3.762   2.656  18.629  0.00  0.00    +0.000 OA
ENDBRANCH  13  20
ENDBRANCH   1  16
BRANCH  12  21
ATOM     21  C   UNL     1       0.308  12.462  19.678  0.00  0.00    +0.000 C 
BRANCH  21  22
ATOM     22  C   UNL     1       1.358  13.409  20.278  0.00  0.00    +0.000 C 
ATOM     23  O   UNL     1       2.242  13.017  21.041  0.00  0.00    +0.000 OA
ATOM     24  N   UNL     1       1.235  14.752  19.907  0.00  0.00    +0.000 N 
ATOM     25  C   UNL     1       2.187  15.747  20.411  0.00  0.00    +0.000 C 
ATOM     26  C   UNL     1       1.502  17.106  20.636  0.00  0.00    +0.000 C 
ATOM     27  O   UNL     1       0.775  17.539  19.474  0.00  0.00    +0.000 OA
ATOM     28  C   UNL     1      -0.222  16.574  19.114  0.00  0.00    +0.000 C 
ATOM     29  C   UNL     1       0.430  15.233  18.777  0.00  0.00    +0.000 C 
ENDBRANCH  21  22
ENDBRANCH  12  21
TORSDOF 4
ENDMDL
MODEL 8
REMARK VINA RESULT:      -6.9      3.328      4.261
REMARK  Name = 
REMARK  6 active torsions:
REMARK  status: ('A' for Active; 'I' for Inactive)
REMARK    1  A    between atoms: C_1  and  O_2
REMARK    2  A    between atoms: O_2  and  C_3
REMARK    3  A    between atoms: C_6  and  C_7
REMARK    4  A    between atoms: N_14  and  C_15
REMARK    5  A    between atoms: N_18  and  C_19
REMARK    6  A    between atoms: C_19  and  C_20
REMARK                            x       y       z     vdW  Elec       q    Type
REMARK                         _______ _______ _______ _____ _____    ______ ____
ROOT
ATOM      1  C   UNL     1       1.976   7.981  19.314  0.00  0.00    +0.000 A 
ATOM      2  C   UNL     1       2.294   8.453  18.050  0.00  0.00    +0.000 A 
ATOM      3  S   UNL     1       1.727  10.040  17.767  0.00  0.00    +0.000 S 
ATOM      4  C   UNL     1       1.058  10.128  19.318  0.00  0.00    +0.000 A 
ATOM      5  C   UNL     1       1.276   9.000  20.069  0.00  0.00    +0.000 A 
ATOM      6  C   UNL     1       0.819   9.002  21.445  0.00  0.00    +0.000 A 
ATOM      7  O   UNL     1       1.168   8.148  22.257  0.00  0.00    +0.000 OA
ATOM      8  N   UNL     1      -0.009  10.072  21.783  0.00  0.00    +0.000 N 
ATOM      9  C   UNL     1      -0.551  10.099  23.129  0.00  0.00    +0.000 C 
ATOM     10  C   UNL     1      -0.206  11.223  21.013  0.00  0.00    +0.000 A 
ATOM     11  O   UNL     1      -0.828  12.190  21.463  0.00  0.00    +0.000 OA
ATOM     12  N   UNL     1       0.387  11.263  19.751  0.00  0.00    +0.000 N 
ENDROOT
BRANCH   1  16
ATOM     13  C   UNL     1       2.865   3.916  20.384  0.00  0.00    +0.000 A 
ATOM     14  C   UNL     1       3.779   4.662  19.638  0.00  0.00    +0.000 A 
ATOM     15  C   UNL     1       3.512   5.998  19.311  0.00  0.00    +0.000 A 
ATOM     16  C   UNL     1       2.304   6.599  19.692  0.00  0.00    +0.000 A 
ATOM     17  C   UNL     1       1.380   5.824  20.407  0.00  0.00    +0.000 A 
ATOM     18  C   UNL     1       1.664   4.503  20.769  0.00  0.00    +0.000 A 
BRANCH  13  20
ATOM     19  C   UNL     1       4.435   2.188  20.021  0.00  0.00    +0.000 C 
ATOM     20  O   UNL     1       3.228   2.623  20.637  0.00  0.00    +0.000 OA
ENDBRANCH  13  20
ENDBRANCH   1  16
BRANCH  12  21
ATOM     21  C   UNL     1       0.333  12.529  19.019  0.00  0.00    +0.000 C 
BRANCH  21  22
ATOM     22  C   UNL     1       1.451  13.547  19.295  0.00  0.00    +0.000 C 
ATOM     23  O   UNL     1       2.615  13.206  19.513  0.00  0.00    +0.000 OA
ATOM     24  N   UNL     1       1.055  14.887  19.293  0.00  0.00    +0.000 N 
ATOM     25  C   UNL     1       2.038  15.949  19.534  0.00  0.00    +0.000 C 
ATOM     26  C   UNL     1       1.408  17.125  20.299  0.00  0.00    +0.000 C 
ATOM     27  O   UNL     1       0.201  17.588  19.670  0.00  0.00    +0.000 OA
ATOM     28  C   UNL     1      -0.760  16.529  19.580  0.00  0.00    +0.000 C 
ATOM     29  C   UNL     1      -0.211  15.380  18.734  0.00  0.00    +0.000 C 
ENDBRANCH  21  22
ENDBRANCH  12  21
TORSDOF 4
ENDMDL
MODEL 9
REMARK VINA RESULT:      -6.8      2.405      3.072
REMARK  Name = 
REMARK  6 active torsions:
REMARK  status: ('A' for Active; 'I' for Inactive)
REMARK    1  A    between atoms: C_1  and  O_2
REMARK    2  A    between atoms: O_2  and  C_3
REMARK    3  A    between atoms: C_6  and  C_7
REMARK    4  A    between atoms: N_14  and  C_15
REMARK    5  A    between atoms: N_18  and  C_19
REMARK    6  A    between atoms: C_19  and  C_20
REMARK                            x       y       z     vdW  Elec       q    Type
REMARK                         _______ _______ _______ _____ _____    ______ ____
ROOT
ATOM      1  C   UNL     1      -0.418  10.499  19.857  0.00  0.00    +0.000 A 
ATOM      2  C   UNL     1      -0.277  11.146  21.076  0.00  0.00    +0.000 A 
ATOM      3  S   UNL     1      -1.563  12.219  21.414  0.00  0.00    +0.000 S 
ATOM      4  C   UNL     1      -2.328  11.837  19.955  0.00  0.00    +0.000 A 
ATOM      5  C   UNL     1      -1.660  10.889  19.222  0.00  0.00    +0.000 A 
ATOM      6  C   UNL     1      -2.273  10.424  17.993  0.00  0.00    +0.000 A 
ATOM      7  O   UNL     1      -1.878   9.426  17.395  0.00  0.00    +0.000 OA
ATOM      8  N   UNL     1      -3.372  11.172  17.570  0.00  0.00    +0.000 N 
ATOM      9  C   UNL     1      -3.993  10.796  16.314  0.00  0.00    +0.000 C 
ATOM     10  C   UNL     1      -4.053  12.122  18.339  0.00  0.00    +0.000 A 
ATOM     11  O   UNL     1      -5.113  12.618  17.943  0.00  0.00    +0.000 OA
ATOM     12  N   UNL     1      -3.530  12.431  19.594  0.00  0.00    +0.000 N 
ENDROOT
BRANCH   1  16
ATOM     13  C   UNL     1       2.634   7.836  18.424  0.00  0.00    +0.000 A 
ATOM     14  C   UNL     1       2.204   8.903  17.633  0.00  0.00    +0.000 A 
ATOM     15  C   UNL     1       1.232   9.795  18.104  0.00  0.00    +0.000 A 
ATOM     16  C   UNL     1       0.643   9.610  19.363  0.00  0.00    +0.000 A 
ATOM     17  C   UNL     1       1.058   8.512  20.128  0.00  0.00    +0.000 A 
ATOM     18  C   UNL     1       2.059   7.645  19.675  0.00  0.00    +0.000 A 
BRANCH  13  20
ATOM     19  C   UNL     1       4.014   5.932  18.655  0.00  0.00    +0.000 C 
ATOM     20  O   UNL     1       3.580   7.028  17.858  0.00  0.00    +0.000 OA
ENDBRANCH  13  20
ENDBRANCH   1  16
BRANCH  12  21
ATOM     21  C   UNL     1      -4.333  13.285  20.469  0.00  0.00    +0.000 C 
BRANCH  21  22
ATOM     22  C   UNL     1      -5.461  12.611  21.267  0.00  0.00    +0.000 C 
ATOM     23  O   UNL     1      -5.926  11.514  20.954  0.00  0.00    +0.000 OA
ATOM     24  N   UNL     1      -5.932  13.335  22.366  0.00  0.00    +0.000 N 
ATOM     25  C   UNL     1      -7.001  12.786  23.208  0.00  0.00    +0.000 C 
ATOM     26  C   UNL     1      -7.915  13.903  23.741  0.00  0.00    +0.000 C 
ATOM     27  O   UNL     1      -7.164  14.953  24.373  0.00  0.00    +0.000 OA
ATOM     28  C   UNL     1      -6.226  15.526  23.454  0.00  0.00    +0.000 C 
ATOM     29  C   UNL     1      -5.229  14.468  22.980  0.00  0.00    +0.000 C 
ENDBRANCH  21  22
ENDBRANCH  12  21
TORSDOF 4
ENDMDL
