MODEL 1
REMARK VINA RESULT:      -8.9      0.000      0.000
REMARK  Name = 
REMARK  5 active torsions:
REMARK  status: ('A' for Active; 'I' for Inactive)
REMARK    1  A    between atoms: C_2  and  C_3
REMARK    2  A    between atoms: C_8  and  C_9
REMARK    3  A    between atoms: C_9  and  S_10
REMARK    4  A    between atoms: S_10  and  C_11
REMARK    5  A    between atoms: C_22  and  C_24
REMARK                            x       y       z     vdW  Elec       q    Type
REMARK                         _______ _______ _______ _____ _____    ______ ____
ROOT
ATOM      1  C   UNL     1       2.200   7.902  19.158  0.00  0.00    +0.000 A 
ATOM      2  N   UNL     1       2.518   8.633  18.063  0.00  0.00    +0.000 NA
ATOM      3  N   UNL     1       3.319   8.129  17.101  0.00  0.00    +0.000 NA
ATOM      4  C   UNL     1       3.811   6.875  17.307  0.00  0.00    +0.000 A 
ATOM      5  C   UNL     1       4.721   6.074  16.566  0.00  0.00    +0.000 A 
ATOM      6  C   UNL     1       5.435   6.243  15.357  0.00  0.00    +0.000 A 
ATOM      7  C   UNL     1       6.277   5.224  14.890  0.00  0.00    +0.000 A 
ATOM      8  C   UNL     1       6.423   4.045  15.609  0.00  0.00    +0.000 A 
ATOM      9  C   UNL     1       5.737   3.856  16.809  0.00  0.00    +0.000 A 
ATOM     10  C   UNL     1       4.894   4.884  17.286  0.00  0.00    +0.000 A 
ATOM     11  N   UNL     1       4.092   4.946  18.440  0.00  0.00    +0.000 N 
ATOM     12  C   UNL     1       4.031   3.941  19.432  0.00  0.00    +0.000 C 
ATOM     13  O   UNL     1       4.947   3.128  19.513  0.00  0.00    +0.000 OA
ATOM     14  C   UNL     1       3.431   6.169  18.435  0.00  0.00    +0.000 A 
ATOM     15  N   UNL     1       2.617   6.647  19.392  0.00  0.00    +0.000 NA
ENDROOT
BRANCH  12  16
ATOM     16  C   UNL     1       2.784   3.891  20.297  0.00  0.00    +0.000 C 
ATOM     17  C   UNL     1       1.581   3.384  19.505  0.00  0.00    +0.000 C 
ATOM     18  C   UNL     1       0.611   2.890  20.567  0.00  0.00    +0.000 C 
ATOM     19  C   UNL     1       1.473   2.413  21.731  0.00  0.00    +0.000 C 
ATOM     20  C   UNL     1       2.901   2.855  21.423  0.00  0.00    +0.000 C 
ENDBRANCH  12  16
BRANCH   1  21
ATOM     21  S   UNL     1       1.341   8.626  20.544  0.00  0.00    +0.000 S 
BRANCH  21  22
ATOM     22  C   UNL     1       0.459  10.049  19.823  0.00  0.00    +0.000 C 
BRANCH  22  28
ATOM     23  C   UNL     1      -0.850  12.086  20.736  0.00  0.00    +0.000 A 
ATOM     24  C   UNL     1      -1.576  12.697  21.775  0.00  0.00    +0.000 A 
ATOM     25  C   UNL     1      -1.751  12.056  22.999  0.00  0.00    +0.000 A 
ATOM     26  C   UNL     1      -1.194  10.796  23.195  0.00  0.00    +0.000 A 
ATOM     27  C   UNL     1      -0.472  10.176  22.168  0.00  0.00    +0.000 A 
ATOM     28  C   UNL     1      -0.283  10.806  20.922  0.00  0.00    +0.000 A 
BRANCH  23  30
ATOM     29  N   UNL     1      -0.614  13.384  18.501  0.00  0.00    +0.000 NA
ATOM     30  C   UNL     1      -0.711  12.817  19.509  0.00  0.00    +0.000 C 
ENDBRANCH  23  30
ENDBRANCH  22  28
ENDBRANCH  21  22
ENDBRANCH   1  21
TORSDOF 5
ENDMDL
MODEL 2
REMARK VINA RESULT:      -8.8      1.219      1.781
REMARK  Name = 
REMARK  5 active torsions:
REMARK  status: ('A' for Active; 'I' for Inactive)
REMARK    1  A    between atoms: C_2  and  C_3
REMARK    2  A    between atoms: C_8  and  C_9
REMARK    3  A    between atoms: C_9  and  S_10
REMARK    4  A    between atoms: S_10  and  C_11
REMARK    5  A    between atoms: C_22  and  C_24
REMARK                            x       y       z     vdW  Elec       q    Type
REMARK                         _______ _______ _______ _____ _____    ______ ____
ROOT
ATOM      1  C   UNL     1       2.044   7.988  19.188  0.00  0.00    +0.000 A 
ATOM      2  N   UNL     1       2.359   8.731  18.101  0.00  0.00    +0.000 NA
ATOM      3  N   UNL     1       3.187   8.251  17.149  0.00  0.00    +0.000 NA
ATOM      4  C   UNL     1       3.709   7.009  17.359  0.00  0.00    +0.000 A 
ATOM      5  C   UNL     1       4.651   6.235  16.629  0.00  0.00    +0.000 A 
ATOM      6  C   UNL     1       5.377   6.427  15.431  0.00  0.00    +0.000 A 
ATOM      7  C   UNL     1       6.253   5.432  14.974  0.00  0.00    +0.000 A 
ATOM      8  C   UNL     1       6.419   4.254  15.691  0.00  0.00    +0.000 A 
ATOM      9  C   UNL     1       5.721   4.044  16.881  0.00  0.00    +0.000 A 
ATOM     10  C   UNL     1       4.843   5.047  17.348  0.00  0.00    +0.000 A 
ATOM     11  N   UNL     1       4.023   5.084  18.490  0.00  0.00    +0.000 N 
ATOM     12  C   UNL     1       3.974   4.075  19.478  0.00  0.00    +0.000 C 
ATOM     13  O   UNL     1       4.909   3.286  19.570  0.00  0.00    +0.000 OA
ATOM     14  C   UNL     1       3.331   6.290  18.479  0.00  0.00    +0.000 A 
ATOM     15  N   UNL     1       2.490   6.743  19.424  0.00  0.00    +0.000 NA
ENDROOT
BRANCH  12  16
ATOM     16  C   UNL     1       2.716   3.989  20.324  0.00  0.00    +0.000 C 
ATOM     17  C   UNL     1       1.536   3.463  19.510  0.00  0.00    +0.000 C 
ATOM     18  C   UNL     1       0.561   2.939  20.553  0.00  0.00    +0.000 C 
ATOM     19  C   UNL     1       1.417   2.470  21.725  0.00  0.00    +0.000 C 
ATOM     20  C   UNL     1       2.839   2.946  21.442  0.00  0.00    +0.000 C 
ENDBRANCH  12  16
BRANCH   1  21
ATOM     21  S   UNL     1       1.145   8.684  20.563  0.00  0.00    +0.000 S 
BRANCH  21  22
ATOM     22  C   UNL     1       1.107  10.471  20.206  0.00  0.00    +0.000 C 
BRANCH  22  28
ATOM     23  C   UNL     1      -1.163  11.679  20.502  0.00  0.00    +0.000 A 
ATOM     24  C   UNL     1      -2.411  12.063  19.979  0.00  0.00    +0.000 A 
ATOM     25  C   UNL     1      -2.809  11.662  18.707  0.00  0.00    +0.000 A 
ATOM     26  C   UNL     1      -1.960  10.864  17.946  0.00  0.00    +0.000 A 
ATOM     27  C   UNL     1      -0.713  10.477  18.454  0.00  0.00    +0.000 A 
ATOM     28  C   UNL     1      -0.291  10.873  19.738  0.00  0.00    +0.000 A 
BRANCH  23  30
ATOM     29  N   UNL     1      -0.596  12.495  22.900  0.00  0.00    +0.000 NA
ATOM     30  C   UNL     1      -0.833  12.131  21.823  0.00  0.00    +0.000 C 
ENDBRANCH  23  30
ENDBRANCH  22  28
ENDBRANCH  21  22
ENDBRANCH   1  21
TORSDOF 5
ENDMDL
MODEL 3
REMARK VINA RESULT:      -8.7      0.933      1.022
REMARK  Name = 
REMARK  5 active torsions:
REMARK  status: ('A' for Active; 'I' for Inactive)
REMARK    1  A    between atoms: C_2  and  C_3
REMARK    2  A    between atoms: C_8  and  C_9
REMARK    3  A    between atoms: C_9  and  S_10
REMARK    4  A    between atoms: S_10  and  C_11
REMARK    5  A    between atoms: C_22  and  C_24
REMARK                            x       y       z     vdW  Elec       q    Type
REMARK                         _______ _______ _______ _____ _____    ______ ____
ROOT
ATOM      1  C   UNL     1       2.068   7.971  19.357  0.00  0.00    +0.000 A 
ATOM      2  N   UNL     1       2.358   8.738  18.279  0.00  0.00    +0.000 NA
ATOM      3  N   UNL     1       3.154   8.276  17.292  0.00  0.00    +0.000 NA
ATOM      4  C   UNL     1       3.672   7.026  17.456  0.00  0.00    +0.000 A 
ATOM      5  C   UNL     1       4.587   6.264  16.681  0.00  0.00    +0.000 A 
ATOM      6  C   UNL     1       5.280   6.480  15.468  0.00  0.00    +0.000 A 
ATOM      7  C   UNL     1       6.135   5.490  14.962  0.00  0.00    +0.000 A 
ATOM      8  C   UNL     1       6.313   4.294  15.644  0.00  0.00    +0.000 A 
ATOM      9  C   UNL     1       5.648   4.060  16.849  0.00  0.00    +0.000 A 
ATOM     10  C   UNL     1       4.792   5.057  17.366  0.00  0.00    +0.000 A 
ATOM     11  N   UNL     1       4.006   5.072  18.531  0.00  0.00    +0.000 N 
ATOM     12  C   UNL     1       3.977   4.039  19.496  0.00  0.00    +0.000 C 
ATOM     13  O   UNL     1       4.909   3.242  19.541  0.00  0.00    +0.000 OA
ATOM     14  C   UNL     1       3.322   6.282  18.570  0.00  0.00    +0.000 A 
ATOM     15  N   UNL     1       2.512   6.718  19.550  0.00  0.00    +0.000 NA
ENDROOT
BRANCH  12  16
ATOM     16  C   UNL     1       2.744   3.941  20.376  0.00  0.00    +0.000 C 
ATOM     17  C   UNL     1       1.533   3.458  19.581  0.00  0.00    +0.000 C 
ATOM     18  C   UNL     1       0.583   2.911  20.634  0.00  0.00    +0.000 C 
ATOM     19  C   UNL     1       1.466   2.392  21.764  0.00  0.00    +0.000 C 
ATOM     20  C   UNL     1       2.886   2.859  21.454  0.00  0.00    +0.000 C 
ENDBRANCH  12  16
BRANCH   1  21
ATOM     21  S   UNL     1       1.215   8.640  20.774  0.00  0.00    +0.000 S 
BRANCH  21  22
ATOM     22  C   UNL     1      -0.032   9.755  20.052  0.00  0.00    +0.000 C 
BRANCH  22  28
ATOM     23  C   UNL     1       0.620  12.226  20.458  0.00  0.00    +0.000 A 
ATOM     24  C   UNL     1       0.482  13.413  21.200  0.00  0.00    +0.000 A 
ATOM     25  C   UNL     1      -0.340  13.463  22.323  0.00  0.00    +0.000 A 
ATOM     26  C   UNL     1      -1.029  12.319  22.717  0.00  0.00    +0.000 A 
ATOM     27  C   UNL     1      -0.901  11.133  21.984  0.00  0.00    +0.000 A 
ATOM     28  C   UNL     1      -0.076  11.060  20.844  0.00  0.00    +0.000 A 
BRANCH  23  30
ATOM     29  N   UNL     1       2.219  12.292  18.414  0.00  0.00    +0.000 NA
ATOM     30  C   UNL     1       1.490  12.259  19.317  0.00  0.00    +0.000 C 
ENDBRANCH  23  30
ENDBRANCH  22  28
ENDBRANCH  21  22
ENDBRANCH   1  21
TORSDOF 5
ENDMDL
MODEL 4
REMARK VINA RESULT:      -8.6      1.505      1.837
REMARK  Name = 
REMARK  5 active torsions:
REMARK  status: ('A' for Active; 'I' for Inactive)
REMARK    1  A    between atoms: C_2  and  C_3
REMARK    2  A    between atoms: C_8  and  C_9
REMARK    3  A    between atoms: C_9  and  S_10
REMARK    4  A    between atoms: S_10  and  C_11
REMARK    5  A    between atoms: C_22  and  C_24
REMARK                            x       y       z     vdW  Elec       q    Type
REMARK                         _______ _______ _______ _____ _____    ______ ____
ROOT
ATOM      1  C   UNL     1       2.085   8.016  19.400  0.00  0.00    +0.000 A 
ATOM      2  N   UNL     1       2.369   8.791  18.326  0.00  0.00    +0.000 NA
ATOM      3  N   UNL     1       3.149   8.331  17.325  0.00  0.00    +0.000 NA
ATOM      4  C   UNL     1       3.656   7.074  17.471  0.00  0.00    +0.000 A 
ATOM      5  C   UNL     1       4.554   6.310  16.677  0.00  0.00    +0.000 A 
ATOM      6  C   UNL     1       5.235   6.531  15.458  0.00  0.00    +0.000 A 
ATOM      7  C   UNL     1       6.073   5.539  14.932  0.00  0.00    +0.000 A 
ATOM      8  C   UNL     1       6.247   4.334  15.601  0.00  0.00    +0.000 A 
ATOM      9  C   UNL     1       5.594   4.094  16.810  0.00  0.00    +0.000 A 
ATOM     10  C   UNL     1       4.754   5.095  17.347  0.00  0.00    +0.000 A 
ATOM     11  N   UNL     1       3.982   5.106  18.522  0.00  0.00    +0.000 N 
ATOM     12  C   UNL     1       3.954   4.064  19.476  0.00  0.00    +0.000 C 
ATOM     13  O   UNL     1       4.878   3.257  19.503  0.00  0.00    +0.000 OA
ATOM     14  C   UNL     1       3.311   6.323  18.581  0.00  0.00    +0.000 A 
ATOM     15  N   UNL     1       2.518   6.757  19.575  0.00  0.00    +0.000 NA
ENDROOT
BRANCH  12  16
ATOM     16  C   UNL     1       2.730   3.970  20.370  0.00  0.00    +0.000 C 
ATOM     17  C   UNL     1       1.519   3.451  19.598  0.00  0.00    +0.000 C 
ATOM     18  C   UNL     1       0.586   2.917  20.673  0.00  0.00    +0.000 C 
ATOM     19  C   UNL     1       1.487   2.437  21.806  0.00  0.00    +0.000 C 
ATOM     20  C   UNL     1       2.897   2.916  21.472  0.00  0.00    +0.000 C 
ENDBRANCH  12  16
BRANCH   1  21
ATOM     21  S   UNL     1       1.255   8.679  20.834  0.00  0.00    +0.000 S 
BRANCH  21  22
ATOM     22  C   UNL     1      -0.356   9.240  20.192  0.00  0.00    +0.000 C 
BRANCH  22  28
ATOM     23  C   UNL     1      -1.069  11.190  18.647  0.00  0.00    +0.000 A 
ATOM     24  C   UNL     1      -0.935  12.531  18.243  0.00  0.00    +0.000 A 
ATOM     25  C   UNL     1       0.021  13.361  18.822  0.00  0.00    +0.000 A 
ATOM     26  C   UNL     1       0.859  12.852  19.810  0.00  0.00    +0.000 A 
ATOM     27  C   UNL     1       0.733  11.519  20.222  0.00  0.00    +0.000 A 
ATOM     28  C   UNL     1      -0.228  10.663  19.651  0.00  0.00    +0.000 A 
BRANCH  23  30
ATOM     29  N   UNL     1      -2.906   9.761  17.497  0.00  0.00    +0.000 NA
ATOM     30  C   UNL     1      -2.076  10.401  17.996  0.00  0.00    +0.000 C 
ENDBRANCH  23  30
ENDBRANCH  22  28
ENDBRANCH  21  22
ENDBRANCH   1  21
TORSDOF 5
ENDMDL
MODEL 5
REMARK VINA RESULT:      -8.6      1.318      1.940
REMARK  Name = 
REMARK  5 active torsions:
REMARK  status: ('A' for Active; 'I' for Inactive)
REMARK    1  A    between atoms: C_2  and  C_3
REMARK    2  A    between atoms: C_8  and  C_9
REMARK    3  A    between atoms: C_9  and  S_10
REMARK    4  A    between atoms: S_10  and  C_11
REMARK    5  A    between atoms: C_22  and  C_24
REMARK                            x       y       z     vdW  Elec       q    Type
REMARK                         _______ _______ _______ _____ _____    ______ ____
ROOT
ATOM      1  C   UNL     1       2.115   7.973  19.222  0.00  0.00    +0.000 A 
ATOM      2  N   UNL     1       2.417   8.714  18.130  0.00  0.00    +0.000 NA
ATOM      3  N   UNL     1       3.220   8.227  17.161  0.00  0.00    +0.000 NA
ATOM      4  C   UNL     1       3.731   6.979  17.357  0.00  0.00    +0.000 A 
ATOM      5  C   UNL     1       4.648   6.196  16.607  0.00  0.00    +0.000 A 
ATOM      6  C   UNL     1       5.353   6.381  15.395  0.00  0.00    +0.000 A 
ATOM      7  C   UNL     1       6.207   5.377  14.919  0.00  0.00    +0.000 A 
ATOM      8  C   UNL     1       6.374   4.196  15.629  0.00  0.00    +0.000 A 
ATOM      9  C   UNL     1       5.697   3.991  16.832  0.00  0.00    +0.000 A 
ATOM     10  C   UNL     1       4.841   5.004  17.320  0.00  0.00    +0.000 A 
ATOM     11  N   UNL     1       4.045   5.048  18.477  0.00  0.00    +0.000 N 
ATOM     12  C   UNL     1       4.003   4.036  19.464  0.00  0.00    +0.000 C 
ATOM     13  O   UNL     1       4.931   3.236  19.536  0.00  0.00    +0.000 OA
ATOM     14  C   UNL     1       3.367   6.261  18.483  0.00  0.00    +0.000 A 
ATOM     15  N   UNL     1       2.551   6.723  19.446  0.00  0.00    +0.000 NA
ENDROOT
BRANCH  12  16
ATOM     16  C   UNL     1       2.761   3.964  20.335  0.00  0.00    +0.000 C 
ATOM     17  C   UNL     1       1.553   3.478  19.538  0.00  0.00    +0.000 C 
ATOM     18  C   UNL     1       0.589   2.957  20.592  0.00  0.00    +0.000 C 
ATOM     19  C   UNL     1       1.459   2.449  21.738  0.00  0.00    +0.000 C 
ATOM     20  C   UNL     1       2.885   2.898  21.432  0.00  0.00    +0.000 C 
ENDBRANCH  12  16
BRANCH   1  21
ATOM     21  S   UNL     1       1.253   8.677  20.617  0.00  0.00    +0.000 S 
BRANCH  21  22
ATOM     22  C   UNL     1      -0.027   9.730  19.859  0.00  0.00    +0.000 C 
BRANCH  22  28
ATOM     23  C   UNL     1       0.146  11.950  21.178  0.00  0.00    +0.000 A 
ATOM     24  C   UNL     1       0.591  13.282  21.262  0.00  0.00    +0.000 A 
ATOM     25  C   UNL     1       1.254  13.883  20.195  0.00  0.00    +0.000 A 
ATOM     26  C   UNL     1       1.472  13.155  19.029  0.00  0.00    +0.000 A 
ATOM     27  C   UNL     1       1.036  11.828  18.935  0.00  0.00    +0.000 A 
ATOM     28  C   UNL     1       0.364  11.200  20.002  0.00  0.00    +0.000 A 
BRANCH  23  30
ATOM     29  N   UNL     1      -1.057  10.976  23.263  0.00  0.00    +0.000 NA
ATOM     30  C   UNL     1      -0.534  11.408  22.320  0.00  0.00    +0.000 C 
ENDBRANCH  23  30
ENDBRANCH  22  28
ENDBRANCH  21  22
ENDBRANCH   1  21
TORSDOF 5
ENDMDL
MODEL 6
REMARK VINA RESULT:      -8.5      1.460      1.769
REMARK  Name = 
REMARK  5 active torsions:
REMARK  status: ('A' for Active; 'I' for Inactive)
REMARK    1  A    between atoms: C_2  and  C_3
REMARK    2  A    between atoms: C_8  and  C_9
REMARK    3  A    between atoms: C_9  and  S_10
REMARK    4  A    between atoms: S_10  and  C_11
REMARK    5  A    between atoms: C_22  and  C_24
REMARK                            x       y       z     vdW  Elec       q    Type
REMARK                         _______ _______ _______ _____ _____    ______ ____
ROOT
ATOM      1  C   UNL     1       2.035   8.001  19.239  0.00  0.00    +0.000 A 
ATOM      2  N   UNL     1       2.345   8.754  18.157  0.00  0.00    +0.000 NA
ATOM      3  N   UNL     1       3.170   8.285  17.198  0.00  0.00    +0.000 NA
ATOM      4  C   UNL     1       3.695   7.043  17.394  0.00  0.00    +0.000 A 
ATOM      5  C   UNL     1       4.636   6.277  16.653  0.00  0.00    +0.000 A 
ATOM      6  C   UNL     1       5.357   6.482  15.455  0.00  0.00    +0.000 A 
ATOM      7  C   UNL     1       6.233   5.493  14.985  0.00  0.00    +0.000 A 
ATOM      8  C   UNL     1       6.404   4.309  15.690  0.00  0.00    +0.000 A 
ATOM      9  C   UNL     1       5.711   4.086  16.880  0.00  0.00    +0.000 A 
ATOM     10  C   UNL     1       4.834   5.083  17.360  0.00  0.00    +0.000 A 
ATOM     11  N   UNL     1       4.018   5.108  18.505  0.00  0.00    +0.000 N 
ATOM     12  C   UNL     1       3.974   4.089  19.484  0.00  0.00    +0.000 C 
ATOM     13  O   UNL     1       4.912   3.301  19.565  0.00  0.00    +0.000 OA
ATOM     14  C   UNL     1       3.323   6.312  18.509  0.00  0.00    +0.000 A 
ATOM     15  N   UNL     1       2.485   6.755  19.461  0.00  0.00    +0.000 NA
ENDROOT
BRANCH  12  16
ATOM     16  C   UNL     1       2.720   3.993  20.334  0.00  0.00    +0.000 C 
ATOM     17  C   UNL     1       1.536   3.478  19.518  0.00  0.00    +0.000 C 
ATOM     18  C   UNL     1       0.566   2.940  20.558  0.00  0.00    +0.000 C 
ATOM     19  C   UNL     1       1.426   2.455  21.721  0.00  0.00    +0.000 C 
ATOM     20  C   UNL     1       2.847   2.934  21.438  0.00  0.00    +0.000 C 
ENDBRANCH  12  16
BRANCH   1  21
ATOM     21  S   UNL     1       1.141   8.682  20.624  0.00  0.00    +0.000 S 
BRANCH  21  22
ATOM     22  C   UNL     1       1.248  10.484  20.375  0.00  0.00    +0.000 C 
BRANCH  22  28
ATOM     23  C   UNL     1       0.003  12.254  18.956  0.00  0.00    +0.000 A 
ATOM     24  C   UNL     1      -1.060  12.596  18.099  0.00  0.00    +0.000 A 
ATOM     25  C   UNL     1      -2.038  11.664  17.765  0.00  0.00    +0.000 A 
ATOM     26  C   UNL     1      -1.964  10.378  18.293  0.00  0.00    +0.000 A 
ATOM     27  C   UNL     1      -0.910  10.025  19.144  0.00  0.00    +0.000 A 
ATOM     28  C   UNL     1       0.091  10.952  19.494  0.00  0.00    +0.000 A 
BRANCH  23  30
ATOM     29  N   UNL     1       1.760  14.082  19.513  0.00  0.00    +0.000 NA
ATOM     30  C   UNL     1       0.966  13.276  19.253  0.00  0.00    +0.000 C 
ENDBRANCH  23  30
ENDBRANCH  22  28
ENDBRANCH  21  22
ENDBRANCH   1  21
TORSDOF 5
ENDMDL
MODEL 7
REMARK VINA RESULT:      -8.1      5.913     10.167
REMARK  Name = 
REMARK  5 active torsions:
REMARK  status: ('A' for Active; 'I' for Inactive)
REMARK    1  A    between atoms: C_2  and  C_3
REMARK    2  A    between atoms: C_8  and  C_9
REMARK    3  A    between atoms: C_9  and  S_10
REMARK    4  A    between atoms: S_10  and  C_11
REMARK    5  A    between atoms: C_22  and  C_24
REMARK                            x       y       z     vdW  Elec       q    Type
REMARK                         _______ _______ _______ _____ _____    ______ ____
ROOT
ATOM      1  C   UNL     1      -1.551  13.756  20.651  0.00  0.00    +0.000 A 
ATOM      2  N   UNL     1      -1.823  14.069  21.940  0.00  0.00    +0.000 NA
ATOM      3  N   UNL     1      -3.016  13.763  22.492  0.00  0.00    +0.000 NA
ATOM      4  C   UNL     1      -3.931  13.162  21.681  0.00  0.00    +0.000 A 
ATOM      5  C   UNL     1      -5.282  12.775  21.891  0.00  0.00    +0.000 A 
ATOM      6  C   UNL     1      -6.173  12.836  22.986  0.00  0.00    +0.000 A 
ATOM      7  C   UNL     1      -7.481  12.350  22.855  0.00  0.00    +0.000 A 
ATOM      8  C   UNL     1      -7.916  11.809  21.652  0.00  0.00    +0.000 A 
ATOM      9  C   UNL     1      -7.060  11.745  20.553  0.00  0.00    +0.000 A 
ATOM     10  C   UNL     1      -5.743  12.240  20.679  0.00  0.00    +0.000 A 
ATOM     11  N   UNL     1      -4.690  12.285  19.748  0.00  0.00    +0.000 N 
ATOM     12  C   UNL     1      -4.789  11.865  18.401  0.00  0.00    +0.000 C 
ATOM     13  O   UNL     1      -5.899  11.779  17.885  0.00  0.00    +0.000 OA
ATOM     14  C   UNL     1      -3.586  12.847  20.378  0.00  0.00    +0.000 A 
ATOM     15  N   UNL     1      -2.395  13.124  19.820  0.00  0.00    +0.000 NA
ENDROOT
BRANCH  12  16
ATOM     16  C   UNL     1      -3.502  11.476  17.697  0.00  0.00    +0.000 C 
ATOM     17  C   UNL     1      -3.074  10.058  18.068  0.00  0.00    +0.000 C 
ATOM     18  C   UNL     1      -2.148   9.635  16.939  0.00  0.00    +0.000 C 
ATOM     19  C   UNL     1      -2.639  10.373  15.698  0.00  0.00    +0.000 C 
ATOM     20  C   UNL     1      -3.680  11.381  16.176  0.00  0.00    +0.000 C 
ENDBRANCH  12  16
BRANCH   1  21
ATOM     21  S   UNL     1      -0.081  14.354  19.837  0.00  0.00    +0.000 S 
BRANCH  21  22
ATOM     22  C   UNL     1       1.261  13.353  20.557  0.00  0.00    +0.000 C 
BRANCH  22  28
ATOM     23  C   UNL     1       0.653  10.838  20.541  0.00  0.00    +0.000 A 
ATOM     24  C   UNL     1       0.630   9.598  19.877  0.00  0.00    +0.000 A 
ATOM     25  C   UNL     1       1.196   9.452  18.613  0.00  0.00    +0.000 A 
ATOM     26  C   UNL     1       1.797  10.550  18.004  0.00  0.00    +0.000 A 
ATOM     27  C   UNL     1       1.823  11.790  18.653  0.00  0.00    +0.000 A 
ATOM     28  C   UNL     1       1.256  11.959  19.932  0.00  0.00    +0.000 A 
BRANCH  23  30
ATOM     29  N   UNL     1      -0.409  10.969  22.906  0.00  0.00    +0.000 NA
ATOM     30  C   UNL     1       0.052  10.901  21.843  0.00  0.00    +0.000 C 
ENDBRANCH  23  30
ENDBRANCH  22  28
ENDBRANCH  21  22
ENDBRANCH   1  21
TORSDOF 5
ENDMDL
MODEL 8
REMARK VINA RESULT:      -7.9      6.146      9.183
REMARK  Name = 
REMARK  5 active torsions:
REMARK  status: ('A' for Active; 'I' for Inactive)
REMARK    1  A    between atoms: C_2  and  C_3
REMARK    2  A    between atoms: C_8  and  C_9
REMARK    3  A    between atoms: C_9  and  S_10
REMARK    4  A    between atoms: S_10  and  C_11
REMARK    5  A    between atoms: C_22  and  C_24
REMARK                            x       y       z     vdW  Elec       q    Type
REMARK                         _______ _______ _______ _____ _____    ______ ____
ROOT
ATOM      1  C   UNL     1      -5.197  12.275  18.638  0.00  0.00    +0.000 A 
ATOM      2  N   UNL     1      -4.984  11.520  17.535  0.00  0.00    +0.000 NA
ATOM      3  N   UNL     1      -3.806  10.890  17.341  0.00  0.00    +0.000 NA
ATOM      4  C   UNL     1      -2.845  11.083  18.287  0.00  0.00    +0.000 A 
ATOM      5  C   UNL     1      -1.493  10.653  18.374  0.00  0.00    +0.000 A 
ATOM      6  C   UNL     1      -0.648   9.866  17.558  0.00  0.00    +0.000 A 
ATOM      7  C   UNL     1       0.677   9.624  17.948  0.00  0.00    +0.000 A 
ATOM      8  C   UNL     1       1.173  10.155  19.132  0.00  0.00    +0.000 A 
ATOM      9  C   UNL     1       0.362  10.942  19.950  0.00  0.00    +0.000 A 
ATOM     10  C   UNL     1      -0.971  11.194  19.557  0.00  0.00    +0.000 A 
ATOM     11  N   UNL     1      -1.987  11.930  20.192  0.00  0.00    +0.000 N 
ATOM     12  C   UNL     1      -1.825  12.652  21.397  0.00  0.00    +0.000 C 
ATOM     13  O   UNL     1      -0.693  12.966  21.754  0.00  0.00    +0.000 OA
ATOM     14  C   UNL     1      -3.129  11.848  19.405  0.00  0.00    +0.000 A 
ATOM     15  N   UNL     1      -4.304  12.463  19.624  0.00  0.00    +0.000 NA
ENDROOT
BRANCH  12  16
ATOM     16  C   UNL     1      -3.073  12.933  22.214  0.00  0.00    +0.000 C 
ATOM     17  C   UNL     1      -3.108  12.081  23.481  0.00  0.00    +0.000 C 
ATOM     18  C   UNL     1      -4.059  12.822  24.408  0.00  0.00    +0.000 C 
ATOM     19  C   UNL     1      -3.925  14.299  24.049  0.00  0.00    +0.000 C 
ATOM     20  C   UNL     1      -3.088  14.362  22.774  0.00  0.00    +0.000 C 
ENDBRANCH  12  16
BRANCH   1  21
ATOM     21  S   UNL     1      -6.649  13.298  18.802  0.00  0.00    +0.000 S 
BRANCH  21  22
ATOM     22  C   UNL     1      -7.472  12.661  20.298  0.00  0.00    +0.000 C 
BRANCH  22  28
ATOM     23  C   UNL     1      -7.526  13.409  22.775  0.00  0.00    +0.000 A 
ATOM     24  C   UNL     1      -7.409  14.427  23.740  0.00  0.00    +0.000 A 
ATOM     25  C   UNL     1      -7.190  15.749  23.362  0.00  0.00    +0.000 A 
ATOM     26  C   UNL     1      -7.092  16.065  22.011  0.00  0.00    +0.000 A 
ATOM     27  C   UNL     1      -7.204  15.061  21.042  0.00  0.00    +0.000 A 
ATOM     28  C   UNL     1      -7.425  13.717  21.401  0.00  0.00    +0.000 A 
BRANCH  23  30
ATOM     29  N   UNL     1      -7.917  10.985  23.617  0.00  0.00    +0.000 NA
ATOM     30  C   UNL     1      -7.757  12.074  23.249  0.00  0.00    +0.000 C 
ENDBRANCH  23  30
ENDBRANCH  22  28
ENDBRANCH  21  22
ENDBRANCH   1  21
TORSDOF 5
ENDMDL
MODEL 9
REMARK VINA RESULT:      -7.8      5.654      8.759
REMARK  Name = 
REMARK  5 active torsions:
REMARK  status: ('A' for Active; 'I' for Inactive)
REMARK    1  A    between atoms: C_2  and  C_3
REMARK    2  A    between atoms: C_8  and  C_9
REMARK    3  A    between atoms: C_9  and  S_10
REMARK    4  A    between atoms: S_10  and  C_11
REMARK    5  A    between atoms: C_22  and  C_24
REMARK                            x       y       z     vdW  Elec       q    Type
REMARK                         _______ _______ _______ _____ _____    ______ ____
ROOT
ATOM      1  C   UNL     1      -4.432  11.578  17.605  0.00  0.00    +0.000 A 
ATOM      2  N   UNL     1      -3.970  10.741  16.647  0.00  0.00    +0.000 NA
ATOM      3  N   UNL     1      -2.750  10.173  16.750  0.00  0.00    +0.000 NA
ATOM      4  C   UNL     1      -2.006  10.511  17.841  0.00  0.00    +0.000 A 
ATOM      5  C   UNL     1      -0.682  10.177  18.233  0.00  0.00    +0.000 A 
ATOM      6  C   UNL     1       0.344   9.376  17.681  0.00  0.00    +0.000 A 
ATOM      7  C   UNL     1       1.573   9.255  18.344  0.00  0.00    +0.000 A 
ATOM      8  C   UNL     1       1.799   9.921  19.541  0.00  0.00    +0.000 A 
ATOM      9  C   UNL     1       0.806  10.726  20.102  0.00  0.00    +0.000 A 
ATOM     10  C   UNL     1      -0.431  10.856  19.434  0.00  0.00    +0.000 A 
ATOM     11  N   UNL     1      -1.585  11.580  19.781  0.00  0.00    +0.000 N 
ATOM     12  C   UNL     1      -1.699  12.418  20.914  0.00  0.00    +0.000 C 
ATOM     13  O   UNL     1      -0.677  12.834  21.451  0.00  0.00    +0.000 OA
ATOM     14  C   UNL     1      -2.542  11.355  18.799  0.00  0.00    +0.000 A 
ATOM     15  N   UNL     1      -3.763  11.911  18.722  0.00  0.00    +0.000 NA
ENDROOT
BRANCH  12  16
ATOM     16  C   UNL     1      -3.096  12.692  21.440  0.00  0.00    +0.000 C 
ATOM     17  C   UNL     1      -3.208  12.341  22.922  0.00  0.00    +0.000 C 
ATOM     18  C   UNL     1      -4.409  13.137  23.409  0.00  0.00    +0.000 C 
ATOM     19  C   UNL     1      -4.456  14.392  22.544  0.00  0.00    +0.000 C 
ATOM     20  C   UNL     1      -3.437  14.188  21.427  0.00  0.00    +0.000 C 
ENDBRANCH  12  16
BRANCH   1  21
ATOM     21  S   UNL     1      -5.932  12.518  17.379  0.00  0.00    +0.000 S 
BRANCH  21  22
ATOM     22  C   UNL     1      -7.204  11.530  18.231  0.00  0.00    +0.000 C 
BRANCH  22  28
ATOM     23  C   UNL     1      -7.619  11.366  20.780  0.00  0.00    +0.000 A 
ATOM     24  C   UNL     1      -7.821  11.998  22.021  0.00  0.00    +0.000 A 
ATOM     25  C   UNL     1      -7.900  13.384  22.113  0.00  0.00    +0.000 A 
ATOM     26  C   UNL     1      -7.781  14.154  20.960  0.00  0.00    +0.000 A 
ATOM     27  C   UNL     1      -7.576  13.537  19.719  0.00  0.00    +0.000 A 
ATOM     28  C   UNL     1      -7.494  12.135  19.603  0.00  0.00    +0.000 A 
BRANCH  23  30
ATOM     29  N   UNL     1      -7.531   8.772  20.745  0.00  0.00    +0.000 NA
ATOM     30  C   UNL     1      -7.556   9.932  20.771  0.00  0.00    +0.000 C 
ENDBRANCH  23  30
ENDBRANCH  22  28
ENDBRANCH  21  22
ENDBRANCH   1  21
TORSDOF 5
ENDMDL
