MODEL 1
REMARK VINA RESULT:      -9.3      0.000      0.000
REMARK  Name = 
REMARK  3 active torsions:
REMARK  status: ('A' for Active; 'I' for Inactive)
REMARK    1  A    between atoms: C_1  and  N_2
REMARK    2  A    between atoms: C_9  and  C_10
REMARK    3  A    between atoms: C_13  and  C_14
REMARK                            x       y       z     vdW  Elec       q    Type
REMARK                         _______ _______ _______ _____ _____    ______ ____
ROOT
ATOM      1  C   UNL     1       2.164   6.336  20.041  0.00  0.00    +0.000 A 
ATOM      2  C   UNL     1       3.140   5.924  19.209  0.00  0.00    +0.000 A 
ATOM      3  N   UNL     1       3.556   4.602  19.257  0.00  0.00    +0.000 N 
ATOM      4  C   UNL     1       4.481   3.869  18.529  0.00  0.00    +0.000 A 
ATOM      5  C   UNL     1       4.416   2.608  19.112  0.00  0.00    +0.000 A 
ATOM      6  N   UNL     1       3.496   2.544  20.129  0.00  0.00    +0.000 NA
ATOM      7  C   UNL     1       3.005   3.759  20.181  0.00  0.00    +0.000 A 
ATOM      8  C   UNL     1       2.007   4.274  21.076  0.00  0.00    +0.000 A 
ATOM      9  N   UNL     1       1.595   5.509  21.006  0.00  0.00    +0.000 NA
ENDROOT
BRANCH   1  18
ATOM     10  C   UNL     1       0.322  15.820  18.883  0.00  0.00    +0.000 C 
ATOM     11  N   UNL     1      -0.069  14.512  19.400  0.00  0.00    +0.000 NA
ATOM     12  C   UNL     1       0.913  14.026  20.407  0.00  0.00    +0.000 C 
ATOM     13  C   UNL     1       0.590  12.597  20.929  0.00  0.00    +0.000 C 
ATOM     14  N   UNL     1       0.504  11.718  19.764  0.00  0.00    +0.000 N 
ATOM     15  C   UNL     1       0.850  10.391  19.859  0.00  0.00    +0.000 A 
ATOM     16  C   UNL     1       1.324   9.748  18.716  0.00  0.00    +0.000 A 
ATOM     17  C   UNL     1       1.761   8.432  18.775  0.00  0.00    +0.000 A 
ATOM     18  C   UNL     1       1.703   7.740  19.976  0.00  0.00    +0.000 A 
ATOM     19  C   UNL     1       1.232   8.461  21.078  0.00  0.00    +0.000 A 
ATOM     20  N   UNL     1       0.819   9.757  21.047  0.00  0.00    +0.000 NA
ATOM     21  C   UNL     1      -0.517  12.117  18.794  0.00  0.00    +0.000 C 
ATOM     22  C   UNL     1      -0.171  13.534  18.291  0.00  0.00    +0.000 C 
ENDBRANCH   1  18
BRANCH   4  23
ATOM     23  C   UNL     1       5.346   4.371  17.453  0.00  0.00    +0.000 A 
ATOM     24  C   UNL     1       6.352   5.322  17.684  0.00  0.00    +0.000 A 
ATOM     25  C   UNL     1       7.215   5.725  16.663  0.00  0.00    +0.000 A 
ATOM     26  C   UNL     1       7.052   5.222  15.377  0.00  0.00    +0.000 A 
ATOM     27  C   UNL     1       6.022   4.321  15.120  0.00  0.00    +0.000 A 
ATOM     28 CL   UNL     1       5.801   3.718  13.523  0.00  0.00    +0.000 Cl
ATOM     29  C   UNL     1       5.177   3.894  16.145  0.00  0.00    +0.000 A 
ENDBRANCH   4  23
TORSDOF 2
ENDMDL
MODEL 2
REMARK VINA RESULT:      -9.1      0.787      1.400
REMARK  Name = 
REMARK  3 active torsions:
REMARK  status: ('A' for Active; 'I' for Inactive)
REMARK    1  A    between atoms: C_1  and  N_2
REMARK    2  A    between atoms: C_9  and  C_10
REMARK    3  A    between atoms: C_13  and  C_14
REMARK                            x       y       z     vdW  Elec       q    Type
REMARK                         _______ _______ _______ _____ _____    ______ ____
ROOT
ATOM      1  C   UNL     1       2.095   6.284  19.998  0.00  0.00    +0.000 A 
ATOM      2  C   UNL     1       3.084   5.810  19.217  0.00  0.00    +0.000 A 
ATOM      3  N   UNL     1       3.384   4.456  19.252  0.00  0.00    +0.000 N 
ATOM      4  C   UNL     1       4.289   3.663  18.562  0.00  0.00    +0.000 A 
ATOM      5  C   UNL     1       4.080   2.399  19.103  0.00  0.00    +0.000 A 
ATOM      6  N   UNL     1       3.095   2.391  20.059  0.00  0.00    +0.000 NA
ATOM      7  C   UNL     1       2.705   3.642  20.116  0.00  0.00    +0.000 A 
ATOM      8  C   UNL     1       1.699   4.219  20.961  0.00  0.00    +0.000 A 
ATOM      9  N   UNL     1       1.397   5.487  20.902  0.00  0.00    +0.000 NA
ENDROOT
BRANCH   1  18
ATOM     10  C   UNL     1      -1.321  15.389  20.311  0.00  0.00    +0.000 C 
ATOM     11  N   UNL     1      -0.271  14.447  19.935  0.00  0.00    +0.000 NA
ATOM     12  C   UNL     1      -0.777  13.458  18.945  0.00  0.00    +0.000 C 
ATOM     13  C   UNL     1       0.278  12.377  18.574  0.00  0.00    +0.000 C 
ATOM     14  N   UNL     1       0.711  11.748  19.820  0.00  0.00    +0.000 N 
ATOM     15  C   UNL     1       1.108  10.432  19.840  0.00  0.00    +0.000 A 
ATOM     16  C   UNL     1       0.945   9.709  21.021  0.00  0.00    +0.000 A 
ATOM     17  C   UNL     1       1.256   8.358  21.073  0.00  0.00    +0.000 A 
ATOM     18  C   UNL     1       1.759   7.724  19.945  0.00  0.00    +0.000 A 
ATOM     19  C   UNL     1       1.876   8.512  18.798  0.00  0.00    +0.000 A 
ATOM     20  N   UNL     1       1.557   9.833  18.719  0.00  0.00    +0.000 NA
ATOM     21  C   UNL     1       1.298  12.681  20.782  0.00  0.00    +0.000 C 
ATOM     22  C   UNL     1       0.232  13.738  21.136  0.00  0.00    +0.000 C 
ENDBRANCH   1  18
BRANCH   4  23
ATOM     23  C   UNL     1       5.260   4.114  17.556  0.00  0.00    +0.000 A 
ATOM     24  C   UNL     1       6.442   4.785  17.907  0.00  0.00    +0.000 A 
ATOM     25  C   UNL     1       7.389   5.132  16.942  0.00  0.00    +0.000 A 
ATOM     26  C   UNL     1       7.145   4.863  15.601  0.00  0.00    +0.000 A 
ATOM     27  C   UNL     1       5.951   4.249  15.232  0.00  0.00    +0.000 A 
ATOM     28 CL   UNL     1       5.634   3.938  13.569  0.00  0.00    +0.000 Cl
ATOM     29  C   UNL     1       5.016   3.873  16.197  0.00  0.00    +0.000 A 
ENDBRANCH   4  23
TORSDOF 2
ENDMDL
MODEL 3
REMARK VINA RESULT:      -9.0      1.084      1.393
REMARK  Name = 
REMARK  3 active torsions:
REMARK  status: ('A' for Active; 'I' for Inactive)
REMARK    1  A    between atoms: C_1  and  N_2
REMARK    2  A    between atoms: C_9  and  C_10
REMARK    3  A    between atoms: C_13  and  C_14
REMARK                            x       y       z     vdW  Elec       q    Type
REMARK                         _______ _______ _______ _____ _____    ______ ____
ROOT
ATOM      1  C   UNL     1       2.097   6.331  20.112  0.00  0.00    +0.000 A 
ATOM      2  C   UNL     1       3.110   5.937  19.317  0.00  0.00    +0.000 A 
ATOM      3  N   UNL     1       3.525   4.614  19.355  0.00  0.00    +0.000 N 
ATOM      4  C   UNL     1       4.483   3.897  18.655  0.00  0.00    +0.000 A 
ATOM      5  C   UNL     1       4.394   2.624  19.208  0.00  0.00    +0.000 A 
ATOM      6  N   UNL     1       3.429   2.538  20.181  0.00  0.00    +0.000 NA
ATOM      7  C   UNL     1       2.935   3.752  20.237  0.00  0.00    +0.000 A 
ATOM      8  C   UNL     1       1.897   4.247  21.096  0.00  0.00    +0.000 A 
ATOM      9  N   UNL     1       1.486   5.483  21.033  0.00  0.00    +0.000 NA
ENDROOT
BRANCH   1  18
ATOM     10  C   UNL     1       0.277  15.828  19.035  0.00  0.00    +0.000 C 
ATOM     11  N   UNL     1      -0.124  14.514  19.528  0.00  0.00    +0.000 NA
ATOM     12  C   UNL     1       0.837  14.015  20.548  0.00  0.00    +0.000 C 
ATOM     13  C   UNL     1       0.504  12.580  21.046  0.00  0.00    +0.000 C 
ATOM     14  N   UNL     1       0.442  11.716  19.868  0.00  0.00    +0.000 N 
ATOM     15  C   UNL     1       0.786  10.388  19.954  0.00  0.00    +0.000 A 
ATOM     16  C   UNL     1       1.283   9.759  18.813  0.00  0.00    +0.000 A 
ATOM     17  C   UNL     1       1.719   8.442  18.864  0.00  0.00    +0.000 A 
ATOM     18  C   UNL     1       1.637   7.735  20.056  0.00  0.00    +0.000 A 
ATOM     19  C   UNL     1       1.144   8.442  21.156  0.00  0.00    +0.000 A 
ATOM     20  N   UNL     1       0.732   9.739  21.133  0.00  0.00    +0.000 NA
ATOM     21  C   UNL     1      -0.560  12.127  18.884  0.00  0.00    +0.000 C 
ATOM     22  C   UNL     1      -0.204  13.550  18.405  0.00  0.00    +0.000 C 
ENDBRANCH   1  18
BRANCH   4  23
ATOM     23  C   UNL     1       5.395   4.421  17.629  0.00  0.00    +0.000 A 
ATOM     24  C   UNL     1       5.557   3.794  16.384  0.00  0.00    +0.000 A 
ATOM     25  C   UNL     1       6.367   4.353  15.393  0.00  0.00    +0.000 A 
ATOM     26  C   UNL     1       7.072   5.523  15.651  0.00  0.00    +0.000 A 
ATOM     27  C   UNL     1       6.965   6.125  16.902  0.00  0.00    +0.000 A 
ATOM     28 CL   UNL     1       7.858   7.559  17.234  0.00  0.00    +0.000 Cl
ATOM     29  C   UNL     1       6.134   5.585  17.884  0.00  0.00    +0.000 A 
ENDBRANCH   4  23
TORSDOF 2
ENDMDL
MODEL 4
REMARK VINA RESULT:      -8.7      1.355      1.993
REMARK  Name = 
REMARK  3 active torsions:
REMARK  status: ('A' for Active; 'I' for Inactive)
REMARK    1  A    between atoms: C_1  and  N_2
REMARK    2  A    between atoms: C_9  and  C_10
REMARK    3  A    between atoms: C_13  and  C_14
REMARK                            x       y       z     vdW  Elec       q    Type
REMARK                         _______ _______ _______ _____ _____    ______ ____
ROOT
ATOM      1  C   UNL     1       2.075   6.359  20.077  0.00  0.00    +0.000 A 
ATOM      2  C   UNL     1       3.081   5.946  19.282  0.00  0.00    +0.000 A 
ATOM      3  N   UNL     1       3.434   4.605  19.281  0.00  0.00    +0.000 N 
ATOM      4  C   UNL     1       4.369   3.868  18.570  0.00  0.00    +0.000 A 
ATOM      5  C   UNL     1       4.213   2.583  19.077  0.00  0.00    +0.000 A 
ATOM      6  N   UNL     1       3.230   2.509  20.033  0.00  0.00    +0.000 NA
ATOM      7  C   UNL     1       2.791   3.742  20.123  0.00  0.00    +0.000 A 
ATOM      8  C   UNL     1       1.764   4.255  20.985  0.00  0.00    +0.000 A 
ATOM      9  N   UNL     1       1.411   5.511  20.959  0.00  0.00    +0.000 NA
ENDROOT
BRANCH   1  18
ATOM     10  C   UNL     1      -1.672  15.318  20.698  0.00  0.00    +0.000 C 
ATOM     11  N   UNL     1      -0.606  14.423  20.257  0.00  0.00    +0.000 NA
ATOM     12  C   UNL     1      -1.121  13.429  19.277  0.00  0.00    +0.000 C 
ATOM     13  C   UNL     1      -0.045  12.395  18.838  0.00  0.00    +0.000 C 
ATOM     14  N   UNL     1       0.473  11.767  20.051  0.00  0.00    +0.000 N 
ATOM     15  C   UNL     1       0.922  10.467  20.031  0.00  0.00    +0.000 A 
ATOM     16  C   UNL     1       0.845   9.723  21.208  0.00  0.00    +0.000 A 
ATOM     17  C   UNL     1       1.210   8.384  21.223  0.00  0.00    +0.000 A 
ATOM     18  C   UNL     1       1.681   7.785  20.063  0.00  0.00    +0.000 A 
ATOM     19  C   UNL     1       1.710   8.593  18.923  0.00  0.00    +0.000 A 
ATOM     20  N   UNL     1       1.337   9.901  18.881  0.00  0.00    +0.000 NA
ATOM     21  C   UNL     1       1.071  12.709  20.998  0.00  0.00    +0.000 C 
ATOM     22  C   UNL     1      -0.017  13.718  21.420  0.00  0.00    +0.000 C 
ENDBRANCH   1  18
BRANCH   4  23
ATOM     23  C   UNL     1       5.320   4.384  17.575  0.00  0.00    +0.000 A 
ATOM     24  C   UNL     1       5.514   3.760  16.333  0.00  0.00    +0.000 A 
ATOM     25  C   UNL     1       6.362   4.312  15.371  0.00  0.00    +0.000 A 
ATOM     26  C   UNL     1       7.074   5.471  15.656  0.00  0.00    +0.000 A 
ATOM     27  C   UNL     1       6.935   6.070  16.905  0.00  0.00    +0.000 A 
ATOM     28 CL   UNL     1       7.835   7.491  17.271  0.00  0.00    +0.000 Cl
ATOM     29  C   UNL     1       6.065   5.538  17.858  0.00  0.00    +0.000 A 
ENDBRANCH   4  23
TORSDOF 2
ENDMDL
MODEL 5
REMARK VINA RESULT:      -8.2      3.098      9.304
REMARK  Name = 
REMARK  3 active torsions:
REMARK  status: ('A' for Active; 'I' for Inactive)
REMARK    1  A    between atoms: C_1  and  N_2
REMARK    2  A    between atoms: C_9  and  C_10
REMARK    3  A    between atoms: C_13  and  C_14
REMARK                            x       y       z     vdW  Elec       q    Type
REMARK                         _______ _______ _______ _____ _____    ______ ____
ROOT
ATOM      1  C   UNL     1       0.869  11.146  18.929  0.00  0.00    +0.000 A 
ATOM      2  C   UNL     1       1.728  12.171  19.090  0.00  0.00    +0.000 A 
ATOM      3  N   UNL     1       1.258  13.471  18.976  0.00  0.00    +0.000 N 
ATOM      4  C   UNL     1       1.855  14.714  19.122  0.00  0.00    +0.000 A 
ATOM      5  C   UNL     1       0.818  15.598  18.845  0.00  0.00    +0.000 A 
ATOM      6  N   UNL     1      -0.361  14.956  18.561  0.00  0.00    +0.000 NA
ATOM      7  C   UNL     1      -0.052  13.684  18.651  0.00  0.00    +0.000 A 
ATOM      8  C   UNL     1      -0.904  12.548  18.439  0.00  0.00    +0.000 A 
ATOM      9  N   UNL     1      -0.467  11.327  18.580  0.00  0.00    +0.000 NA
ENDROOT
BRANCH   1  18
ATOM     10  C   UNL     1       3.469   1.774  18.638  0.00  0.00    +0.000 C 
ATOM     11  N   UNL     1       3.486   3.068  19.312  0.00  0.00    +0.000 NA
ATOM     12  C   UNL     1       2.109   3.484  19.695  0.00  0.00    +0.000 C 
ATOM     13  C   UNL     1       2.059   4.897  20.342  0.00  0.00    +0.000 C 
ATOM     14  N   UNL     1       2.682   5.827  19.403  0.00  0.00    +0.000 N 
ATOM     15  C   UNL     1       2.277   7.139  19.341  0.00  0.00    +0.000 A 
ATOM     16  C   UNL     1       2.416   7.819  18.131  0.00  0.00    +0.000 A 
ATOM     17  C   UNL     1       1.951   9.119  17.992  0.00  0.00    +0.000 A 
ATOM     18  C   UNL     1       1.362   9.759  19.073  0.00  0.00    +0.000 A 
ATOM     19  C   UNL     1       1.244   9.004  20.244  0.00  0.00    +0.000 A 
ATOM     20  N   UNL     1       1.674   7.722  20.395  0.00  0.00    +0.000 NA
ATOM     21  C   UNL     1       4.070   5.498  19.075  0.00  0.00    +0.000 C 
ATOM     22  C   UNL     1       4.090   4.096  18.432  0.00  0.00    +0.000 C 
ENDBRANCH   1  18
BRANCH   4  23
ATOM     23  C   UNL     1       3.266  14.979  19.432  0.00  0.00    +0.000 A 
ATOM     24  C   UNL     1       3.682  15.430  20.694  0.00  0.00    +0.000 A 
ATOM     25  C   UNL     1       5.036  15.598  20.993  0.00  0.00    +0.000 A 
ATOM     26  C   UNL     1       5.996  15.368  20.014  0.00  0.00    +0.000 A 
ATOM     27  C   UNL     1       5.595  14.974  18.740  0.00  0.00    +0.000 A 
ATOM     28 CL   UNL     1       6.779  14.715  17.518  0.00  0.00    +0.000 Cl
ATOM     29  C   UNL     1       4.245  14.777  18.448  0.00  0.00    +0.000 A 
ENDBRANCH   4  23
TORSDOF 2
ENDMDL
MODEL 6
REMARK VINA RESULT:      -8.2      3.450      9.348
REMARK  Name = 
REMARK  3 active torsions:
REMARK  status: ('A' for Active; 'I' for Inactive)
REMARK    1  A    between atoms: C_1  and  N_2
REMARK    2  A    between atoms: C_9  and  C_10
REMARK    3  A    between atoms: C_13  and  C_14
REMARK                            x       y       z     vdW  Elec       q    Type
REMARK                         _______ _______ _______ _____ _____    ______ ____
ROOT
ATOM      1  C   UNL     1       0.897  10.780  18.980  0.00  0.00    +0.000 A 
ATOM      2  C   UNL     1       1.759  11.816  19.001  0.00  0.00    +0.000 A 
ATOM      3  N   UNL     1       1.265  13.108  18.909  0.00  0.00    +0.000 N 
ATOM      4  C   UNL     1       1.862  14.359  18.941  0.00  0.00    +0.000 A 
ATOM      5  C   UNL     1       0.789  15.227  18.771  0.00  0.00    +0.000 A 
ATOM      6  N   UNL     1      -0.409  14.568  18.657  0.00  0.00    +0.000 NA
ATOM      7  C   UNL     1      -0.078  13.302  18.745  0.00  0.00    +0.000 A 
ATOM      8  C   UNL     1      -0.937  12.155  18.675  0.00  0.00    +0.000 A 
ATOM      9  N   UNL     1      -0.473  10.942  18.796  0.00  0.00    +0.000 NA
ENDROOT
BRANCH   1  18
ATOM     10  C   UNL     1       3.667   1.462  18.554  0.00  0.00    +0.000 C 
ATOM     11  N   UNL     1       3.673   2.751  19.240  0.00  0.00    +0.000 NA
ATOM     12  C   UNL     1       2.297   3.137  19.654  0.00  0.00    +0.000 C 
ATOM     13  C   UNL     1       2.234   4.544  20.314  0.00  0.00    +0.000 C 
ATOM     14  N   UNL     1       2.820   5.493  19.370  0.00  0.00    +0.000 N 
ATOM     15  C   UNL     1       2.388   6.798  19.328  0.00  0.00    +0.000 A 
ATOM     16  C   UNL     1       2.491   7.490  18.122  0.00  0.00    +0.000 A 
ATOM     17  C   UNL     1       1.998   8.782  18.003  0.00  0.00    +0.000 A 
ATOM     18  C   UNL     1       1.420   9.402  19.102  0.00  0.00    +0.000 A 
ATOM     19  C   UNL     1       1.339   8.635  20.268  0.00  0.00    +0.000 A 
ATOM     20  N   UNL     1       1.796   7.360  20.399  0.00  0.00    +0.000 NA
ATOM     21  C   UNL     1       4.207   5.193  19.012  0.00  0.00    +0.000 C 
ATOM     22  C   UNL     1       4.240   3.797  18.356  0.00  0.00    +0.000 C 
ENDBRANCH   1  18
BRANCH   4  23
ATOM     23  C   UNL     1       3.298  14.642  19.063  0.00  0.00    +0.000 A 
ATOM     24  C   UNL     1       4.122  14.821  17.941  0.00  0.00    +0.000 A 
ATOM     25  C   UNL     1       5.468  15.169  18.079  0.00  0.00    +0.000 A 
ATOM     26  C   UNL     1       6.026  15.291  19.346  0.00  0.00    +0.000 A 
ATOM     27  C   UNL     1       5.235  15.061  20.469  0.00  0.00    +0.000 A 
ATOM     28 CL   UNL     1       5.930  15.185  22.038  0.00  0.00    +0.000 Cl
ATOM     29  C   UNL     1       3.883  14.742  20.334  0.00  0.00    +0.000 A 
ENDBRANCH   4  23
TORSDOF 2
ENDMDL
MODEL 7
REMARK VINA RESULT:      -8.1      3.298      9.368
REMARK  Name = 
REMARK  3 active torsions:
REMARK  status: ('A' for Active; 'I' for Inactive)
REMARK    1  A    between atoms: C_1  and  N_2
REMARK    2  A    between atoms: C_9  and  C_10
REMARK    3  A    between atoms: C_13  and  C_14
REMARK                            x       y       z     vdW  Elec       q    Type
REMARK                         _______ _______ _______ _____ _____    ______ ____
ROOT
ATOM      1  C   UNL     1       0.388  10.123  20.320  0.00  0.00    +0.000 A 
ATOM      2  C   UNL     1      -0.749  10.491  19.699  0.00  0.00    +0.000 A 
ATOM      3  N   UNL     1      -1.581  11.420  20.305  0.00  0.00    +0.000 N 
ATOM      4  C   UNL     1      -2.769  12.026  19.925  0.00  0.00    +0.000 A 
ATOM      5  C   UNL     1      -3.075  12.836  21.012  0.00  0.00    +0.000 A 
ATOM      6  N   UNL     1      -2.132  12.761  22.007  0.00  0.00    +0.000 NA
ATOM      7  C   UNL     1      -1.256  11.903  21.543  0.00  0.00    +0.000 A 
ATOM      8  C   UNL     1      -0.057  11.430  22.175  0.00  0.00    +0.000 A 
ATOM      9  N   UNL     1       0.740  10.581  21.587  0.00  0.00    +0.000 NA
ENDROOT
BRANCH   1  18
ATOM     10  C   UNL     1       5.457   3.851  14.875  0.00  0.00    +0.000 C 
ATOM     11  N   UNL     1       5.271   4.566  16.134  0.00  0.00    +0.000 NA
ATOM     12  C   UNL     1       3.987   4.178  16.778  0.00  0.00    +0.000 C 
ATOM     13  C   UNL     1       3.697   4.974  18.082  0.00  0.00    +0.000 C 
ATOM     14  N   UNL     1       3.745   6.395  17.744  0.00  0.00    +0.000 N 
ATOM     15  C   UNL     1       2.970   7.305  18.422  0.00  0.00    +0.000 A 
ATOM     16  C   UNL     1       2.576   8.465  17.757  0.00  0.00    +0.000 A 
ATOM     17  C   UNL     1       1.729   9.379  18.368  0.00  0.00    +0.000 A 
ATOM     18  C   UNL     1       1.288   9.149  19.664  0.00  0.00    +0.000 A 
ATOM     19  C   UNL     1       1.713   7.955  20.255  0.00  0.00    +0.000 A 
ATOM     20  N   UNL     1       2.525   7.037  19.666  0.00  0.00    +0.000 NA
ATOM     21  C   UNL     1       5.029   6.830  17.191  0.00  0.00    +0.000 C 
ATOM     22  C   UNL     1       5.289   6.029  15.898  0.00  0.00    +0.000 C 
ENDBRANCH   1  18
BRANCH   4  23
ATOM     23  C   UNL     1      -3.518  11.784  18.684  0.00  0.00    +0.000 A 
ATOM     24  C   UNL     1      -4.889  12.062  18.573  0.00  0.00    +0.000 A 
ATOM     25  C   UNL     1      -5.564  11.901  17.362  0.00  0.00    +0.000 A 
ATOM     26  C   UNL     1      -4.889  11.405  16.252  0.00  0.00    +0.000 A 
ATOM     27  C   UNL     1      -3.542  11.070  16.363  0.00  0.00    +0.000 A 
ATOM     28 CL   UNL     1      -2.711  10.431  14.998  0.00  0.00    +0.000 Cl
ATOM     29  C   UNL     1      -2.858  11.259  17.564  0.00  0.00    +0.000 A 
ENDBRANCH   4  23
TORSDOF 2
ENDMDL
MODEL 8
REMARK VINA RESULT:      -8.0      3.841     10.365
REMARK  Name = 
REMARK  3 active torsions:
REMARK  status: ('A' for Active; 'I' for Inactive)
REMARK    1  A    between atoms: C_1  and  N_2
REMARK    2  A    between atoms: C_9  and  C_10
REMARK    3  A    between atoms: C_13  and  C_14
REMARK                            x       y       z     vdW  Elec       q    Type
REMARK                         _______ _______ _______ _____ _____    ______ ____
ROOT
ATOM      1  C   UNL     1       1.104  11.318  19.155  0.00  0.00    +0.000 A 
ATOM      2  C   UNL     1       0.075  11.789  19.887  0.00  0.00    +0.000 A 
ATOM      3  N   UNL     1      -0.286  13.123  19.766  0.00  0.00    +0.000 N 
ATOM      4  C   UNL     1      -1.294  13.890  20.329  0.00  0.00    +0.000 A 
ATOM      5  C   UNL     1      -1.066  15.154  19.795  0.00  0.00    +0.000 A 
ATOM      6  N   UNL     1       0.006  15.179  18.937  0.00  0.00    +0.000 NA
ATOM      7  C   UNL     1       0.442  13.942  18.949  0.00  0.00    +0.000 A 
ATOM      8  C   UNL     1       1.561  13.391  18.239  0.00  0.00    +0.000 A 
ATOM      9  N   UNL     1       1.877  12.129  18.329  0.00  0.00    +0.000 NA
ENDROOT
BRANCH   1  18
ATOM     10  C   UNL     1       2.912   1.772  18.615  0.00  0.00    +0.000 C 
ATOM     11  N   UNL     1       3.021   3.039  19.332  0.00  0.00    +0.000 NA
ATOM     12  C   UNL     1       1.675   3.558  19.697  0.00  0.00    +0.000 C 
ATOM     13  C   UNL     1       1.728   4.950  20.389  0.00  0.00    +0.000 C 
ATOM     14  N   UNL     1       2.450   5.852  19.495  0.00  0.00    +0.000 N 
ATOM     15  C   UNL     1       2.158   7.195  19.467  0.00  0.00    +0.000 A 
ATOM     16  C   UNL     1       2.385   7.897  18.284  0.00  0.00    +0.000 A 
ATOM     17  C   UNL     1       2.034   9.236  18.176  0.00  0.00    +0.000 A 
ATOM     18  C   UNL     1       1.475   9.890  19.265  0.00  0.00    +0.000 A 
ATOM     19  C   UNL     1       1.264   9.113  20.407  0.00  0.00    +0.000 A 
ATOM     20  N   UNL     1       1.581   7.795  20.526  0.00  0.00    +0.000 NA
ATOM     21  C   UNL     1       3.814   5.417  19.187  0.00  0.00    +0.000 C 
ATOM     22  C   UNL     1       3.731   4.038  18.499  0.00  0.00    +0.000 C 
ENDBRANCH   1  18
BRANCH   4  23
ATOM     23  C   UNL     1      -2.298  13.441  21.302  0.00  0.00    +0.000 A 
ATOM     24  C   UNL     1      -2.012  13.325  22.671  0.00  0.00    +0.000 A 
ATOM     25  C   UNL     1      -3.003  12.974  23.590  0.00  0.00    +0.000 A 
ATOM     26  C   UNL     1      -4.287  12.680  23.147  0.00  0.00    +0.000 A 
ATOM     27  C   UNL     1      -4.572  12.735  21.785  0.00  0.00    +0.000 A 
ATOM     28 CL   UNL     1      -6.154  12.345  21.231  0.00  0.00    +0.000 Cl
ATOM     29  C   UNL     1      -3.591  13.115  20.868  0.00  0.00    +0.000 A 
ENDBRANCH   4  23
TORSDOF 2
ENDMDL
MODEL 9
REMARK VINA RESULT:      -8.0      3.859      9.532
REMARK  Name = 
REMARK  3 active torsions:
REMARK  status: ('A' for Active; 'I' for Inactive)
REMARK    1  A    between atoms: C_1  and  N_2
REMARK    2  A    between atoms: C_9  and  C_10
REMARK    3  A    between atoms: C_13  and  C_14
REMARK                            x       y       z     vdW  Elec       q    Type
REMARK                         _______ _______ _______ _____ _____    ______ ____
ROOT
ATOM      1  C   UNL     1       0.537   9.862  20.365  0.00  0.00    +0.000 A 
ATOM      2  C   UNL     1      -0.560  10.313  19.726  0.00  0.00    +0.000 A 
ATOM      3  N   UNL     1      -1.394  11.216  20.367  0.00  0.00    +0.000 N 
ATOM      4  C   UNL     1      -2.545  11.886  19.984  0.00  0.00    +0.000 A 
ATOM      5  C   UNL     1      -2.880  12.617  21.118  0.00  0.00    +0.000 A 
ATOM      6  N   UNL     1      -1.988  12.434  22.146  0.00  0.00    +0.000 NA
ATOM      7  C   UNL     1      -1.115  11.589  21.653  0.00  0.00    +0.000 A 
ATOM      8  C   UNL     1       0.039  11.030  22.298  0.00  0.00    +0.000 A 
ATOM      9  N   UNL     1       0.840  10.206  21.680  0.00  0.00    +0.000 NA
ENDROOT
BRANCH   1  18
ATOM     10  C   UNL     1       5.618   3.800  14.698  0.00  0.00    +0.000 C 
ATOM     11  N   UNL     1       5.435   4.476  15.979  0.00  0.00    +0.000 NA
ATOM     12  C   UNL     1       4.159   4.058  16.621  0.00  0.00    +0.000 C 
ATOM     13  C   UNL     1       3.872   4.812  17.950  0.00  0.00    +0.000 C 
ATOM     14  N   UNL     1       3.906   6.243  17.654  0.00  0.00    +0.000 N 
ATOM     15  C   UNL     1       3.128   7.125  18.365  0.00  0.00    +0.000 A 
ATOM     16  C   UNL     1       2.719   8.301  17.738  0.00  0.00    +0.000 A 
ATOM     17  C   UNL     1       1.869   9.189  18.383  0.00  0.00    +0.000 A 
ATOM     18  C   UNL     1       1.440   8.916  19.674  0.00  0.00    +0.000 A 
ATOM     19  C   UNL     1       1.879   7.709  20.225  0.00  0.00    +0.000 A 
ATOM     20  N   UNL     1       2.695   6.815  19.603  0.00  0.00    +0.000 NA
ATOM     21  C   UNL     1       5.182   6.705  17.106  0.00  0.00    +0.000 C 
ATOM     22  C   UNL     1       5.439   5.946  15.787  0.00  0.00    +0.000 C 
ENDBRANCH   1  18
BRANCH   4  23
ATOM     23  C   UNL     1      -3.241  11.767  18.695  0.00  0.00    +0.000 A 
ATOM     24  C   UNL     1      -2.582  11.357  17.526  0.00  0.00    +0.000 A 
ATOM     25  C   UNL     1      -3.279  11.172  16.330  0.00  0.00    +0.000 A 
ATOM     26  C   UNL     1      -4.640  11.448  16.270  0.00  0.00    +0.000 A 
ATOM     27  C   UNL     1      -5.296  11.910  17.408  0.00  0.00    +0.000 A 
ATOM     28 CL   UNL     1      -6.976  12.277  17.331  0.00  0.00    +0.000 Cl
ATOM     29  C   UNL     1      -4.608  12.067  18.612  0.00  0.00    +0.000 A 
ENDBRANCH   4  23
TORSDOF 2
ENDMDL
