MODEL 1
REMARK VINA RESULT:      -7.7      0.000      0.000
REMARK  Name = 
REMARK  3 active torsions:
REMARK  status: ('A' for Active; 'I' for Inactive)
REMARK    1  A    between atoms: O_1  and  C_2
REMARK    2  A    between atoms: C_11  and  C_12
REMARK    3  A    between atoms: N_13  and  N_14
REMARK                            x       y       z     vdW  Elec       q    Type
REMARK                         _______ _______ _______ _____ _____    ______ ____
ROOT
ATOM      1  C   UNL     1       3.968   2.660  20.254  0.00  0.00    +0.000 A 
ATOM      2  C   UNL     1       2.954   2.535  21.196  0.00  0.00    +0.000 A 
ATOM      3  C   UNL     1       2.109   3.615  21.447  0.00  0.00    +0.000 A 
ATOM      4  C   UNL     1       2.253   4.827  20.756  0.00  0.00    +0.000 A 
ATOM      5  C   UNL     1       1.368   5.889  21.022  0.00  0.00    +0.000 A 
ATOM      6  C   UNL     1       1.463   7.103  20.346  0.00  0.00    +0.000 A 
ATOM      7  C   UNL     1       2.440   7.268  19.379  0.00  0.00    +0.000 A 
ATOM      8  C   UNL     1       3.319   6.220  19.101  0.00  0.00    +0.000 A 
ATOM      9  C   UNL     1       3.275   4.976  19.788  0.00  0.00    +0.000 A 
ATOM     10  C   UNL     1       4.152   3.866  19.561  0.00  0.00    +0.000 A 
ENDROOT
BRANCH   1  11
ATOM     11  O   UNL     1       4.793   1.593  20.014  0.00  0.00    +0.000 OA
ATOM     12  H   UNL     1       4.312   0.929  19.489  0.00  0.00    +0.000 HD
ENDBRANCH   1  11
BRANCH  10  13
ATOM     13  C   UNL     1       5.268   3.922  18.581  0.00  0.00    +0.000 C 
ATOM     14  N   UNL     1       6.442   4.339  18.928  0.00  0.00    +0.000 NA
BRANCH  14  15
ATOM     15  N   UNL     1       7.369   4.506  17.946  0.00  0.00    +0.000 N 
ATOM     16  C   UNL     1       6.991   4.806  16.671  0.00  0.00    +0.000 A 
ATOM     17  N   UNL     1       7.717   4.496  15.616  0.00  0.00    +0.000 NA
ATOM     18  C   UNL     1       7.045   4.832  14.456  0.00  0.00    +0.000 A 
ATOM     19  C   UNL     1       5.821   5.435  14.627  0.00  0.00    +0.000 A 
ATOM     20  S   UNL     1       5.486   5.583  16.295  0.00  0.00    +0.000 S 
ATOM     21  H   UNL     1       8.240   3.983  17.997  0.00  0.00    +0.000 HD
ENDBRANCH  14  15
ENDBRANCH  10  13
TORSDOF 3
ENDMDL
MODEL 2
REMARK VINA RESULT:      -7.6      1.750      2.023
REMARK  Name = 
REMARK  3 active torsions:
REMARK  status: ('A' for Active; 'I' for Inactive)
REMARK    1  A    between atoms: O_1  and  C_2
REMARK    2  A    between atoms: C_11  and  C_12
REMARK    3  A    between atoms: N_13  and  N_14
REMARK                            x       y       z     vdW  Elec       q    Type
REMARK                         _______ _______ _______ _____ _____    ______ ____
ROOT
ATOM      1  C   UNL     1       3.870   3.111  18.008  0.00  0.00    +0.000 A 
ATOM      2  C   UNL     1       3.190   2.443  19.019  0.00  0.00    +0.000 A 
ATOM      3  C   UNL     1       2.457   3.171  19.954  0.00  0.00    +0.000 A 
ATOM      4  C   UNL     1       2.380   4.571  19.888  0.00  0.00    +0.000 A 
ATOM      5  C   UNL     1       1.613   5.271  20.839  0.00  0.00    +0.000 A 
ATOM      6  C   UNL     1       1.495   6.658  20.799  0.00  0.00    +0.000 A 
ATOM      7  C   UNL     1       2.133   7.367  19.796  0.00  0.00    +0.000 A 
ATOM      8  C   UNL     1       2.891   6.684  18.844  0.00  0.00    +0.000 A 
ATOM      9  C   UNL     1       3.061   5.272  18.864  0.00  0.00    +0.000 A 
ATOM     10  C   UNL     1       3.832   4.511  17.927  0.00  0.00    +0.000 A 
ENDROOT
BRANCH   1  11
ATOM     11  O   UNL     1       4.588   2.386  17.093  0.00  0.00    +0.000 OA
ATOM     12  H   UNL     1       4.337   1.449  17.159  0.00  0.00    +0.000 HD
ENDBRANCH   1  11
BRANCH  10  13
ATOM     13  C   UNL     1       4.600   5.149  16.825  0.00  0.00    +0.000 C 
ATOM     14  N   UNL     1       5.858   4.901  16.656  0.00  0.00    +0.000 NA
BRANCH  14  15
ATOM     15  N   UNL     1       6.526   5.634  15.726  0.00  0.00    +0.000 N 
ATOM     16  C   UNL     1       6.764   5.135  14.479  0.00  0.00    +0.000 A 
ATOM     17  N   UNL     1       7.777   5.524  13.732  0.00  0.00    +0.000 NA
ATOM     18  C   UNL     1       7.826   4.782  12.567  0.00  0.00    +0.000 A 
ATOM     19  C   UNL     1       6.825   3.853  12.407  0.00  0.00    +0.000 A 
ATOM     20  S   UNL     1       5.785   3.895  13.761  0.00  0.00    +0.000 S 
ATOM     21  H   UNL     1       7.232   6.299  16.036  0.00  0.00    +0.000 HD
ENDBRANCH  14  15
ENDBRANCH  10  13
TORSDOF 3
ENDMDL
MODEL 3
REMARK VINA RESULT:      -7.6      4.070      6.080
REMARK  Name = 
REMARK  3 active torsions:
REMARK  status: ('A' for Active; 'I' for Inactive)
REMARK    1  A    between atoms: O_1  and  C_2
REMARK    2  A    between atoms: C_11  and  C_12
REMARK    3  A    between atoms: N_13  and  N_14
REMARK                            x       y       z     vdW  Elec       q    Type
REMARK                         _______ _______ _______ _____ _____    ______ ____
ROOT
ATOM      1  C   UNL     1       4.201   5.555  17.072  0.00  0.00    +0.000 A 
ATOM      2  C   UNL     1       4.472   4.221  16.793  0.00  0.00    +0.000 A 
ATOM      3  C   UNL     1       3.860   3.222  17.548  0.00  0.00    +0.000 A 
ATOM      4  C   UNL     1       2.963   3.535  18.580  0.00  0.00    +0.000 A 
ATOM      5  C   UNL     1       2.349   2.498  19.308  0.00  0.00    +0.000 A 
ATOM      6  C   UNL     1       1.439   2.764  20.328  0.00  0.00    +0.000 A 
ATOM      7  C   UNL     1       1.117   4.076  20.626  0.00  0.00    +0.000 A 
ATOM      8  C   UNL     1       1.713   5.114  19.908  0.00  0.00    +0.000 A 
ATOM      9  C   UNL     1       2.669   4.887  18.879  0.00  0.00    +0.000 A 
ATOM     10  C   UNL     1       3.326   5.903  18.112  0.00  0.00    +0.000 A 
ENDROOT
BRANCH   1  11
ATOM     11  O   UNL     1       4.807   6.531  16.325  0.00  0.00    +0.000 OA
ATOM     12  H   UNL     1       4.764   6.285  15.384  0.00  0.00    +0.000 HD
ENDBRANCH   1  11
BRANCH  10  13
ATOM     13  C   UNL     1       3.103   7.352  18.355  0.00  0.00    +0.000 C 
ATOM     14  N   UNL     1       2.141   7.989  17.770  0.00  0.00    +0.000 NA
BRANCH  14  15
ATOM     15  N   UNL     1       2.094   9.340  17.923  0.00  0.00    +0.000 N 
ATOM     16  C   UNL     1       1.313   9.908  18.886  0.00  0.00    +0.000 A 
ATOM     17  N   UNL     1       0.827  11.129  18.788  0.00  0.00    +0.000 NA
ATOM     18  C   UNL     1      -0.003  11.402  19.858  0.00  0.00    +0.000 A 
ATOM     19  C   UNL     1      -0.120  10.402  20.795  0.00  0.00    +0.000 A 
ATOM     20  S   UNL     1       0.832   9.065  20.324  0.00  0.00    +0.000 S 
ATOM     21  H   UNL     1       2.224   9.933  17.107  0.00  0.00    +0.000 HD
ENDBRANCH  14  15
ENDBRANCH  10  13
TORSDOF 3
ENDMDL
MODEL 4
REMARK VINA RESULT:      -7.5      3.896      5.944
REMARK  Name = 
REMARK  3 active torsions:
REMARK  status: ('A' for Active; 'I' for Inactive)
REMARK    1  A    between atoms: O_1  and  C_2
REMARK    2  A    between atoms: C_11  and  C_12
REMARK    3  A    between atoms: N_13  and  N_14
REMARK                            x       y       z     vdW  Elec       q    Type
REMARK                         _______ _______ _______ _____ _____    ______ ____
ROOT
ATOM      1  C   UNL     1       4.627   5.701  17.928  0.00  0.00    +0.000 A 
ATOM      2  C   UNL     1       5.450   4.675  18.375  0.00  0.00    +0.000 A 
ATOM      3  C   UNL     1       4.941   3.714  19.246  0.00  0.00    +0.000 A 
ATOM      4  C   UNL     1       3.605   3.753  19.673  0.00  0.00    +0.000 A 
ATOM      5  C   UNL     1       3.121   2.754  20.538  0.00  0.00    +0.000 A 
ATOM      6  C   UNL     1       1.797   2.745  20.972  0.00  0.00    +0.000 A 
ATOM      7  C   UNL     1       0.931   3.732  20.534  0.00  0.00    +0.000 A 
ATOM      8  C   UNL     1       1.397   4.725  19.670  0.00  0.00    +0.000 A 
ATOM      9  C   UNL     1       2.747   4.787  19.227  0.00  0.00    +0.000 A 
ATOM     10  C   UNL     1       3.293   5.783  18.353  0.00  0.00    +0.000 A 
ENDROOT
BRANCH   1  11
ATOM     11  O   UNL     1       5.137   6.641  17.071  0.00  0.00    +0.000 OA
ATOM     12  H   UNL     1       5.814   7.164  17.535  0.00  0.00    +0.000 HD
ENDBRANCH   1  11
BRANCH  10  13
ATOM     13  C   UNL     1       2.485   6.920  17.840  0.00  0.00    +0.000 C 
ATOM     14  N   UNL     1       2.792   8.143  18.131  0.00  0.00    +0.000 NA
BRANCH  14  15
ATOM     15  N   UNL     1       1.923   9.118  17.753  0.00  0.00    +0.000 N 
ATOM     16  C   UNL     1       0.962   9.569  18.610  0.00  0.00    +0.000 A 
ATOM     17  N   UNL     1      -0.174  10.097  18.199  0.00  0.00    +0.000 NA
ATOM     18  C   UNL     1      -0.992  10.372  19.279  0.00  0.00    +0.000 A 
ATOM     19  C   UNL     1      -0.464  10.090  20.517  0.00  0.00    +0.000 A 
ATOM     20  S   UNL     1       1.108   9.449  20.334  0.00  0.00    +0.000 S 
ATOM     21  H   UNL     1       1.656   9.189  16.774  0.00  0.00    +0.000 HD
ENDBRANCH  14  15
ENDBRANCH  10  13
TORSDOF 3
ENDMDL
MODEL 5
REMARK VINA RESULT:      -7.5      1.833      1.869
REMARK  Name = 
REMARK  3 active torsions:
REMARK  status: ('A' for Active; 'I' for Inactive)
REMARK    1  A    between atoms: O_1  and  C_2
REMARK    2  A    between atoms: C_11  and  C_12
REMARK    3  A    between atoms: N_13  and  N_14
REMARK                            x       y       z     vdW  Elec       q    Type
REMARK                         _______ _______ _______ _____ _____    ______ ____
ROOT
ATOM      1  C   UNL     1       1.969   2.654  19.246  0.00  0.00    +0.000 A 
ATOM      2  C   UNL     1       1.260   2.883  20.418  0.00  0.00    +0.000 A 
ATOM      3  C   UNL     1       1.098   4.188  20.881  0.00  0.00    +0.000 A 
ATOM      4  C   UNL     1       1.627   5.280  20.178  0.00  0.00    +0.000 A 
ATOM      5  C   UNL     1       1.426   6.586  20.666  0.00  0.00    +0.000 A 
ATOM      6  C   UNL     1       1.918   7.699  19.989  0.00  0.00    +0.000 A 
ATOM      7  C   UNL     1       2.608   7.525  18.803  0.00  0.00    +0.000 A 
ATOM      8  C   UNL     1       2.809   6.236  18.304  0.00  0.00    +0.000 A 
ATOM      9  C   UNL     1       2.348   5.071  18.978  0.00  0.00    +0.000 A 
ATOM     10  C   UNL     1       2.529   3.722  18.530  0.00  0.00    +0.000 A 
ENDROOT
BRANCH   1  11
ATOM     11  O   UNL     1       2.123   1.367  18.798  0.00  0.00    +0.000 OA
ATOM     12  H   UNL     1       3.031   1.071  18.982  0.00  0.00    +0.000 HD
ENDBRANCH   1  11
BRANCH  10  13
ATOM     13  C   UNL     1       3.286   3.389  17.294  0.00  0.00    +0.000 C 
ATOM     14  N   UNL     1       4.431   2.792  17.352  0.00  0.00    +0.000 NA
BRANCH  14  15
ATOM     15  N   UNL     1       5.132   2.658  16.193  0.00  0.00    +0.000 N 
ATOM     16  C   UNL     1       5.946   3.656  15.748  0.00  0.00    +0.000 A 
ATOM     17  N   UNL     1       6.240   3.828  14.475  0.00  0.00    +0.000 NA
ATOM     18  C   UNL     1       7.002   4.969  14.308  0.00  0.00    +0.000 A 
ATOM     19  C   UNL     1       7.322   5.648  15.461  0.00  0.00    +0.000 A 
ATOM     20  S   UNL     1       6.644   4.842  16.805  0.00  0.00    +0.000 S 
ATOM     21  H   UNL     1       4.741   2.091  15.444  0.00  0.00    +0.000 HD
ENDBRANCH  14  15
ENDBRANCH  10  13
TORSDOF 3
ENDMDL
MODEL 6
REMARK VINA RESULT:      -7.5      4.908      7.492
REMARK  Name = 
REMARK  3 active torsions:
REMARK  status: ('A' for Active; 'I' for Inactive)
REMARK    1  A    between atoms: O_1  and  C_2
REMARK    2  A    between atoms: C_11  and  C_12
REMARK    3  A    between atoms: N_13  and  N_14
REMARK                            x       y       z     vdW  Elec       q    Type
REMARK                         _______ _______ _______ _____ _____    ______ ____
ROOT
ATOM      1  C   UNL     1       2.515   7.402  18.848  0.00  0.00    +0.000 A 
ATOM      2  C   UNL     1       3.389   6.840  17.926  0.00  0.00    +0.000 A 
ATOM      3  C   UNL     1       3.821   5.526  18.099  0.00  0.00    +0.000 A 
ATOM      4  C   UNL     1       3.380   4.752  19.182  0.00  0.00    +0.000 A 
ATOM      5  C   UNL     1       3.822   3.422  19.313  0.00  0.00    +0.000 A 
ATOM      6  C   UNL     1       3.395   2.612  20.363  0.00  0.00    +0.000 A 
ATOM      7  C   UNL     1       2.504   3.118  21.293  0.00  0.00    +0.000 A 
ATOM      8  C   UNL     1       2.052   4.434  21.171  0.00  0.00    +0.000 A 
ATOM      9  C   UNL     1       2.486   5.302  20.131  0.00  0.00    +0.000 A 
ATOM     10  C   UNL     1       2.072   6.662  19.955  0.00  0.00    +0.000 A 
ENDROOT
BRANCH   1  11
ATOM     11  O   UNL     1       2.095   8.695  18.669  0.00  0.00    +0.000 OA
ATOM     12  H   UNL     1       2.048   8.887  17.717  0.00  0.00    +0.000 HD
ENDBRANCH   1  11
BRANCH  10  13
ATOM     13  C   UNL     1       1.151   7.343  20.902  0.00  0.00    +0.000 C 
ATOM     14  N   UNL     1       1.440   8.501  21.401  0.00  0.00    +0.000 NA
BRANCH  14  15
ATOM     15  N   UNL     1       0.625   8.990  22.374  0.00  0.00    +0.000 N 
ATOM     16  C   UNL     1      -0.072  10.147  22.186  0.00  0.00    +0.000 A 
ATOM     17  N   UNL     1      -0.453  10.924  23.180  0.00  0.00    +0.000 NA
ATOM     18  C   UNL     1      -1.052  12.070  22.691  0.00  0.00    +0.000 A 
ATOM     19  C   UNL     1      -1.163  12.149  21.322  0.00  0.00    +0.000 A 
ATOM     20  S   UNL     1      -0.490  10.748  20.613  0.00  0.00    +0.000 S 
ATOM     21  H   UNL     1       0.859   8.813  23.348  0.00  0.00    +0.000 HD
ENDBRANCH  14  15
ENDBRANCH  10  13
TORSDOF 3
ENDMDL
MODEL 7
REMARK VINA RESULT:      -7.5      4.147      6.319
REMARK  Name = 
REMARK  3 active torsions:
REMARK  status: ('A' for Active; 'I' for Inactive)
REMARK    1  A    between atoms: O_1  and  C_2
REMARK    2  A    between atoms: C_11  and  C_12
REMARK    3  A    between atoms: N_13  and  N_14
REMARK                            x       y       z     vdW  Elec       q    Type
REMARK                         _______ _______ _______ _____ _____    ______ ____
ROOT
ATOM      1  C   UNL     1       1.450   3.990  19.388  0.00  0.00    +0.000 A 
ATOM      2  C   UNL     1       1.515   3.014  18.400  0.00  0.00    +0.000 A 
ATOM      3  C   UNL     1       2.483   3.108  17.402  0.00  0.00    +0.000 A 
ATOM      4  C   UNL     1       3.407   4.164  17.381  0.00  0.00    +0.000 A 
ATOM      5  C   UNL     1       4.383   4.214  16.368  0.00  0.00    +0.000 A 
ATOM      6  C   UNL     1       5.330   5.234  16.320  0.00  0.00    +0.000 A 
ATOM      7  C   UNL     1       5.324   6.214  17.297  0.00  0.00    +0.000 A 
ATOM      8  C   UNL     1       4.365   6.172  18.311  0.00  0.00    +0.000 A 
ATOM      9  C   UNL     1       3.363   5.166  18.380  0.00  0.00    +0.000 A 
ATOM     10  C   UNL     1       2.345   5.070  19.384  0.00  0.00    +0.000 A 
ENDROOT
BRANCH   1  11
ATOM     11  O   UNL     1       0.496   3.889  20.366  0.00  0.00    +0.000 OA
ATOM     12  H   UNL     1      -0.138   3.191  20.124  0.00  0.00    +0.000 HD
ENDBRANCH   1  11
BRANCH  10  13
ATOM     13  C   UNL     1       2.199   6.077  20.467  0.00  0.00    +0.000 C 
ATOM     14  N   UNL     1       1.440   7.114  20.318  0.00  0.00    +0.000 NA
BRANCH  14  15
ATOM     15  N   UNL     1       1.475   8.066  21.289  0.00  0.00    +0.000 N 
ATOM     16  C   UNL     1       0.936   9.301  21.078  0.00  0.00    +0.000 A 
ATOM     17  N   UNL     1       1.347  10.381  21.712  0.00  0.00    +0.000 NA
ATOM     18  C   UNL     1       0.692  11.498  21.230  0.00  0.00    +0.000 A 
ATOM     19  C   UNL     1      -0.248  11.265  20.254  0.00  0.00    +0.000 A 
ATOM     20  S   UNL     1      -0.317   9.593  19.915  0.00  0.00    +0.000 S 
ATOM     21  H   UNL     1       2.252   8.072  21.946  0.00  0.00    +0.000 HD
ENDBRANCH  14  15
ENDBRANCH  10  13
TORSDOF 3
ENDMDL
MODEL 8
REMARK VINA RESULT:      -7.4      4.228      6.598
REMARK  Name = 
REMARK  3 active torsions:
REMARK  status: ('A' for Active; 'I' for Inactive)
REMARK    1  A    between atoms: O_1  and  C_2
REMARK    2  A    between atoms: C_11  and  C_12
REMARK    3  A    between atoms: N_13  and  N_14
REMARK                            x       y       z     vdW  Elec       q    Type
REMARK                         _______ _______ _______ _____ _____    ______ ____
ROOT
ATOM      1  C   UNL     1       3.116   5.679  19.334  0.00  0.00    +0.000 A 
ATOM      2  C   UNL     1       3.458   4.339  19.470  0.00  0.00    +0.000 A 
ATOM      3  C   UNL     1       4.216   3.716  18.480  0.00  0.00    +0.000 A 
ATOM      4  C   UNL     1       4.656   4.421  17.349  0.00  0.00    +0.000 A 
ATOM      5  C   UNL     1       5.437   3.764  16.380  0.00  0.00    +0.000 A 
ATOM      6  C   UNL     1       5.909   4.431  15.252  0.00  0.00    +0.000 A 
ATOM      7  C   UNL     1       5.618   5.773  15.083  0.00  0.00    +0.000 A 
ATOM      8  C   UNL     1       4.850   6.438  16.041  0.00  0.00    +0.000 A 
ATOM      9  C   UNL     1       4.324   5.788  17.192  0.00  0.00    +0.000 A 
ATOM     10  C   UNL     1       3.522   6.407  18.205  0.00  0.00    +0.000 A 
ENDROOT
BRANCH   1  11
ATOM     11  O   UNL     1       2.371   6.282  20.312  0.00  0.00    +0.000 OA
ATOM     12  H   UNL     1       1.428   6.097  20.156  0.00  0.00    +0.000 HD
ENDBRANCH   1  11
BRANCH  10  13
ATOM     13  C   UNL     1       3.102   7.830  18.128  0.00  0.00    +0.000 C 
ATOM     14  N   UNL     1       1.851   8.160  18.132  0.00  0.00    +0.000 NA
BRANCH  14  15
ATOM     15  N   UNL     1       1.542   9.465  17.907  0.00  0.00    +0.000 N 
ATOM     16  C   UNL     1       0.792  10.171  18.801  0.00  0.00    +0.000 A 
ATOM     17  N   UNL     1       0.052  11.207  18.457  0.00  0.00    +0.000 NA
ATOM     18  C   UNL     1      -0.670  11.662  19.543  0.00  0.00    +0.000 A 
ATOM     19  C   UNL     1      -0.452  10.997  20.728  0.00  0.00    +0.000 A 
ATOM     20  S   UNL     1       0.690   9.751  20.481  0.00  0.00    +0.000 S 
ATOM     21  H   UNL     1       1.437   9.788  16.948  0.00  0.00    +0.000 HD
ENDBRANCH  14  15
ENDBRANCH  10  13
TORSDOF 3
ENDMDL
MODEL 9
REMARK VINA RESULT:      -7.4      2.345      3.406
REMARK  Name = 
REMARK  3 active torsions:
REMARK  status: ('A' for Active; 'I' for Inactive)
REMARK    1  A    between atoms: O_1  and  C_2
REMARK    2  A    between atoms: C_11  and  C_12
REMARK    3  A    between atoms: N_13  and  N_14
REMARK                            x       y       z     vdW  Elec       q    Type
REMARK                         _______ _______ _______ _____ _____    ______ ____
ROOT
ATOM      1  C   UNL     1       3.798   6.084  17.538  0.00  0.00    +0.000 A 
ATOM      2  C   UNL     1       3.279   6.978  18.467  0.00  0.00    +0.000 A 
ATOM      3  C   UNL     1       2.483   6.504  19.508  0.00  0.00    +0.000 A 
ATOM      4  C   UNL     1       2.204   5.136  19.647  0.00  0.00    +0.000 A 
ATOM      5  C   UNL     1       1.413   4.692  20.723  0.00  0.00    +0.000 A 
ATOM      6  C   UNL     1       1.127   3.341  20.908  0.00  0.00    +0.000 A 
ATOM      7  C   UNL     1       1.643   2.410  20.024  0.00  0.00    +0.000 A 
ATOM      8  C   UNL     1       2.435   2.836  18.956  0.00  0.00    +0.000 A 
ATOM      9  C   UNL     1       2.727   4.207  18.715  0.00  0.00    +0.000 A 
ATOM     10  C   UNL     1       3.521   4.712  17.635  0.00  0.00    +0.000 A 
ENDROOT
BRANCH   1  11
ATOM     11  O   UNL     1       4.580   6.560  16.518  0.00  0.00    +0.000 OA
ATOM     12  H   UNL     1       4.172   6.325  15.666  0.00  0.00    +0.000 HD
ENDBRANCH   1  11
BRANCH  10  13
ATOM     13  C   UNL     1       4.102   3.827  16.592  0.00  0.00    +0.000 C 
ATOM     14  N   UNL     1       5.360   3.879  16.295  0.00  0.00    +0.000 NA
BRANCH  14  15
ATOM     15  N   UNL     1       5.788   3.150  15.230  0.00  0.00    +0.000 N 
ATOM     16  C   UNL     1       6.425   3.747  14.183  0.00  0.00    +0.000 A 
ATOM     17  N   UNL     1       6.414   3.254  12.961  0.00  0.00    +0.000 NA
ATOM     18  C   UNL     1       7.054   4.115  12.090  0.00  0.00    +0.000 A 
ATOM     19  C   UNL     1       7.588   5.249  12.656  0.00  0.00    +0.000 A 
ATOM     20  S   UNL     1       7.276   5.251  14.335  0.00  0.00    +0.000 S 
ATOM     21  H   UNL     1       5.270   2.315  14.964  0.00  0.00    +0.000 HD
ENDBRANCH  14  15
ENDBRANCH  10  13
TORSDOF 3
ENDMDL
