MODEL 1
REMARK VINA RESULT:      -7.9      0.000      0.000
REMARK  Name = 
REMARK  9 active torsions:
REMARK  status: ('A' for Active; 'I' for Inactive)
REMARK    1  A    between atoms: C_1  and  C_2
REMARK    2  A    between atoms: C_2  and  C_3
REMARK    3  A    between atoms: C_3  and  C_4
REMARK    4  A    between atoms: C_4  and  C_5
REMARK    5  A    between atoms: C_7  and  C_8
REMARK    6  A    between atoms: C_8  and  N_9
REMARK    7  A    between atoms: C_8  and  C_10
REMARK    8  A    between atoms: C_13  and  C_14
REMARK    9  A    between atoms: C_17  and  O_18
REMARK                            x       y       z     vdW  Elec       q    Type
REMARK                         _______ _______ _______ _____ _____    ______ ____
ROOT
ATOM      1  C   UNL     1       5.469   4.588  15.579  0.00  0.00    +0.000 A 
ATOM      2  C   UNL     1       5.428   3.264  16.069  0.00  0.00    +0.000 A 
ATOM      3  C   UNL     1       4.706   2.950  17.225  0.00  0.00    +0.000 A 
ATOM      4  C   UNL     1       3.980   3.938  17.910  0.00  0.00    +0.000 A 
ATOM      5  C   UNL     1       4.036   5.258  17.433  0.00  0.00    +0.000 A 
ATOM      6  C   UNL     1       4.784   5.578  16.303  0.00  0.00    +0.000 A 
ATOM      7  F   UNL     1       4.842   6.873  15.916  0.00  0.00    +0.000 F 
ENDROOT
BRANCH   4   8
ATOM      8  C   UNL     1       3.165   3.606  19.124  0.00  0.00    +0.000 A 
ATOM      9  C   UNL     1       3.639   2.696  20.092  0.00  0.00    +0.000 A 
ATOM     10  C   UNL     1       2.879   2.401  21.227  0.00  0.00    +0.000 A 
ATOM     11  C   UNL     1       1.621   2.992  21.409  0.00  0.00    +0.000 A 
ATOM     12  C   UNL     1       1.133   3.881  20.451  0.00  0.00    +0.000 A 
ATOM     13  C   UNL     1       1.898   4.196  19.325  0.00  0.00    +0.000 A 
BRANCH  11  14
ATOM     14  O   UNL     1       0.876   2.713  22.496  0.00  0.00    +0.000 OA
ATOM     15  H   UNL     1      -0.093   2.690  22.461  0.00  0.00    +0.000 HD
ENDBRANCH  11  14
ENDBRANCH   4   8
BRANCH   1  16
ATOM     16  C   UNL     1       6.208   4.979  14.295  0.00  0.00    +0.000 C 
BRANCH  16  19
ATOM     17  C   UNL     1       5.225   3.935  12.108  0.00  0.00    +0.000 C 
ATOM     18  C   UNL     1       6.739   4.053  11.928  0.00  0.00    +0.000 C 
ATOM     19  C   UNL     1       6.161   3.783  13.313  0.00  0.00    +0.000 C 
BRANCH  17  20
ATOM     20  C   UNL     1       4.639   2.622  11.553  0.00  0.00    +0.000 C 
BRANCH  20  21
ATOM     21  C   UNL     1       3.460   2.929  10.621  0.00  0.00    +0.000 C 
BRANCH  21  23
ATOM     22  C   UNL     1       2.284   4.656   9.222  0.00  0.00    +0.000 C 
ATOM     23  C   UNL     1       3.563   4.320   9.990  0.00  0.00    +0.000 C 
ENDBRANCH  21  23
ENDBRANCH  20  21
ENDBRANCH  17  20
ENDBRANCH  16  19
BRANCH  16  24
ATOM     24  N   UNL     1       7.610   5.338  14.532  0.00  0.00    +0.000 NA
ATOM     25  H   UNL     1       8.247   4.806  13.895  0.00  0.00    +0.000 HD
ATOM     26  H   UNL     1       7.866   5.165  15.531  0.00  0.00    +0.000 HD
ENDBRANCH  16  24
ENDBRANCH   1  16
TORSDOF 8
ENDMDL
MODEL 2
REMARK VINA RESULT:      -7.8      0.503      1.118
REMARK  Name = 
REMARK  9 active torsions:
REMARK  status: ('A' for Active; 'I' for Inactive)
REMARK    1  A    between atoms: C_1  and  C_2
REMARK    2  A    between atoms: C_2  and  C_3
REMARK    3  A    between atoms: C_3  and  C_4
REMARK    4  A    between atoms: C_4  and  C_5
REMARK    5  A    between atoms: C_7  and  C_8
REMARK    6  A    between atoms: C_8  and  N_9
REMARK    7  A    between atoms: C_8  and  C_10
REMARK    8  A    between atoms: C_13  and  C_14
REMARK    9  A    between atoms: C_17  and  O_18
REMARK                            x       y       z     vdW  Elec       q    Type
REMARK                         _______ _______ _______ _____ _____    ______ ____
ROOT
ATOM      1  C   UNL     1       5.447   4.477  15.816  0.00  0.00    +0.000 A 
ATOM      2  C   UNL     1       4.913   3.180  15.980  0.00  0.00    +0.000 A 
ATOM      3  C   UNL     1       4.176   2.847  17.121  0.00  0.00    +0.000 A 
ATOM      4  C   UNL     1       3.922   3.803  18.118  0.00  0.00    +0.000 A 
ATOM      5  C   UNL     1       4.469   5.088  17.964  0.00  0.00    +0.000 A 
ATOM      6  C   UNL     1       5.234   5.410  16.845  0.00  0.00    +0.000 A 
ATOM      7  F   UNL     1       5.776   6.646  16.772  0.00  0.00    +0.000 F 
ENDROOT
BRANCH   4   8
ATOM      8  C   UNL     1       3.095   3.472  19.324  0.00  0.00    +0.000 A 
ATOM      9  C   UNL     1       1.741   3.858  19.405  0.00  0.00    +0.000 A 
ATOM     10  C   UNL     1       0.973   3.536  20.527  0.00  0.00    +0.000 A 
ATOM     11  C   UNL     1       1.546   2.840  21.601  0.00  0.00    +0.000 A 
ATOM     12  C   UNL     1       2.890   2.467  21.541  0.00  0.00    +0.000 A 
ATOM     13  C   UNL     1       3.656   2.768  20.412  0.00  0.00    +0.000 A 
BRANCH  11  14
ATOM     14  O   UNL     1       0.819   2.527  22.691  0.00  0.00    +0.000 OA
ATOM     15  H   UNL     1       0.394   3.206  23.236  0.00  0.00    +0.000 HD
ENDBRANCH  11  14
ENDBRANCH   4   8
BRANCH   1  16
ATOM     16  C   UNL     1       6.224   4.907  14.569  0.00  0.00    +0.000 C 
BRANCH  16  19
ATOM     17  C   UNL     1       5.443   4.119  12.201  0.00  0.00    +0.000 C 
ATOM     18  C   UNL     1       6.966   3.993  12.254  0.00  0.00    +0.000 C 
ATOM     19  C   UNL     1       6.145   3.772  13.519  0.00  0.00    +0.000 C 
BRANCH  17  20
ATOM     20  C   UNL     1       4.754   2.940  11.487  0.00  0.00    +0.000 C 
BRANCH  20  21
ATOM     21  C   UNL     1       3.364   3.367  10.996  0.00  0.00    +0.000 C 
BRANCH  21  23
ATOM     22  C   UNL     1       2.415   4.851   9.203  0.00  0.00    +0.000 C 
ATOM     23  C   UNL     1       3.345   3.674   9.496  0.00  0.00    +0.000 C 
ENDBRANCH  21  23
ENDBRANCH  20  21
ENDBRANCH  17  20
ENDBRANCH  16  19
BRANCH  16  24
ATOM     24  N   UNL     1       7.635   5.193  14.847  0.00  0.00    +0.000 NA
ATOM     25  H   UNL     1       7.842   5.102  15.869  0.00  0.00    +0.000 HD
ATOM     26  H   UNL     1       7.886   6.150  14.508  0.00  0.00    +0.000 HD
ENDBRANCH  16  24
ENDBRANCH   1  16
TORSDOF 8
ENDMDL
MODEL 3
REMARK VINA RESULT:      -7.7      4.604      7.163
REMARK  Name = 
REMARK  9 active torsions:
REMARK  status: ('A' for Active; 'I' for Inactive)
REMARK    1  A    between atoms: C_1  and  C_2
REMARK    2  A    between atoms: C_2  and  C_3
REMARK    3  A    between atoms: C_3  and  C_4
REMARK    4  A    between atoms: C_4  and  C_5
REMARK    5  A    between atoms: C_7  and  C_8
REMARK    6  A    between atoms: C_8  and  N_9
REMARK    7  A    between atoms: C_8  and  C_10
REMARK    8  A    between atoms: C_13  and  C_14
REMARK    9  A    between atoms: C_17  and  O_18
REMARK                            x       y       z     vdW  Elec       q    Type
REMARK                         _______ _______ _______ _____ _____    ______ ____
ROOT
ATOM      1  C   UNL     1       2.819   6.826  18.568  0.00  0.00    +0.000 A 
ATOM      2  C   UNL     1       2.473   6.451  19.885  0.00  0.00    +0.000 A 
ATOM      3  C   UNL     1       1.713   7.301  20.696  0.00  0.00    +0.000 A 
ATOM      4  C   UNL     1       1.251   8.536  20.211  0.00  0.00    +0.000 A 
ATOM      5  C   UNL     1       1.612   8.916  18.908  0.00  0.00    +0.000 A 
ATOM      6  C   UNL     1       2.398   8.087  18.112  0.00  0.00    +0.000 A 
ATOM      7  F   UNL     1       2.756   8.524  16.884  0.00  0.00    +0.000 F 
ENDROOT
BRANCH   4   8
ATOM      8  C   UNL     1       0.399   9.435  21.054  0.00  0.00    +0.000 A 
ATOM      9  C   UNL     1      -0.214  10.580  20.505  0.00  0.00    +0.000 A 
ATOM     10  C   UNL     1      -1.018  11.408  21.294  0.00  0.00    +0.000 A 
ATOM     11  C   UNL     1      -1.208  11.122  22.652  0.00  0.00    +0.000 A 
ATOM     12  C   UNL     1      -0.592  10.002  23.213  0.00  0.00    +0.000 A 
ATOM     13  C   UNL     1       0.194   9.159  22.423  0.00  0.00    +0.000 A 
BRANCH  11  14
ATOM     14  O   UNL     1      -1.976  11.914  23.427  0.00  0.00    +0.000 OA
ATOM     15  H   UNL     1      -2.192  11.680  24.343  0.00  0.00    +0.000 HD
ENDBRANCH  11  14
ENDBRANCH   4   8
BRANCH   1  16
ATOM     16  C   UNL     1       3.611   5.917  17.624  0.00  0.00    +0.000 C 
BRANCH  16  19
ATOM     17  C   UNL     1       2.714   3.461  17.597  0.00  0.00    +0.000 C 
ATOM     18  C   UNL     1       4.215   3.411  17.311  0.00  0.00    +0.000 C 
ATOM     19  C   UNL     1       3.655   4.492  18.228  0.00  0.00    +0.000 C 
BRANCH  17  20
ATOM     20  C   UNL     1       2.228   2.341  18.538  0.00  0.00    +0.000 C 
BRANCH  20  21
ATOM     21  C   UNL     1       0.785   2.617  18.978  0.00  0.00    +0.000 C 
BRANCH  21  23
ATOM     22  C   UNL     1       1.749   2.899  21.283  0.00  0.00    +0.000 C 
ATOM     23  C   UNL     1       0.716   3.418  20.281  0.00  0.00    +0.000 C 
ENDBRANCH  21  23
ENDBRANCH  20  21
ENDBRANCH  17  20
ENDBRANCH  16  19
BRANCH  16  24
ATOM     24  N   UNL     1       4.986   6.379  17.407  0.00  0.00    +0.000 NA
ATOM     25  H   UNL     1       5.421   5.892  16.590  0.00  0.00    +0.000 HD
ATOM     26  H   UNL     1       5.559   6.229  18.269  0.00  0.00    +0.000 HD
ENDBRANCH  16  24
ENDBRANCH   1  16
TORSDOF 8
ENDMDL
MODEL 4
REMARK VINA RESULT:      -7.6      4.720      7.205
REMARK  Name = 
REMARK  9 active torsions:
REMARK  status: ('A' for Active; 'I' for Inactive)
REMARK    1  A    between atoms: C_1  and  C_2
REMARK    2  A    between atoms: C_2  and  C_3
REMARK    3  A    between atoms: C_3  and  C_4
REMARK    4  A    between atoms: C_4  and  C_5
REMARK    5  A    between atoms: C_7  and  C_8
REMARK    6  A    between atoms: C_8  and  N_9
REMARK    7  A    between atoms: C_8  and  C_10
REMARK    8  A    between atoms: C_13  and  C_14
REMARK    9  A    between atoms: C_17  and  O_18
REMARK                            x       y       z     vdW  Elec       q    Type
REMARK                         _______ _______ _______ _____ _____    ______ ____
ROOT
ATOM      1  C   UNL     1       2.711   6.945  18.614  0.00  0.00    +0.000 A 
ATOM      2  C   UNL     1       2.369   6.569  19.932  0.00  0.00    +0.000 A 
ATOM      3  C   UNL     1       1.617   7.420  20.748  0.00  0.00    +0.000 A 
ATOM      4  C   UNL     1       1.158   8.658  20.267  0.00  0.00    +0.000 A 
ATOM      5  C   UNL     1       1.515   9.040  18.963  0.00  0.00    +0.000 A 
ATOM      6  C   UNL     1       2.294   8.208  18.162  0.00  0.00    +0.000 A 
ATOM      7  F   UNL     1       2.648   8.647  16.933  0.00  0.00    +0.000 F 
ENDROOT
BRANCH   4   8
ATOM      8  C   UNL     1       0.314   9.559  21.116  0.00  0.00    +0.000 A 
ATOM      9  C   UNL     1       0.047   9.249  22.465  0.00  0.00    +0.000 A 
ATOM     10  C   UNL     1      -0.731  10.101  23.254  0.00  0.00    +0.000 A 
ATOM     11  C   UNL     1      -1.278  11.269  22.706  0.00  0.00    +0.000 A 
ATOM     12  C   UNL     1      -1.037  11.579  21.366  0.00  0.00    +0.000 A 
ATOM     13  C   UNL     1      -0.242  10.742  20.580  0.00  0.00    +0.000 A 
BRANCH  11  14
ATOM     14  O   UNL     1      -2.034  12.097  23.452  0.00  0.00    +0.000 OA
ATOM     15  H   UNL     1      -1.641  12.757  24.044  0.00  0.00    +0.000 HD
ENDBRANCH  11  14
ENDBRANCH   4   8
BRANCH   1  16
ATOM     16  C   UNL     1       3.494   6.034  17.664  0.00  0.00    +0.000 C 
BRANCH  16  19
ATOM     17  C   UNL     1       2.803   3.514  17.594  0.00  0.00    +0.000 C 
ATOM     18  C   UNL     1       4.325   3.582  17.459  0.00  0.00    +0.000 C 
ATOM     19  C   UNL     1       3.592   4.625  18.296  0.00  0.00    +0.000 C 
BRANCH  17  20
ATOM     20  C   UNL     1       2.317   2.368  18.503  0.00  0.00    +0.000 C 
BRANCH  20  21
ATOM     21  C   UNL     1       0.857   2.607  18.909  0.00  0.00    +0.000 C 
BRANCH  21  23
ATOM     22  C   UNL     1       1.489   2.789  21.336  0.00  0.00    +0.000 C 
ATOM     23  C   UNL     1       0.736   3.451  20.181  0.00  0.00    +0.000 C 
ENDBRANCH  21  23
ENDBRANCH  20  21
ENDBRANCH  17  20
ENDBRANCH  16  19
BRANCH  16  24
ATOM     24  N   UNL     1       4.851   6.524  17.395  0.00  0.00    +0.000 NA
ATOM     25  H   UNL     1       5.016   7.447  17.860  0.00  0.00    +0.000 HD
ATOM     26  H   UNL     1       5.011   6.601  16.364  0.00  0.00    +0.000 HD
ENDBRANCH  16  24
ENDBRANCH   1  16
TORSDOF 8
ENDMDL
MODEL 5
REMARK VINA RESULT:      -7.5      6.209      8.486
REMARK  Name = 
REMARK  9 active torsions:
REMARK  status: ('A' for Active; 'I' for Inactive)
REMARK    1  A    between atoms: C_1  and  C_2
REMARK    2  A    between atoms: C_2  and  C_3
REMARK    3  A    between atoms: C_3  and  C_4
REMARK    4  A    between atoms: C_4  and  C_5
REMARK    5  A    between atoms: C_7  and  C_8
REMARK    6  A    between atoms: C_8  and  N_9
REMARK    7  A    between atoms: C_8  and  C_10
REMARK    8  A    between atoms: C_13  and  C_14
REMARK    9  A    between atoms: C_17  and  O_18
REMARK                            x       y       z     vdW  Elec       q    Type
REMARK                         _______ _______ _______ _____ _____    ______ ____
ROOT
ATOM      1  C   UNL     1       1.093   9.305  19.721  0.00  0.00    +0.000 A 
ATOM      2  C   UNL     1       1.507   9.477  18.381  0.00  0.00    +0.000 A 
ATOM      3  C   UNL     1       2.310   8.521  17.751  0.00  0.00    +0.000 A 
ATOM      4  C   UNL     1       2.699   7.352  18.424  0.00  0.00    +0.000 A 
ATOM      5  C   UNL     1       2.303   7.190  19.762  0.00  0.00    +0.000 A 
ATOM      6  C   UNL     1       1.534   8.159  20.402  0.00  0.00    +0.000 A 
ATOM      7  F   UNL     1       1.222   7.974  21.705  0.00  0.00    +0.000 F 
ENDROOT
BRANCH   4   8
ATOM      8  C   UNL     1       3.521   6.298  17.745  0.00  0.00    +0.000 A 
ATOM      9  C   UNL     1       3.177   4.934  17.841  0.00  0.00    +0.000 A 
ATOM     10  C   UNL     1       3.941   3.957  17.195  0.00  0.00    +0.000 A 
ATOM     11  C   UNL     1       5.077   4.321  16.459  0.00  0.00    +0.000 A 
ATOM     12  C   UNL     1       5.439   5.666  16.372  0.00  0.00    +0.000 A 
ATOM     13  C   UNL     1       4.666   6.647  16.997  0.00  0.00    +0.000 A 
BRANCH  11  14
ATOM     14  O   UNL     1       5.826   3.390  15.836  0.00  0.00    +0.000 OA
ATOM     15  H   UNL     1       6.517   3.631  15.199  0.00  0.00    +0.000 HD
ENDBRANCH  11  14
ENDBRANCH   4   8
BRANCH   1  16
ATOM     16  C   UNL     1       0.180  10.299  20.445  0.00  0.00    +0.000 C 
BRANCH  16  19
ATOM     17  C   UNL     1      -1.767  11.016  18.853  0.00  0.00    +0.000 C 
ATOM     18  C   UNL     1      -1.566  12.136  19.875  0.00  0.00    +0.000 C 
ATOM     19  C   UNL     1      -0.370  11.312  19.411  0.00  0.00    +0.000 C 
BRANCH  17  20
ATOM     20  C   UNL     1      -2.032  11.529  17.424  0.00  0.00    +0.000 C 
BRANCH  20  21
ATOM     21  C   UNL     1      -2.440  10.361  16.517  0.00  0.00    +0.000 C 
BRANCH  21  23
ATOM     22  C   UNL     1      -3.077   9.935  14.123  0.00  0.00    +0.000 C 
ATOM     23  C   UNL     1      -3.325  10.810  15.351  0.00  0.00    +0.000 C 
ENDBRANCH  21  23
ENDBRANCH  20  21
ENDBRANCH  17  20
ENDBRANCH  16  19
BRANCH  16  24
ATOM     24  N   UNL     1       0.870  11.038  21.506  0.00  0.00    +0.000 NA
ATOM     25  H   UNL     1       0.263  11.134  22.354  0.00  0.00    +0.000 HD
ATOM     26  H   UNL     1       1.164  11.980  21.160  0.00  0.00    +0.000 HD
ENDBRANCH  16  24
ENDBRANCH   1  16
TORSDOF 8
ENDMDL
MODEL 6
REMARK VINA RESULT:      -7.4      6.034      8.480
REMARK  Name = 
REMARK  9 active torsions:
REMARK  status: ('A' for Active; 'I' for Inactive)
REMARK    1  A    between atoms: C_1  and  C_2
REMARK    2  A    between atoms: C_2  and  C_3
REMARK    3  A    between atoms: C_3  and  C_4
REMARK    4  A    between atoms: C_4  and  C_5
REMARK    5  A    between atoms: C_7  and  C_8
REMARK    6  A    between atoms: C_8  and  N_9
REMARK    7  A    between atoms: C_8  and  C_10
REMARK    8  A    between atoms: C_13  and  C_14
REMARK    9  A    between atoms: C_17  and  O_18
REMARK                            x       y       z     vdW  Elec       q    Type
REMARK                         _______ _______ _______ _____ _____    ______ ____
ROOT
ATOM      1  C   UNL     1       1.367   8.961  19.569  0.00  0.00    +0.000 A 
ATOM      2  C   UNL     1       1.818   9.201  18.252  0.00  0.00    +0.000 A 
ATOM      3  C   UNL     1       2.630   8.273  17.593  0.00  0.00    +0.000 A 
ATOM      4  C   UNL     1       2.993   7.066  18.211  0.00  0.00    +0.000 A 
ATOM      5  C   UNL     1       2.560   6.836  19.528  0.00  0.00    +0.000 A 
ATOM      6  C   UNL     1       1.781   7.775  20.199  0.00  0.00    +0.000 A 
ATOM      7  F   UNL     1       1.432   7.523  21.481  0.00  0.00    +0.000 F 
ENDROOT
BRANCH   4   8
ATOM      8  C   UNL     1       3.825   6.044  17.499  0.00  0.00    +0.000 A 
ATOM      9  C   UNL     1       4.853   6.430  16.614  0.00  0.00    +0.000 A 
ATOM     10  C   UNL     1       5.634   5.471  15.963  0.00  0.00    +0.000 A 
ATOM     11  C   UNL     1       5.389   4.106  16.163  0.00  0.00    +0.000 A 
ATOM     12  C   UNL     1       4.363   3.709  17.022  0.00  0.00    +0.000 A 
ATOM     13  C   UNL     1       3.595   4.664  17.693  0.00  0.00    +0.000 A 
BRANCH  11  14
ATOM     14  O   UNL     1       6.130   3.170  15.538  0.00  0.00    +0.000 OA
ATOM     15  H   UNL     1       6.377   2.338  15.972  0.00  0.00    +0.000 HD
ENDBRANCH  11  14
ENDBRANCH   4   8
BRANCH   1  16
ATOM     16  C   UNL     1       0.441   9.921  20.321  0.00  0.00    +0.000 C 
BRANCH  16  19
ATOM     17  C   UNL     1      -1.387  11.389  19.163  0.00  0.00    +0.000 C 
ATOM     18  C   UNL     1      -0.566  12.302  20.074  0.00  0.00    +0.000 C 
ATOM     19  C   UNL     1       0.103  11.114  19.394  0.00  0.00    +0.000 C 
BRANCH  17  20
ATOM     20  C   UNL     1      -1.741  12.030  17.807  0.00  0.00    +0.000 C 
BRANCH  20  21
ATOM     21  C   UNL     1      -2.886  11.253  17.144  0.00  0.00    +0.000 C 
BRANCH  21  23
ATOM     22  C   UNL     1      -3.057   9.965  14.992  0.00  0.00    +0.000 C 
ATOM     23  C   UNL     1      -2.387  10.033  16.364  0.00  0.00    +0.000 C 
ENDBRANCH  21  23
ENDBRANCH  20  21
ENDBRANCH  17  20
ENDBRANCH  16  19
BRANCH  16  24
ATOM     24  N   UNL     1       1.040  10.441  21.555  0.00  0.00    +0.000 NA
ATOM     25  H   UNL     1       0.338  10.472  22.330  0.00  0.00    +0.000 HD
ATOM     26  H   UNL     1       1.444  11.391  21.391  0.00  0.00    +0.000 HD
ENDBRANCH  16  24
ENDBRANCH   1  16
TORSDOF 8
ENDMDL
MODEL 7
REMARK VINA RESULT:      -7.3      4.864      6.988
REMARK  Name = 
REMARK  9 active torsions:
REMARK  status: ('A' for Active; 'I' for Inactive)
REMARK    1  A    between atoms: C_1  and  C_2
REMARK    2  A    between atoms: C_2  and  C_3
REMARK    3  A    between atoms: C_3  and  C_4
REMARK    4  A    between atoms: C_4  and  C_5
REMARK    5  A    between atoms: C_7  and  C_8
REMARK    6  A    between atoms: C_8  and  N_9
REMARK    7  A    between atoms: C_8  and  C_10
REMARK    8  A    between atoms: C_13  and  C_14
REMARK    9  A    between atoms: C_17  and  O_18
REMARK                            x       y       z     vdW  Elec       q    Type
REMARK                         _______ _______ _______ _____ _____    ______ ____
ROOT
ATOM      1  C   UNL     1       2.899   5.915  18.769  0.00  0.00    +0.000 A 
ATOM      2  C   UNL     1       2.753   7.208  18.218  0.00  0.00    +0.000 A 
ATOM      3  C   UNL     1       2.077   8.213  18.917  0.00  0.00    +0.000 A 
ATOM      4  C   UNL     1       1.553   7.971  20.198  0.00  0.00    +0.000 A 
ATOM      5  C   UNL     1       1.683   6.680  20.738  0.00  0.00    +0.000 A 
ATOM      6  C   UNL     1       2.324   5.669  20.027  0.00  0.00    +0.000 A 
ATOM      7  F   UNL     1       2.378   4.433  20.574  0.00  0.00    +0.000 F 
ENDROOT
BRANCH   4   8
ATOM      8  C   UNL     1       0.867   9.051  20.977  0.00  0.00    +0.000 A 
ATOM      9  C   UNL     1       0.759  10.361  20.464  0.00  0.00    +0.000 A 
ATOM     10  C   UNL     1       0.106  11.361  21.191  0.00  0.00    +0.000 A 
ATOM     11  C   UNL     1      -0.433  11.080  22.453  0.00  0.00    +0.000 A 
ATOM     12  C   UNL     1      -0.318   9.792  22.980  0.00  0.00    +0.000 A 
ATOM     13  C   UNL     1       0.314   8.784  22.249  0.00  0.00    +0.000 A 
BRANCH  11  14
ATOM     14  O   UNL     1      -1.060  12.035  23.168  0.00  0.00    +0.000 OA
ATOM     15  H   UNL     1      -1.245  11.929  24.114  0.00  0.00    +0.000 HD
ENDBRANCH  11  14
ENDBRANCH   4   8
BRANCH   1  16
ATOM     16  C   UNL     1       3.667   4.792  18.067  0.00  0.00    +0.000 C 
BRANCH  16  19
ATOM     17  C   UNL     1       6.134   5.258  17.337  0.00  0.00    +0.000 C 
ATOM     18  C   UNL     1       5.472   4.430  16.234  0.00  0.00    +0.000 C 
ATOM     19  C   UNL     1       4.640   5.422  17.040  0.00  0.00    +0.000 C 
BRANCH  17  20
ATOM     20  C   UNL     1       7.044   6.380  16.801  0.00  0.00    +0.000 C 
BRANCH  20  21
ATOM     21  C   UNL     1       7.675   7.145  17.972  0.00  0.00    +0.000 C 
BRANCH  21  23
ATOM     22  C   UNL     1       8.769   9.290  18.694  0.00  0.00    +0.000 C 
ATOM     23  C   UNL     1       7.840   8.637  17.670  0.00  0.00    +0.000 C 
ENDBRANCH  21  23
ENDBRANCH  20  21
ENDBRANCH  17  20
ENDBRANCH  16  19
BRANCH  16  24
ATOM     24  N   UNL     1       2.785   3.852  17.364  0.00  0.00    +0.000 NA
ATOM     25  H   UNL     1       2.402   4.280  16.489  0.00  0.00    +0.000 HD
ATOM     26  H   UNL     1       2.007   3.547  17.992  0.00  0.00    +0.000 HD
ENDBRANCH  16  24
ENDBRANCH   1  16
TORSDOF 8
ENDMDL
MODEL 8
REMARK VINA RESULT:      -7.3      6.367      8.870
REMARK  Name = 
REMARK  9 active torsions:
REMARK  status: ('A' for Active; 'I' for Inactive)
REMARK    1  A    between atoms: C_1  and  C_2
REMARK    2  A    between atoms: C_2  and  C_3
REMARK    3  A    between atoms: C_3  and  C_4
REMARK    4  A    between atoms: C_4  and  C_5
REMARK    5  A    between atoms: C_7  and  C_8
REMARK    6  A    between atoms: C_8  and  N_9
REMARK    7  A    between atoms: C_8  and  C_10
REMARK    8  A    between atoms: C_13  and  C_14
REMARK    9  A    between atoms: C_17  and  O_18
REMARK                            x       y       z     vdW  Elec       q    Type
REMARK                         _______ _______ _______ _____ _____    ______ ____
ROOT
ATOM      1  C   UNL     1       1.115   9.327  19.620  0.00  0.00    +0.000 A 
ATOM      2  C   UNL     1       1.557   9.480  18.288  0.00  0.00    +0.000 A 
ATOM      3  C   UNL     1       2.363   8.509  17.685  0.00  0.00    +0.000 A 
ATOM      4  C   UNL     1       2.729   7.344  18.379  0.00  0.00    +0.000 A 
ATOM      5  C   UNL     1       2.304   7.202  19.711  0.00  0.00    +0.000 A 
ATOM      6  C   UNL     1       1.531   8.185  20.324  0.00  0.00    +0.000 A 
ATOM      7  F   UNL     1       1.191   8.018  21.622  0.00  0.00    +0.000 F 
ENDROOT
BRANCH   4   8
ATOM      8  C   UNL     1       3.555   6.276  17.730  0.00  0.00    +0.000 A 
ATOM      9  C   UNL     1       3.211   4.914  17.855  0.00  0.00    +0.000 A 
ATOM     10  C   UNL     1       3.979   3.923  17.236  0.00  0.00    +0.000 A 
ATOM     11  C   UNL     1       5.118   4.270  16.498  0.00  0.00    +0.000 A 
ATOM     12  C   UNL     1       5.480   5.613  16.380  0.00  0.00    +0.000 A 
ATOM     13  C   UNL     1       4.703   6.608  16.978  0.00  0.00    +0.000 A 
BRANCH  11  14
ATOM     14  O   UNL     1       5.871   3.326  15.900  0.00  0.00    +0.000 OA
ATOM     15  H   UNL     1       5.801   2.388  16.137  0.00  0.00    +0.000 HD
ENDBRANCH  11  14
ENDBRANCH   4   8
BRANCH   1  16
ATOM     16  C   UNL     1       0.195  10.337  20.314  0.00  0.00    +0.000 C 
BRANCH  16  19
ATOM     17  C   UNL     1      -1.850  10.924  18.795  0.00  0.00    +0.000 C 
ATOM     18  C   UNL     1      -1.594  12.120  19.712  0.00  0.00    +0.000 C 
ATOM     19  C   UNL     1      -0.424  11.264  19.240  0.00  0.00    +0.000 C 
BRANCH  17  20
ATOM     20  C   UNL     1      -2.207  11.322  17.349  0.00  0.00    +0.000 C 
BRANCH  20  21
ATOM     21  C   UNL     1      -3.435  10.532  16.878  0.00  0.00    +0.000 C 
BRANCH  21  23
ATOM     22  C   UNL     1      -5.400  12.068  17.192  0.00  0.00    +0.000 C 
ATOM     23  C   UNL     1      -4.677  10.829  17.722  0.00  0.00    +0.000 C 
ENDBRANCH  21  23
ENDBRANCH  20  21
ENDBRANCH  17  20
ENDBRANCH  16  19
BRANCH  16  24
ATOM     24  N   UNL     1       0.899  11.164  21.301  0.00  0.00    +0.000 NA
ATOM     25  H   UNL     1       1.072  10.629  22.183  0.00  0.00    +0.000 HD
ATOM     26  H   UNL     1       0.353  12.033  21.501  0.00  0.00    +0.000 HD
ENDBRANCH  16  24
ENDBRANCH   1  16
TORSDOF 8
ENDMDL
MODEL 9
REMARK VINA RESULT:      -7.3      0.996      1.416
REMARK  Name = 
REMARK  9 active torsions:
REMARK  status: ('A' for Active; 'I' for Inactive)
REMARK    1  A    between atoms: C_1  and  C_2
REMARK    2  A    between atoms: C_2  and  C_3
REMARK    3  A    between atoms: C_3  and  C_4
REMARK    4  A    between atoms: C_4  and  C_5
REMARK    5  A    between atoms: C_7  and  C_8
REMARK    6  A    between atoms: C_8  and  N_9
REMARK    7  A    between atoms: C_8  and  C_10
REMARK    8  A    between atoms: C_13  and  C_14
REMARK    9  A    between atoms: C_17  and  O_18
REMARK                            x       y       z     vdW  Elec       q    Type
REMARK                         _______ _______ _______ _____ _____    ______ ____
ROOT
ATOM      1  C   UNL     1       5.432   4.867  15.706  0.00  0.00    +0.000 A 
ATOM      2  C   UNL     1       4.688   5.833  16.419  0.00  0.00    +0.000 A 
ATOM      3  C   UNL     1       3.909   5.467  17.521  0.00  0.00    +0.000 A 
ATOM      4  C   UNL     1       3.870   4.135  17.964  0.00  0.00    +0.000 A 
ATOM      5  C   UNL     1       4.595   3.171  17.244  0.00  0.00    +0.000 A 
ATOM      6  C   UNL     1       5.343   3.529  16.124  0.00  0.00    +0.000 A 
ATOM      7  F   UNL     1       5.982   2.553  15.440  0.00  0.00    +0.000 F 
ENDROOT
BRANCH   4   8
ATOM      8  C   UNL     1       3.075   3.738  19.171  0.00  0.00    +0.000 A 
ATOM      9  C   UNL     1       3.605   2.853  20.133  0.00  0.00    +0.000 A 
ATOM     10  C   UNL     1       2.863   2.497  21.262  0.00  0.00    +0.000 A 
ATOM     11  C   UNL     1       1.567   2.998  21.443  0.00  0.00    +0.000 A 
ATOM     12  C   UNL     1       1.022   3.860  20.490  0.00  0.00    +0.000 A 
ATOM     13  C   UNL     1       1.769   4.237  19.371  0.00  0.00    +0.000 A 
BRANCH  11  14
ATOM     14  O   UNL     1       0.837   2.659  22.524  0.00  0.00    +0.000 OA
ATOM     15  H   UNL     1       0.030   2.126  22.451  0.00  0.00    +0.000 HD
ENDBRANCH  11  14
ENDBRANCH   4   8
BRANCH   1  16
ATOM     16  C   UNL     1       6.335   5.219  14.520  0.00  0.00    +0.000 C 
BRANCH  16  19
ATOM     17  C   UNL     1       5.581   4.024  12.320  0.00  0.00    +0.000 C 
ATOM     18  C   UNL     1       7.093   4.239  12.238  0.00  0.00    +0.000 C 
ATOM     19  C   UNL     1       6.437   3.985  13.590  0.00  0.00    +0.000 C 
BRANCH  17  20
ATOM     20  C   UNL     1       5.124   2.653  11.785  0.00  0.00    +0.000 C 
BRANCH  20  21
ATOM     21  C   UNL     1       3.833   2.813  10.972  0.00  0.00    +0.000 C 
BRANCH  21  23
ATOM     22  C   UNL     1       2.636   4.288   9.325  0.00  0.00    +0.000 C 
ATOM     23  C   UNL     1       3.618   4.252  10.497  0.00  0.00    +0.000 C 
ENDBRANCH  21  23
ENDBRANCH  20  21
ENDBRANCH  17  20
ENDBRANCH  16  19
BRANCH  16  24
ATOM     24  N   UNL     1       7.688   5.611  14.931  0.00  0.00    +0.000 NA
ATOM     25  H   UNL     1       7.878   6.611  14.689  0.00  0.00    +0.000 HD
ATOM     26  H   UNL     1       8.398   4.986  14.485  0.00  0.00    +0.000 HD
ENDBRANCH  16  24
ENDBRANCH   1  16
TORSDOF 8
ENDMDL
