MODEL 1
REMARK VINA RESULT:      -7.4      0.000      0.000
REMARK  Name = 
REMARK  6 active torsions:
REMARK  status: ('A' for Active; 'I' for Inactive)
REMARK    1  A    between atoms: C_1  and  O_2
REMARK    2  A    between atoms: O_2  and  C_3
REMARK    3  A    between atoms: C_8  and  O_9
REMARK    4  A    between atoms: O_9  and  C_10
REMARK    5  A    between atoms: C_15  and  C_16
REMARK    6  A    between atoms: C_16  and  C_18
REMARK                            x       y       z     vdW  Elec       q    Type
REMARK                         _______ _______ _______ _____ _____    ______ ____
ROOT
ATOM      1  C   UNL     1      -1.115  13.523  22.728  0.00  0.00    +0.000 A 
ATOM      2  C   UNL     1      -1.288  12.160  23.028  0.00  0.00    +0.000 A 
ATOM      3  C   UNL     1      -0.543  11.156  22.396  0.00  0.00    +0.000 A 
ATOM      4  C   UNL     1       0.394  11.514  21.438  0.00  0.00    +0.000 A 
ATOM      5  C   UNL     1       0.591  12.884  21.153  0.00  0.00    +0.000 A 
ATOM      6  C   UNL     1      -0.165  13.896  21.770  0.00  0.00    +0.000 A 
ATOM      7  C   UNL     1       1.129  10.467  20.625  0.00  0.00    +0.000 C 
ATOM      8  C   UNL     1       0.641  10.532  19.165  0.00  0.00    +0.000 C 
ATOM      9  N   UNL     1       1.464   9.641  18.357  0.00  0.00    +0.000 N 
ATOM     10  C   UNL     1       1.694   8.343  18.829  0.00  0.00    +0.000 C 
ATOM     11  C   UNL     1       1.945   7.371  17.946  0.00  0.00    +0.000 C 
ATOM     12  C   UNL     1       1.573   8.031  20.336  0.00  0.00    +0.000 C 
ATOM     13  O   UNL     1       1.726   6.894  20.761  0.00  0.00    +0.000 OA
ATOM     14  N   UNL     1       1.014   9.080  21.120  0.00  0.00    +0.000 N 
ATOM     15  C   UNL     1      -0.244   8.723  21.766  0.00  0.00    +0.000 C 
ATOM     16  C   UNL     1      -0.734   9.725  22.809  0.00  0.00    +0.000 C 
ATOM     17  H   UNL     1       2.400  10.049  18.287  0.00  0.00    +0.000 HD
ENDROOT
BRANCH   1  19
ATOM     18  C   UNL     1      -3.017  13.962  24.048  0.00  0.00    +0.000 C 
ATOM     19  O   UNL     1      -1.899  14.476  23.331  0.00  0.00    +0.000 OA
ENDBRANCH   1  19
BRANCH   6  20
ATOM     20  O   UNL     1       0.157  15.148  21.315  0.00  0.00    +0.000 OA
ATOM     21  C   UNL     1       1.291  15.801  21.863  0.00  0.00    +0.000 C 
ENDBRANCH   6  20
BRANCH  11  22
ATOM     22  C   UNL     1       3.359   6.903  17.973  0.00  0.00    +0.000 C 
ATOM     23  O   UNL     1       4.274   7.619  17.552  0.00  0.00    +0.000 OA
BRANCH  22  24
ATOM     24  C   UNL     1       3.583   5.471  18.214  0.00  0.00    +0.000 A 
ATOM     25  C   UNL     1       4.735   4.999  18.867  0.00  0.00    +0.000 A 
ATOM     26  C   UNL     1       4.852   3.639  19.158  0.00  0.00    +0.000 A 
ATOM     27  C   UNL     1       3.833   2.761  18.796  0.00  0.00    +0.000 A 
ATOM     28  C   UNL     1       2.711   3.232  18.139  0.00  0.00    +0.000 A 
ATOM     29  F   UNL     1       1.718   2.389  17.821  0.00  0.00    +0.000 F 
ATOM     30  C   UNL     1       2.574   4.579  17.839  0.00  0.00    +0.000 A 
ENDBRANCH  22  24
ENDBRANCH  11  22
TORSDOF 4
ENDMDL
MODEL 2
REMARK VINA RESULT:      -7.3      1.255      1.548
REMARK  Name = 
REMARK  6 active torsions:
REMARK  status: ('A' for Active; 'I' for Inactive)
REMARK    1  A    between atoms: C_1  and  O_2
REMARK    2  A    between atoms: O_2  and  C_3
REMARK    3  A    between atoms: C_8  and  O_9
REMARK    4  A    between atoms: O_9  and  C_10
REMARK    5  A    between atoms: C_15  and  C_16
REMARK    6  A    between atoms: C_16  and  C_18
REMARK                            x       y       z     vdW  Elec       q    Type
REMARK                         _______ _______ _______ _____ _____    ______ ____
ROOT
ATOM      1  C   UNL     1      -0.559  13.232  22.238  0.00  0.00    +0.000 A 
ATOM      2  C   UNL     1      -0.911  11.921  22.605  0.00  0.00    +0.000 A 
ATOM      3  C   UNL     1      -0.254  10.797  22.084  0.00  0.00    +0.000 A 
ATOM      4  C   UNL     1       0.775  10.982  21.172  0.00  0.00    +0.000 A 
ATOM      5  C   UNL     1       1.150  12.298  20.822  0.00  0.00    +0.000 A 
ATOM      6  C   UNL     1       0.484  13.428  21.327  0.00  0.00    +0.000 A 
ATOM      7  C   UNL     1       1.427   9.805  20.474  0.00  0.00    +0.000 C 
ATOM      8  C   UNL     1       1.040   9.831  18.983  0.00  0.00    +0.000 C 
ATOM      9  N   UNL     1       1.797   8.799  18.286  0.00  0.00    +0.000 N 
ATOM     10  C   UNL     1       1.842   7.517  18.846  0.00  0.00    +0.000 C 
ATOM     11  C   UNL     1       2.028   6.467  18.041  0.00  0.00    +0.000 C 
ATOM     12  C   UNL     1       1.594   7.321  20.358  0.00  0.00    +0.000 C 
ATOM     13  O   UNL     1       1.584   6.204  20.858  0.00  0.00    +0.000 OA
ATOM     14  N   UNL     1       1.118   8.477  21.040  0.00  0.00    +0.000 N 
ATOM     15  C   UNL     1      -0.210   8.310  21.619  0.00  0.00    +0.000 C 
ATOM     16  C   UNL     1      -0.640   9.428  22.566  0.00  0.00    +0.000 C 
ATOM     17  H   UNL     1       2.778   9.091  18.255  0.00  0.00    +0.000 HD
ENDROOT
BRANCH   1  19
ATOM     18  C   UNL     1      -2.675  14.179  22.659  0.00  0.00    +0.000 C 
ATOM     19  O   UNL     1      -1.258  14.306  22.730  0.00  0.00    +0.000 OA
ENDBRANCH   1  19
BRANCH   6  20
ATOM     20  O   UNL     1       0.980  14.602  20.822  0.00  0.00    +0.000 OA
ATOM     21  C   UNL     1       0.809  14.876  19.440  0.00  0.00    +0.000 C 
ENDBRANCH   6  20
BRANCH  11  22
ATOM     22  C   UNL     1       3.372   5.842  18.190  0.00  0.00    +0.000 C 
ATOM     23  O   UNL     1       4.400   6.470  17.916  0.00  0.00    +0.000 OA
BRANCH  22  24
ATOM     24  C   UNL     1       3.413   4.383  18.364  0.00  0.00    +0.000 A 
ATOM     25  C   UNL     1       2.904   3.505  17.391  0.00  0.00    +0.000 A 
ATOM     26  C   UNL     1       3.054   2.127  17.561  0.00  0.00    +0.000 A 
ATOM     27  C   UNL     1       3.701   1.634  18.692  0.00  0.00    +0.000 A 
ATOM     28  C   UNL     1       4.184   2.505  19.652  0.00  0.00    +0.000 A 
ATOM     29  F   UNL     1       4.833   2.028  20.723  0.00  0.00    +0.000 F 
ATOM     30  C   UNL     1       4.044   3.878  19.505  0.00  0.00    +0.000 A 
ENDBRANCH  22  24
ENDBRANCH  11  22
TORSDOF 4
ENDMDL
MODEL 3
REMARK VINA RESULT:      -7.3      3.281      9.460
REMARK  Name = 
REMARK  6 active torsions:
REMARK  status: ('A' for Active; 'I' for Inactive)
REMARK    1  A    between atoms: C_1  and  O_2
REMARK    2  A    between atoms: O_2  and  C_3
REMARK    3  A    between atoms: C_8  and  O_9
REMARK    4  A    between atoms: O_9  and  C_10
REMARK    5  A    between atoms: C_15  and  C_16
REMARK    6  A    between atoms: C_16  and  C_18
REMARK                            x       y       z     vdW  Elec       q    Type
REMARK                         _______ _______ _______ _____ _____    ______ ____
ROOT
ATOM      1  C   UNL     1       4.790   4.479  17.471  0.00  0.00    +0.000 A 
ATOM      2  C   UNL     1       4.198   5.644  16.951  0.00  0.00    +0.000 A 
ATOM      3  C   UNL     1       3.517   6.562  17.762  0.00  0.00    +0.000 A 
ATOM      4  C   UNL     1       3.417   6.313  19.123  0.00  0.00    +0.000 A 
ATOM      5  C   UNL     1       4.035   5.159  19.654  0.00  0.00    +0.000 A 
ATOM      6  C   UNL     1       4.704   4.225  18.844  0.00  0.00    +0.000 A 
ATOM      7  C   UNL     1       2.578   7.197  20.025  0.00  0.00    +0.000 C 
ATOM      8  C   UNL     1       1.346   6.401  20.499  0.00  0.00    +0.000 C 
ATOM      9  N   UNL     1       0.632   7.195  21.491  0.00  0.00    +0.000 N 
ATOM     10  C   UNL     1       0.372   8.539  21.203  0.00  0.00    +0.000 C 
ATOM     11  C   UNL     1      -0.685   9.128  21.771  0.00  0.00    +0.000 C 
ATOM     12  C   UNL     1       1.244   9.297  20.178  0.00  0.00    +0.000 C 
ATOM     13  O   UNL     1       1.003  10.459  19.879  0.00  0.00    +0.000 OA
ATOM     14  N   UNL     1       2.139   8.476  19.434  0.00  0.00    +0.000 N 
ATOM     15  C   UNL     1       1.875   8.474  17.999  0.00  0.00    +0.000 C 
ATOM     16  C   UNL     1       2.961   7.816  17.150  0.00  0.00    +0.000 C 
ATOM     17  H   UNL     1       1.203   7.229  22.341  0.00  0.00    +0.000 HD
ENDROOT
BRANCH   1  19
ATOM     18  C   UNL     1       6.330   4.149  15.718  0.00  0.00    +0.000 C 
ATOM     19  O   UNL     1       5.406   3.577  16.638  0.00  0.00    +0.000 OA
ENDBRANCH   1  19
BRANCH   6  20
ATOM     20  O   UNL     1       5.188   3.159  19.557  0.00  0.00    +0.000 OA
ATOM     21  C   UNL     1       4.307   2.090  19.866  0.00  0.00    +0.000 C 
ENDBRANCH   6  20
BRANCH  11  22
ATOM     22  C   UNL     1      -0.312  10.127  22.812  0.00  0.00    +0.000 C 
ATOM     23  O   UNL     1       0.370   9.803  23.789  0.00  0.00    +0.000 OA
BRANCH  22  24
ATOM     24  C   UNL     1      -1.038  11.405  22.799  0.00  0.00    +0.000 A 
ATOM     25  C   UNL     1      -0.514  12.549  22.173  0.00  0.00    +0.000 A 
ATOM     26  C   UNL     1      -1.286  13.711  22.105  0.00  0.00    +0.000 A 
ATOM     27  C   UNL     1      -2.564  13.728  22.660  0.00  0.00    +0.000 A 
ATOM     28  C   UNL     1      -3.065  12.602  23.289  0.00  0.00    +0.000 A 
ATOM     29  F   UNL     1      -4.306  12.614  23.794  0.00  0.00    +0.000 F 
ATOM     30  C   UNL     1      -2.314  11.438  23.369  0.00  0.00    +0.000 A 
ENDBRANCH  22  24
ENDBRANCH  11  22
TORSDOF 4
ENDMDL
MODEL 4
REMARK VINA RESULT:      -7.3      1.249      1.446
REMARK  Name = 
REMARK  6 active torsions:
REMARK  status: ('A' for Active; 'I' for Inactive)
REMARK    1  A    between atoms: C_1  and  O_2
REMARK    2  A    between atoms: O_2  and  C_3
REMARK    3  A    between atoms: C_8  and  O_9
REMARK    4  A    between atoms: O_9  and  C_10
REMARK    5  A    between atoms: C_15  and  C_16
REMARK    6  A    between atoms: C_16  and  C_18
REMARK                            x       y       z     vdW  Elec       q    Type
REMARK                         _______ _______ _______ _____ _____    ______ ____
ROOT
ATOM      1  C   UNL     1      -1.062  14.205  22.721  0.00  0.00    +0.000 A 
ATOM      2  C   UNL     1      -1.262  12.851  23.045  0.00  0.00    +0.000 A 
ATOM      3  C   UNL     1      -0.574  11.817  22.394  0.00  0.00    +0.000 A 
ATOM      4  C   UNL     1       0.332  12.137  21.394  0.00  0.00    +0.000 A 
ATOM      5  C   UNL     1       0.557  13.497  21.085  0.00  0.00    +0.000 A 
ATOM      6  C   UNL     1      -0.142  14.537  21.720  0.00  0.00    +0.000 A 
ATOM      7  C   UNL     1       1.002  11.059  20.565  0.00  0.00    +0.000 C 
ATOM      8  C   UNL     1       0.456  11.123  19.125  0.00  0.00    +0.000 C 
ATOM      9  N   UNL     1       1.218  10.198  18.296  0.00  0.00    +0.000 N 
ATOM     10  C   UNL     1       1.429   8.900  18.773  0.00  0.00    +0.000 C 
ATOM     11  C   UNL     1       1.614   7.911  17.893  0.00  0.00    +0.000 C 
ATOM     12  C   UNL     1       1.362   8.608  20.288  0.00  0.00    +0.000 C 
ATOM     13  O   UNL     1       1.498   7.471  20.720  0.00  0.00    +0.000 OA
ATOM     14  N   UNL     1       0.867   9.682  21.081  0.00  0.00    +0.000 N 
ATOM     15  C   UNL     1      -0.373   9.369  21.783  0.00  0.00    +0.000 C 
ATOM     16  C   UNL     1      -0.790  10.397  22.833  0.00  0.00    +0.000 C 
ATOM     17  H   UNL     1       2.162  10.578  18.182  0.00  0.00    +0.000 HD
ENDROOT
BRANCH   1  19
ATOM     18  C   UNL     1      -1.595  15.274  24.752  0.00  0.00    +0.000 C 
ATOM     19  O   UNL     1      -1.792  15.187  23.344  0.00  0.00    +0.000 OA
ENDBRANCH   1  19
BRANCH   6  20
ATOM     20  O   UNL     1       0.197  15.774  21.237  0.00  0.00    +0.000 OA
ATOM     21  C   UNL     1       1.566  16.058  20.991  0.00  0.00    +0.000 C 
ENDBRANCH   6  20
BRANCH  11  22
ATOM     22  C   UNL     1       3.014   7.401  17.867  0.00  0.00    +0.000 C 
ATOM     23  O   UNL     1       3.967   8.167  17.690  0.00  0.00    +0.000 OA
BRANCH  22  24
ATOM     24  C   UNL     1       3.191   5.948  17.742  0.00  0.00    +0.000 A 
ATOM     25  C   UNL     1       2.189   5.042  18.132  0.00  0.00    +0.000 A 
ATOM     26  C   UNL     1       2.369   3.677  17.902  0.00  0.00    +0.000 A 
ATOM     27  C   UNL     1       3.538   3.223  17.296  0.00  0.00    +0.000 A 
ATOM     28  C   UNL     1       4.526   4.120  16.931  0.00  0.00    +0.000 A 
ATOM     29  F   UNL     1       5.635   3.682  16.319  0.00  0.00    +0.000 F 
ATOM     30  C   UNL     1       4.369   5.481  17.151  0.00  0.00    +0.000 A 
ENDBRANCH  22  24
ENDBRANCH  11  22
TORSDOF 4
ENDMDL
MODEL 5
REMARK VINA RESULT:      -7.2      3.242      9.468
REMARK  Name = 
REMARK  6 active torsions:
REMARK  status: ('A' for Active; 'I' for Inactive)
REMARK    1  A    between atoms: C_1  and  O_2
REMARK    2  A    between atoms: O_2  and  C_3
REMARK    3  A    between atoms: C_8  and  O_9
REMARK    4  A    between atoms: O_9  and  C_10
REMARK    5  A    between atoms: C_15  and  C_16
REMARK    6  A    between atoms: C_16  and  C_18
REMARK                            x       y       z     vdW  Elec       q    Type
REMARK                         _______ _______ _______ _____ _____    ______ ____
ROOT
ATOM      1  C   UNL     1       4.850   4.439  17.452  0.00  0.00    +0.000 A 
ATOM      2  C   UNL     1       4.244   5.594  16.925  0.00  0.00    +0.000 A 
ATOM      3  C   UNL     1       3.556   6.511  17.732  0.00  0.00    +0.000 A 
ATOM      4  C   UNL     1       3.464   6.271  19.095  0.00  0.00    +0.000 A 
ATOM      5  C   UNL     1       4.094   5.128  19.632  0.00  0.00    +0.000 A 
ATOM      6  C   UNL     1       4.771   4.195  18.827  0.00  0.00    +0.000 A 
ATOM      7  C   UNL     1       2.618   7.153  19.993  0.00  0.00    +0.000 C 
ATOM      8  C   UNL     1       1.396   6.348  20.477  0.00  0.00    +0.000 C 
ATOM      9  N   UNL     1       0.677   7.142  21.465  0.00  0.00    +0.000 N 
ATOM     10  C   UNL     1       0.402   8.481  21.168  0.00  0.00    +0.000 C 
ATOM     11  C   UNL     1      -0.659   9.064  21.735  0.00  0.00    +0.000 C 
ATOM     12  C   UNL     1       1.263   9.240  20.135  0.00  0.00    +0.000 C 
ATOM     13  O   UNL     1       1.009  10.397  19.828  0.00  0.00    +0.000 OA
ATOM     14  N   UNL     1       2.164   8.424  19.394  0.00  0.00    +0.000 N 
ATOM     15  C   UNL     1       1.896   8.408  17.960  0.00  0.00    +0.000 C 
ATOM     16  C   UNL     1       2.986   7.755  17.112  0.00  0.00    +0.000 C 
ATOM     17  H   UNL     1       1.250   7.188  22.313  0.00  0.00    +0.000 HD
ENDROOT
BRANCH   1  19
ATOM     18  C   UNL     1       5.969   4.088  15.408  0.00  0.00    +0.000 C 
ATOM     19  O   UNL     1       5.472   3.537  16.624  0.00  0.00    +0.000 OA
ENDBRANCH   1  19
BRANCH   6  20
ATOM     20  O   UNL     1       5.268   3.139  19.546  0.00  0.00    +0.000 OA
ATOM     21  C   UNL     1       4.355   2.224  20.134  0.00  0.00    +0.000 C 
ENDBRANCH   6  20
BRANCH  11  22
ATOM     22  C   UNL     1      -0.293  10.074  22.767  0.00  0.00    +0.000 C 
ATOM     23  O   UNL     1       0.368   9.757  23.762  0.00  0.00    +0.000 OA
BRANCH  22  24
ATOM     24  C   UNL     1      -1.004  11.360  22.722  0.00  0.00    +0.000 A 
ATOM     25  C   UNL     1      -2.246  11.544  23.354  0.00  0.00    +0.000 A 
ATOM     26  C   UNL     1      -2.832  12.811  23.363  0.00  0.00    +0.000 A 
ATOM     27  C   UNL     1      -2.187  13.879  22.743  0.00  0.00    +0.000 A 
ATOM     28  C   UNL     1      -0.973  13.684  22.109  0.00  0.00    +0.000 A 
ATOM     29  F   UNL     1      -0.341  14.720  21.541  0.00  0.00    +0.000 F 
ATOM     30  C   UNL     1      -0.373  12.433  22.087  0.00  0.00    +0.000 A 
ENDBRANCH  22  24
ENDBRANCH  11  22
TORSDOF 4
ENDMDL
MODEL 6
REMARK VINA RESULT:      -7.1      2.566      3.481
REMARK  Name = 
REMARK  6 active torsions:
REMARK  status: ('A' for Active; 'I' for Inactive)
REMARK    1  A    between atoms: C_1  and  O_2
REMARK    2  A    between atoms: O_2  and  C_3
REMARK    3  A    between atoms: C_8  and  O_9
REMARK    4  A    between atoms: O_9  and  C_10
REMARK    5  A    between atoms: C_15  and  C_16
REMARK    6  A    between atoms: C_16  and  C_18
REMARK                            x       y       z     vdW  Elec       q    Type
REMARK                         _______ _______ _______ _____ _____    ______ ____
ROOT
ATOM      1  C   UNL     1      -0.378  12.190  20.048  0.00  0.00    +0.000 A 
ATOM      2  C   UNL     1      -0.667  11.050  20.819  0.00  0.00    +0.000 A 
ATOM      3  C   UNL     1       0.071   9.864  20.705  0.00  0.00    +0.000 A 
ATOM      4  C   UNL     1       1.120   9.808  19.798  0.00  0.00    +0.000 A 
ATOM      5  C   UNL     1       1.431  10.960  19.042  0.00  0.00    +0.000 A 
ATOM      6  C   UNL     1       0.684  12.147  19.138  0.00  0.00    +0.000 A 
ATOM      7  C   UNL     1       1.863   8.514  19.534  0.00  0.00    +0.000 C 
ATOM      8  C   UNL     1       1.528   8.026  18.111  0.00  0.00    +0.000 C 
ATOM      9  N   UNL     1       2.368   6.876  17.802  0.00  0.00    +0.000 N 
ATOM     10  C   UNL     1       2.466   5.853  18.752  0.00  0.00    +0.000 C 
ATOM     11  C   UNL     1       2.741   4.612  18.339  0.00  0.00    +0.000 C 
ATOM     12  C   UNL     1       2.176   6.144  20.241  0.00  0.00    +0.000 C 
ATOM     13  O   UNL     1       2.213   5.253  21.079  0.00  0.00    +0.000 OA
ATOM     14  N   UNL     1       1.611   7.426  20.499  0.00  0.00    +0.000 N 
ATOM     15  C   UNL     1       0.274   7.369  21.081  0.00  0.00    +0.000 C 
ATOM     16  C   UNL     1      -0.253   8.705  21.603  0.00  0.00    +0.000 C 
ATOM     17  H   UNL     1       3.331   7.206  17.692  0.00  0.00    +0.000 HD
ENDROOT
BRANCH   1  19
ATOM     18  C   UNL     1      -0.742  14.238  21.155  0.00  0.00    +0.000 C 
ATOM     19  O   UNL     1      -1.155  13.318  20.150  0.00  0.00    +0.000 OA
ENDBRANCH   1  19
BRANCH   6  20
ATOM     20  O   UNL     1       1.130  13.122  18.284  0.00  0.00    +0.000 OA
ATOM     21  C   UNL     1       2.529  13.309  18.133  0.00  0.00    +0.000 C 
ENDBRANCH   6  20
BRANCH  11  22
ATOM     22  C   UNL     1       4.113   4.160  18.705  0.00  0.00    +0.000 C 
ATOM     23  O   UNL     1       4.301   3.422  19.678  0.00  0.00    +0.000 OA
BRANCH  22  24
ATOM     24  C   UNL     1       5.237   4.866  18.074  0.00  0.00    +0.000 A 
ATOM     25  C   UNL     1       5.296   5.077  16.685  0.00  0.00    +0.000 A 
ATOM     26  C   UNL     1       6.336   5.837  16.148  0.00  0.00    +0.000 A 
ATOM     27  C   UNL     1       7.308   6.375  16.989  0.00  0.00    +0.000 A 
ATOM     28  C   UNL     1       7.251   6.149  18.352  0.00  0.00    +0.000 A 
ATOM     29  F   UNL     1       8.170   6.695  19.160  0.00  0.00    +0.000 F 
ATOM     30  C   UNL     1       6.227   5.395  18.907  0.00  0.00    +0.000 A 
ENDBRANCH  22  24
ENDBRANCH  11  22
TORSDOF 4
ENDMDL
MODEL 7
REMARK VINA RESULT:      -7.1      2.490      3.241
REMARK  Name = 
REMARK  6 active torsions:
REMARK  status: ('A' for Active; 'I' for Inactive)
REMARK    1  A    between atoms: C_1  and  O_2
REMARK    2  A    between atoms: O_2  and  C_3
REMARK    3  A    between atoms: C_8  and  O_9
REMARK    4  A    between atoms: O_9  and  C_10
REMARK    5  A    between atoms: C_15  and  C_16
REMARK    6  A    between atoms: C_16  and  C_18
REMARK                            x       y       z     vdW  Elec       q    Type
REMARK                         _______ _______ _______ _____ _____    ______ ____
ROOT
ATOM      1  C   UNL     1      -0.105  12.177  20.007  0.00  0.00    +0.000 A 
ATOM      2  C   UNL     1      -0.425  11.057  20.796  0.00  0.00    +0.000 A 
ATOM      3  C   UNL     1       0.256   9.838  20.673  0.00  0.00    +0.000 A 
ATOM      4  C   UNL     1       1.276   9.727  19.740  0.00  0.00    +0.000 A 
ATOM      5  C   UNL     1       1.619  10.858  18.965  0.00  0.00    +0.000 A 
ATOM      6  C   UNL     1       0.930  12.078  19.071  0.00  0.00    +0.000 A 
ATOM      7  C   UNL     1       1.953   8.398  19.468  0.00  0.00    +0.000 C 
ATOM      8  C   UNL     1       1.558   7.915  18.059  0.00  0.00    +0.000 C 
ATOM      9  N   UNL     1       2.336   6.725  17.739  0.00  0.00    +0.000 N 
ATOM     10  C   UNL     1       2.414   5.707  18.695  0.00  0.00    +0.000 C 
ATOM     11  C   UNL     1       2.621   4.451  18.286  0.00  0.00    +0.000 C 
ATOM     12  C   UNL     1       2.177   6.023  20.188  0.00  0.00    +0.000 C 
ATOM     13  O   UNL     1       2.195   5.137  21.033  0.00  0.00    +0.000 OA
ATOM     14  N   UNL     1       1.677   7.330  20.449  0.00  0.00    +0.000 N 
ATOM     15  C   UNL     1       0.356   7.340  21.067  0.00  0.00    +0.000 C 
ATOM     16  C   UNL     1      -0.096   8.702  21.590  0.00  0.00    +0.000 C 
ATOM     17  H   UNL     1       3.310   7.011  17.601  0.00  0.00    +0.000 HD
ENDROOT
BRANCH   1  19
ATOM     18  C   UNL     1      -2.219  13.156  20.363  0.00  0.00    +0.000 C 
ATOM     19  O   UNL     1      -0.827  13.340  20.120  0.00  0.00    +0.000 OA
ENDBRANCH   1  19
BRANCH   6  20
ATOM     20  O   UNL     1       1.396  13.025  18.196  0.00  0.00    +0.000 OA
ATOM     21  C   UNL     1       2.728  13.493  18.345  0.00  0.00    +0.000 C 
ENDBRANCH   6  20
BRANCH  11  22
ATOM     22  C   UNL     1       3.980   3.940  18.620  0.00  0.00    +0.000 C 
ATOM     23  O   UNL     1       4.234   3.496  19.744  0.00  0.00    +0.000 OA
BRANCH  22  24
ATOM     24  C   UNL     1       5.065   4.272  17.685  0.00  0.00    +0.000 A 
ATOM     25  C   UNL     1       6.330   4.688  18.135  0.00  0.00    +0.000 A 
ATOM     26  C   UNL     1       7.354   4.897  17.209  0.00  0.00    +0.000 A 
ATOM     27  C   UNL     1       7.114   4.699  15.851  0.00  0.00    +0.000 A 
ATOM     28  C   UNL     1       5.861   4.306  15.417  0.00  0.00    +0.000 A 
ATOM     29  F   UNL     1       5.643   4.086  14.113  0.00  0.00    +0.000 F 
ATOM     30  C   UNL     1       4.828   4.094  16.319  0.00  0.00    +0.000 A 
ENDBRANCH  22  24
ENDBRANCH  11  22
TORSDOF 4
ENDMDL
MODEL 8
REMARK VINA RESULT:      -7.1      3.195      9.374
REMARK  Name = 
REMARK  6 active torsions:
REMARK  status: ('A' for Active; 'I' for Inactive)
REMARK    1  A    between atoms: C_1  and  O_2
REMARK    2  A    between atoms: O_2  and  C_3
REMARK    3  A    between atoms: C_8  and  O_9
REMARK    4  A    between atoms: O_9  and  C_10
REMARK    5  A    between atoms: C_15  and  C_16
REMARK    6  A    between atoms: C_16  and  C_18
REMARK                            x       y       z     vdW  Elec       q    Type
REMARK                         _______ _______ _______ _____ _____    ______ ____
ROOT
ATOM      1  C   UNL     1       3.133   4.224  18.997  0.00  0.00    +0.000 A 
ATOM      2  C   UNL     1       3.028   5.338  18.145  0.00  0.00    +0.000 A 
ATOM      3  C   UNL     1       2.557   6.580  18.594  0.00  0.00    +0.000 A 
ATOM      4  C   UNL     1       2.177   6.715  19.921  0.00  0.00    +0.000 A 
ATOM      5  C   UNL     1       2.306   5.607  20.787  0.00  0.00    +0.000 A 
ATOM      6  C   UNL     1       2.761   4.354  20.340  0.00  0.00    +0.000 A 
ATOM      7  C   UNL     1       1.533   7.991  20.428  0.00  0.00    +0.000 C 
ATOM      8  C   UNL     1       0.055   7.708  20.761  0.00  0.00    +0.000 C 
ATOM      9  N   UNL     1      -0.514   8.888  21.399  0.00  0.00    +0.000 N 
ATOM     10  C   UNL     1      -0.286  10.136  20.808  0.00  0.00    +0.000 C 
ATOM     11  C   UNL     1      -1.175  11.115  21.004  0.00  0.00    +0.000 C 
ATOM     12  C   UNL     1       0.928  10.345  19.877  0.00  0.00    +0.000 C 
ATOM     13  O   UNL     1       1.117  11.416  19.315  0.00  0.00    +0.000 OA
ATOM     14  N   UNL     1       1.619   9.152  19.521  0.00  0.00    +0.000 N 
ATOM     15  C   UNL     1       1.592   8.864  18.091  0.00  0.00    +0.000 C 
ATOM     16  C   UNL     1       2.530   7.744  17.646  0.00  0.00    +0.000 C 
ATOM     17  H   UNL     1      -0.099   8.976  22.331  0.00  0.00    +0.000 HD
ENDROOT
BRANCH   1  19
ATOM     18  C   UNL     1       2.549   2.268  17.819  0.00  0.00    +0.000 C 
ATOM     19  O   UNL     1       3.550   3.009  18.510  0.00  0.00    +0.000 OA
ENDBRANCH   1  19
BRANCH   6  20
ATOM     20  O   UNL     1       2.766   3.409  21.333  0.00  0.00    +0.000 OA
ATOM     21  C   UNL     1       1.544   2.769  21.670  0.00  0.00    +0.000 C 
ENDBRANCH   6  20
BRANCH  11  22
ATOM     22  C   UNL     1      -0.669  12.200  21.891  0.00  0.00    +0.000 C 
ATOM     23  O   UNL     1       0.540  12.338  22.102  0.00  0.00    +0.000 OA
BRANCH  22  24
ATOM     24  C   UNL     1      -1.658  12.883  22.738  0.00  0.00    +0.000 A 
ATOM     25  C   UNL     1      -1.677  14.282  22.876  0.00  0.00    +0.000 A 
ATOM     26  C   UNL     1      -2.696  14.886  23.615  0.00  0.00    +0.000 A 
ATOM     27  C   UNL     1      -3.679  14.101  24.212  0.00  0.00    +0.000 A 
ATOM     28  C   UNL     1      -3.642  12.724  24.086  0.00  0.00    +0.000 A 
ATOM     29  F   UNL     1      -4.608  11.975  24.636  0.00  0.00    +0.000 F 
ATOM     30  C   UNL     1      -2.638  12.102  23.357  0.00  0.00    +0.000 A 
ENDBRANCH  22  24
ENDBRANCH  11  22
TORSDOF 4
ENDMDL
MODEL 9
REMARK VINA RESULT:      -7.0      3.504      9.496
REMARK  Name = 
REMARK  6 active torsions:
REMARK  status: ('A' for Active; 'I' for Inactive)
REMARK    1  A    between atoms: C_1  and  O_2
REMARK    2  A    between atoms: O_2  and  C_3
REMARK    3  A    between atoms: C_8  and  O_9
REMARK    4  A    between atoms: O_9  and  C_10
REMARK    5  A    between atoms: C_15  and  C_16
REMARK    6  A    between atoms: C_16  and  C_18
REMARK                            x       y       z     vdW  Elec       q    Type
REMARK                         _______ _______ _______ _____ _____    ______ ____
ROOT
ATOM      1  C   UNL     1       3.010   4.509  19.069  0.00  0.00    +0.000 A 
ATOM      2  C   UNL     1       2.949   5.632  18.224  0.00  0.00    +0.000 A 
ATOM      3  C   UNL     1       2.497   6.881  18.674  0.00  0.00    +0.000 A 
ATOM      4  C   UNL     1       2.093   7.015  19.994  0.00  0.00    +0.000 A 
ATOM      5  C   UNL     1       2.179   5.897  20.853  0.00  0.00    +0.000 A 
ATOM      6  C   UNL     1       2.614   4.638  20.404  0.00  0.00    +0.000 A 
ATOM      7  C   UNL     1       1.468   8.301  20.499  0.00  0.00    +0.000 C 
ATOM      8  C   UNL     1      -0.022   8.050  20.800  0.00  0.00    +0.000 C 
ATOM      9  N   UNL     1      -0.576   9.238  21.436  0.00  0.00    +0.000 N 
ATOM     10  C   UNL     1      -0.308  10.484  20.860  0.00  0.00    +0.000 C 
ATOM     11  C   UNL     1      -1.179  11.482  21.047  0.00  0.00    +0.000 C 
ATOM     12  C   UNL     1       0.928  10.673  19.956  0.00  0.00    +0.000 C 
ATOM     13  O   UNL     1       1.154  11.744  19.407  0.00  0.00    +0.000 OA
ATOM     14  N   UNL     1       1.600   9.468  19.603  0.00  0.00    +0.000 N 
ATOM     15  C   UNL     1       1.595   9.191  18.171  0.00  0.00    +0.000 C 
ATOM     16  C   UNL     1       2.516   8.054  17.736  0.00  0.00    +0.000 C 
ATOM     17  H   UNL     1      -0.179   9.308  22.378  0.00  0.00    +0.000 HD
ENDROOT
BRANCH   1  19
ATOM     18  C   UNL     1       2.433   2.613  17.794  0.00  0.00    +0.000 C 
ATOM     19  O   UNL     1       3.409   3.289  18.580  0.00  0.00    +0.000 OA
ENDBRANCH   1  19
BRANCH   6  20
ATOM     20  O   UNL     1       2.577   3.685  21.389  0.00  0.00    +0.000 OA
ATOM     21  C   UNL     1       1.430   2.854  21.491  0.00  0.00    +0.000 C 
ENDBRANCH   6  20
BRANCH  11  22
ATOM     22  C   UNL     1      -0.666  12.548  21.953  0.00  0.00    +0.000 C 
ATOM     23  O   UNL     1       0.547  12.742  22.085  0.00  0.00    +0.000 OA
BRANCH  22  24
ATOM     24  C   UNL     1      -1.624  13.132  22.903  0.00  0.00    +0.000 A 
ATOM     25  C   UNL     1      -2.866  12.530  23.168  0.00  0.00    +0.000 A 
ATOM     26  C   UNL     1      -3.697  13.071  24.151  0.00  0.00    +0.000 A 
ATOM     27  C   UNL     1      -3.293  14.203  24.855  0.00  0.00    +0.000 A 
ATOM     28  C   UNL     1      -2.076  14.799  24.575  0.00  0.00    +0.000 A 
ATOM     29  F   UNL     1      -1.677  15.869  25.277  0.00  0.00    +0.000 F 
ATOM     30  C   UNL     1      -1.235  14.278  23.602  0.00  0.00    +0.000 A 
ENDBRANCH  22  24
ENDBRANCH  11  22
TORSDOF 4
ENDMDL
