MODEL 1
REMARK VINA RESULT:      -7.1      0.000      0.000
REMARK  Name = 
REMARK  4 active torsions:
REMARK  status: ('A' for Active; 'I' for Inactive)
REMARK    1  A    between atoms: C_1  and  O_2
REMARK    2  A    between atoms: O_2  and  C_3
REMARK    3  A    between atoms: C_8  and  C_9
REMARK    4  A    between atoms: C_15  and  C_16
REMARK                            x       y       z     vdW  Elec       q    Type
REMARK                         _______ _______ _______ _____ _____    ______ ____
ROOT
ATOM      1  C   UNL     1       3.730   3.534  18.220  0.00  0.00    +0.000 C 
ATOM      2  O   UNL     1       3.055   3.580  17.191  0.00  0.00    +0.000 OA
ATOM      3  N   UNL     1       5.072   3.828  18.295  0.00  0.00    +0.000 N 
ATOM      4  C   UNL     1       5.878   4.201  17.240  0.00  0.00    +0.000 A 
ATOM      5  N   UNL     1       7.113   4.633  17.390  0.00  0.00    +0.000 NA
ATOM      6  N   UNL     1       7.711   4.940  16.174  0.00  0.00    +0.000 NA
ATOM      7  C   UNL     1       6.913   4.686  15.156  0.00  0.00    +0.000 A 
ATOM      8  S   UNL     1       5.378   4.085  15.611  0.00  0.00    +0.000 S 
ATOM      9  H   UNL     1       5.521   3.840  19.203  0.00  0.00    +0.000 HD
ENDROOT
BRANCH   1  15
ATOM     10  C   UNL     1       3.577   2.419  20.558  0.00  0.00    +0.000 A 
ATOM     11  C   UNL     1       2.771   2.132  21.674  0.00  0.00    +0.000 A 
ATOM     12  C   UNL     1       1.449   2.576  21.749  0.00  0.00    +0.000 A 
ATOM     13  C   UNL     1       0.904   3.309  20.708  0.00  0.00    +0.000 A 
ATOM     14  C   UNL     1       1.682   3.586  19.586  0.00  0.00    +0.000 A 
ATOM     15  C   UNL     1       3.021   3.148  19.489  0.00  0.00    +0.000 A 
BRANCH  10  17
ATOM     16  C   UNL     1       5.299   1.008  21.404  0.00  0.00    +0.000 C 
ATOM     17  O   UNL     1       4.876   1.985  20.452  0.00  0.00    +0.000 OA
ENDBRANCH  10  17
ENDBRANCH   1  15
BRANCH   7  18
ATOM     18  C   UNL     1       7.280   4.873  13.780  0.00  0.00    +0.000 A 
ATOM     19  C   UNL     1       6.803   4.215  12.656  0.00  0.00    +0.000 A 
ATOM     20  C   UNL     1       7.459   4.765  11.528  0.00  0.00    +0.000 A 
ATOM     21  C   UNL     1       8.306   5.730  12.017  0.00  0.00    +0.000 A 
ATOM     22  O   UNL     1       8.208   5.802  13.366  0.00  0.00    +0.000 OA
ENDBRANCH   7  18
TORSDOF 3
ENDMDL
MODEL 2
REMARK VINA RESULT:      -7.0      5.132      8.553
REMARK  Name = 
REMARK  4 active torsions:
REMARK  status: ('A' for Active; 'I' for Inactive)
REMARK    1  A    between atoms: C_1  and  O_2
REMARK    2  A    between atoms: O_2  and  C_3
REMARK    3  A    between atoms: C_8  and  C_9
REMARK    4  A    between atoms: C_15  and  C_16
REMARK                            x       y       z     vdW  Elec       q    Type
REMARK                         _______ _______ _______ _____ _____    ______ ____
ROOT
ATOM      1  C   UNL     1       3.994   6.349  17.991  0.00  0.00    +0.000 C 
ATOM      2  O   UNL     1       4.007   5.996  19.172  0.00  0.00    +0.000 OA
ATOM      3  N   UNL     1       3.287   7.422  17.499  0.00  0.00    +0.000 N 
ATOM      4  C   UNL     1       2.470   8.257  18.231  0.00  0.00    +0.000 A 
ATOM      5  N   UNL     1       1.949   9.365  17.749  0.00  0.00    +0.000 NA
ATOM      6  N   UNL     1       1.161  10.025  18.685  0.00  0.00    +0.000 NA
ATOM      7  C   UNL     1       1.091   9.361  19.821  0.00  0.00    +0.000 A 
ATOM      8  S   UNL     1       1.997   7.911  19.835  0.00  0.00    +0.000 S 
ATOM      9  H   UNL     1       3.405   7.681  16.527  0.00  0.00    +0.000 HD
ENDROOT
BRANCH   1  15
ATOM     10  C   UNL     1       6.012   6.006  16.398  0.00  0.00    +0.000 A 
ATOM     11  C   UNL     1       6.679   5.140  15.513  0.00  0.00    +0.000 A 
ATOM     12  C   UNL     1       6.211   3.845  15.273  0.00  0.00    +0.000 A 
ATOM     13  C   UNL     1       5.065   3.394  15.907  0.00  0.00    +0.000 A 
ATOM     14  C   UNL     1       4.382   4.246  16.772  0.00  0.00    +0.000 A 
ATOM     15  C   UNL     1       4.836   5.557  17.030  0.00  0.00    +0.000 A 
BRANCH  10  17
ATOM     16  C   UNL     1       7.545   7.427  17.540  0.00  0.00    +0.000 C 
ATOM     17  O   UNL     1       6.442   7.287  16.643  0.00  0.00    +0.000 OA
ENDBRANCH  10  17
ENDBRANCH   1  15
BRANCH   7  18
ATOM     18  C   UNL     1       0.319   9.787  20.955  0.00  0.00    +0.000 A 
ATOM     19  C   UNL     1       0.011   9.084  22.111  0.00  0.00    +0.000 A 
ATOM     20  C   UNL     1      -0.760   9.938  22.938  0.00  0.00    +0.000 A 
ATOM     21  C   UNL     1      -0.888  11.118  22.246  0.00  0.00    +0.000 A 
ATOM     22  O   UNL     1      -0.246  11.039  21.056  0.00  0.00    +0.000 OA
ENDBRANCH   7  18
TORSDOF 3
ENDMDL
MODEL 3
REMARK VINA RESULT:      -6.8      5.178      8.512
REMARK  Name = 
REMARK  4 active torsions:
REMARK  status: ('A' for Active; 'I' for Inactive)
REMARK    1  A    between atoms: C_1  and  O_2
REMARK    2  A    between atoms: O_2  and  C_3
REMARK    3  A    between atoms: C_8  and  C_9
REMARK    4  A    between atoms: C_15  and  C_16
REMARK                            x       y       z     vdW  Elec       q    Type
REMARK                         _______ _______ _______ _____ _____    ______ ____
ROOT
ATOM      1  C   UNL     1       3.633   6.380  18.108  0.00  0.00    +0.000 C 
ATOM      2  O   UNL     1       3.693   6.040  19.291  0.00  0.00    +0.000 OA
ATOM      3  N   UNL     1       2.926   7.462  17.636  0.00  0.00    +0.000 N 
ATOM      4  C   UNL     1       2.162   8.323  18.395  0.00  0.00    +0.000 A 
ATOM      5  N   UNL     1       1.643   9.437  17.923  0.00  0.00    +0.000 NA
ATOM      6  N   UNL     1       0.913  10.124  18.886  0.00  0.00    +0.000 NA
ATOM      7  C   UNL     1       0.882   9.474  20.033  0.00  0.00    +0.000 A 
ATOM      8  S   UNL     1       1.757   8.006  20.023  0.00  0.00    +0.000 S 
ATOM      9  H   UNL     1       3.004   7.708  16.656  0.00  0.00    +0.000 HD
ENDROOT
BRANCH   1  15
ATOM     10  C   UNL     1       4.469   4.153  17.074  0.00  0.00    +0.000 A 
ATOM     11  C   UNL     1       5.257   3.537  16.085  0.00  0.00    +0.000 A 
ATOM     12  C   UNL     1       5.956   4.291  15.140  0.00  0.00    +0.000 A 
ATOM     13  C   UNL     1       5.888   5.674  15.169  0.00  0.00    +0.000 A 
ATOM     14  C   UNL     1       5.128   6.301  16.153  0.00  0.00    +0.000 A 
ATOM     15  C   UNL     1       4.412   5.560  17.118  0.00  0.00    +0.000 A 
BRANCH  10  17
ATOM     16  C   UNL     1       2.573   2.808  17.592  0.00  0.00    +0.000 C 
ATOM     17  O   UNL     1       3.781   3.437  18.023  0.00  0.00    +0.000 OA
ENDBRANCH  10  17
ENDBRANCH   1  15
BRANCH   7  18
ATOM     18  C   UNL     1       0.173   9.930  21.196  0.00  0.00    +0.000 A 
ATOM     19  C   UNL     1      -0.048   9.268  22.395  0.00  0.00    +0.000 A 
ATOM     20  C   UNL     1      -0.784  10.138  23.235  0.00  0.00    +0.000 A 
ATOM     21  C   UNL     1      -0.980  11.288  22.509  0.00  0.00    +0.000 A 
ATOM     22  O   UNL     1      -0.412  11.174  21.284  0.00  0.00    +0.000 OA
ENDBRANCH   7  18
TORSDOF 3
ENDMDL
MODEL 4
REMARK VINA RESULT:      -6.7      7.220      9.980
REMARK  Name = 
REMARK  4 active torsions:
REMARK  status: ('A' for Active; 'I' for Inactive)
REMARK    1  A    between atoms: C_1  and  O_2
REMARK    2  A    between atoms: O_2  and  C_3
REMARK    3  A    between atoms: C_8  and  C_9
REMARK    4  A    between atoms: C_15  and  C_16
REMARK                            x       y       z     vdW  Elec       q    Type
REMARK                         _______ _______ _______ _____ _____    ______ ____
ROOT
ATOM      1  C   UNL     1       1.780   8.135  19.514  0.00  0.00    +0.000 C 
ATOM      2  O   UNL     1       1.264   8.931  18.728  0.00  0.00    +0.000 OA
ATOM      3  N   UNL     1       1.642   8.179  20.882  0.00  0.00    +0.000 N 
ATOM      4  C   UNL     1       0.929   9.120  21.593  0.00  0.00    +0.000 A 
ATOM      5  N   UNL     1       0.689   9.023  22.884  0.00  0.00    +0.000 NA
ATOM      6  N   UNL     1      -0.047  10.101  23.363  0.00  0.00    +0.000 NA
ATOM      7  C   UNL     1      -0.295  10.984  22.416  0.00  0.00    +0.000 A 
ATOM      8  S   UNL     1       0.325  10.551  20.883  0.00  0.00    +0.000 S 
ATOM      9  H   UNL     1       2.039   7.431  21.438  0.00  0.00    +0.000 HD
ENDROOT
BRANCH   1  15
ATOM     10  C   UNL     1       2.582   5.675  19.332  0.00  0.00    +0.000 A 
ATOM     11  C   UNL     1       3.423   4.756  18.678  0.00  0.00    +0.000 A 
ATOM     12  C   UNL     1       4.247   5.151  17.621  0.00  0.00    +0.000 A 
ATOM     13  C   UNL     1       4.254   6.472  17.204  0.00  0.00    +0.000 A 
ATOM     14  C   UNL     1       3.442   7.398  17.853  0.00  0.00    +0.000 A 
ATOM     15  C   UNL     1       2.600   7.022  18.922  0.00  0.00    +0.000 A 
BRANCH  10  17
ATOM     16  C   UNL     1       1.200   4.009  20.326  0.00  0.00    +0.000 C 
ATOM     17  O   UNL     1       1.771   5.317  20.381  0.00  0.00    +0.000 OA
ENDBRANCH  10  17
ENDBRANCH   1  15
BRANCH   7  18
ATOM     18  C   UNL     1      -1.005  12.214  22.630  0.00  0.00    +0.000 A 
ATOM     19  C   UNL     1      -2.265  12.580  22.179  0.00  0.00    +0.000 A 
ATOM     20  C   UNL     1      -2.531  13.884  22.665  0.00  0.00    +0.000 A 
ATOM     21  C   UNL     1      -1.421  14.251  23.388  0.00  0.00    +0.000 A 
ATOM     22  O   UNL     1      -0.499  13.259  23.372  0.00  0.00    +0.000 OA
ENDBRANCH   7  18
TORSDOF 3
ENDMDL
MODEL 5
REMARK VINA RESULT:      -6.7      6.266      9.192
REMARK  Name = 
REMARK  4 active torsions:
REMARK  status: ('A' for Active; 'I' for Inactive)
REMARK    1  A    between atoms: C_1  and  O_2
REMARK    2  A    between atoms: O_2  and  C_3
REMARK    3  A    between atoms: C_8  and  C_9
REMARK    4  A    between atoms: C_15  and  C_16
REMARK                            x       y       z     vdW  Elec       q    Type
REMARK                         _______ _______ _______ _____ _____    ______ ____
ROOT
ATOM      1  C   UNL     1       2.542   7.562  18.350  0.00  0.00    +0.000 C 
ATOM      2  O   UNL     1       2.151   8.482  17.631  0.00  0.00    +0.000 OA
ATOM      3  N   UNL     1       2.241   7.425  19.686  0.00  0.00    +0.000 N 
ATOM      4  C   UNL     1       1.478   8.295  20.436  0.00  0.00    +0.000 A 
ATOM      5  N   UNL     1       1.081   8.034  21.664  0.00  0.00    +0.000 NA
ATOM      6  N   UNL     1       0.328   9.071  22.202  0.00  0.00    +0.000 NA
ATOM      7  C   UNL     1       0.225  10.087  21.368  0.00  0.00    +0.000 A 
ATOM      8  S   UNL     1       1.011   9.836  19.871  0.00  0.00    +0.000 S 
ATOM      9  H   UNL     1       2.544   6.590  20.173  0.00  0.00    +0.000 HD
ENDROOT
BRANCH   1  15
ATOM     10  C   UNL     1       3.258   5.112  17.891  0.00  0.00    +0.000 A 
ATOM     11  C   UNL     1       4.145   4.251  17.218  0.00  0.00    +0.000 A 
ATOM     12  C   UNL     1       5.128   4.748  16.359  0.00  0.00    +0.000 A 
ATOM     13  C   UNL     1       5.250   6.114  16.162  0.00  0.00    +0.000 A 
ATOM     14  C   UNL     1       4.393   6.981  16.834  0.00  0.00    +0.000 A 
ATOM     15  C   UNL     1       3.391   6.502  17.706  0.00  0.00    +0.000 A 
BRANCH  10  17
ATOM     16  C   UNL     1       1.368   3.700  18.217  0.00  0.00    +0.000 C 
ATOM     17  O   UNL     1       2.290   4.652  18.749  0.00  0.00    +0.000 OA
ENDBRANCH  10  17
ENDBRANCH   1  15
BRANCH   7  18
ATOM     18  C   UNL     1      -0.466  11.309  21.671  0.00  0.00    +0.000 A 
ATOM     19  C   UNL     1      -1.194  12.129  20.821  0.00  0.00    +0.000 A 
ATOM     20  C   UNL     1      -1.696  13.206  21.593  0.00  0.00    +0.000 A 
ATOM     21  C   UNL     1      -1.248  12.993  22.874  0.00  0.00    +0.000 A 
ATOM     22  O   UNL     1      -0.508  11.860  22.933  0.00  0.00    +0.000 OA
ENDBRANCH   7  18
TORSDOF 3
ENDMDL
MODEL 6
REMARK VINA RESULT:      -6.6      5.231      6.593
REMARK  Name = 
REMARK  4 active torsions:
REMARK  status: ('A' for Active; 'I' for Inactive)
REMARK    1  A    between atoms: C_1  and  O_2
REMARK    2  A    between atoms: O_2  and  C_3
REMARK    3  A    between atoms: C_8  and  C_9
REMARK    4  A    between atoms: C_15  and  C_16
REMARK                            x       y       z     vdW  Elec       q    Type
REMARK                         _______ _______ _______ _____ _____    ______ ____
ROOT
ATOM      1  C   UNL     1       1.559   8.679  19.963  0.00  0.00    +0.000 C 
ATOM      2  O   UNL     1       1.905   9.288  18.950  0.00  0.00    +0.000 OA
ATOM      3  N   UNL     1       1.955   7.402  20.287  0.00  0.00    +0.000 N 
ATOM      4  C   UNL     1       2.779   6.594  19.532  0.00  0.00    +0.000 A 
ATOM      5  N   UNL     1       3.262   5.448  19.963  0.00  0.00    +0.000 NA
ATOM      6  N   UNL     1       4.061   4.825  19.013  0.00  0.00    +0.000 NA
ATOM      7  C   UNL     1       4.113   5.513  17.889  0.00  0.00    +0.000 A 
ATOM      8  S   UNL     1       3.218   6.969  17.925  0.00  0.00    +0.000 S 
ATOM      9  H   UNL     1       1.680   7.017  21.183  0.00  0.00    +0.000 HD
ENDROOT
BRANCH   1  15
ATOM     10  C   UNL     1      -0.266  10.414  20.586  0.00  0.00    +0.000 A 
ATOM     11  C   UNL     1      -1.034  10.999  21.610  0.00  0.00    +0.000 A 
ATOM     12  C   UNL     1      -0.916  10.578  22.937  0.00  0.00    +0.000 A 
ATOM     13  C   UNL     1      -0.024   9.571  23.268  0.00  0.00    +0.000 A 
ATOM     14  C   UNL     1       0.757   8.994  22.270  0.00  0.00    +0.000 A 
ATOM     15  C   UNL     1       0.655   9.402  20.922  0.00  0.00    +0.000 A 
BRANCH  10  17
ATOM     16  C   UNL     1      -1.654  10.787  18.687  0.00  0.00    +0.000 C 
ATOM     17  O   UNL     1      -0.353  10.816  19.276  0.00  0.00    +0.000 OA
ENDBRANCH  10  17
ENDBRANCH   1  15
BRANCH   7  18
ATOM     18  C   UNL     1       4.836   5.093  16.721  0.00  0.00    +0.000 A 
ATOM     19  C   UNL     1       5.299   5.860  15.662  0.00  0.00    +0.000 A 
ATOM     20  C   UNL     1       5.965   4.991  14.764  0.00  0.00    +0.000 A 
ATOM     21  C   UNL     1       5.875   3.736  15.316  0.00  0.00    +0.000 A 
ATOM     22  O   UNL     1       5.198   3.784  16.488  0.00  0.00    +0.000 OA
ENDBRANCH   7  18
TORSDOF 3
ENDMDL
MODEL 7
REMARK VINA RESULT:      -6.5      6.362      9.024
REMARK  Name = 
REMARK  4 active torsions:
REMARK  status: ('A' for Active; 'I' for Inactive)
REMARK    1  A    between atoms: C_1  and  O_2
REMARK    2  A    between atoms: O_2  and  C_3
REMARK    3  A    between atoms: C_8  and  C_9
REMARK    4  A    between atoms: C_15  and  C_16
REMARK                            x       y       z     vdW  Elec       q    Type
REMARK                         _______ _______ _______ _____ _____    ______ ____
ROOT
ATOM      1  C   UNL     1       2.394   6.933  18.979  0.00  0.00    +0.000 C 
ATOM      2  O   UNL     1       2.176   6.699  20.169  0.00  0.00    +0.000 OA
ATOM      3  N   UNL     1       2.163   8.140  18.360  0.00  0.00    +0.000 N 
ATOM      4  C   UNL     1       1.637   9.267  18.955  0.00  0.00    +0.000 A 
ATOM      5  N   UNL     1       1.591  10.443  18.365  0.00  0.00    +0.000 NA
ATOM      6  N   UNL     1       1.012  11.413  19.174  0.00  0.00    +0.000 NA
ATOM      7  C   UNL     1       0.610  10.914  20.327  0.00  0.00    +0.000 A 
ATOM      8  S   UNL     1       0.933   9.246  20.511  0.00  0.00    +0.000 S 
ATOM      9  H   UNL     1       2.450   8.259  17.396  0.00  0.00    +0.000 HD
ENDROOT
BRANCH   1  15
ATOM     10  C   UNL     1       4.170   5.881  17.408  0.00  0.00    +0.000 A 
ATOM     11  C   UNL     1       4.574   4.746  16.682  0.00  0.00    +0.000 A 
ATOM     12  C   UNL     1       3.832   3.563  16.711  0.00  0.00    +0.000 A 
ATOM     13  C   UNL     1       2.669   3.492  17.460  0.00  0.00    +0.000 A 
ATOM     14  C   UNL     1       2.245   4.612  18.171  0.00  0.00    +0.000 A 
ATOM     15  C   UNL     1       2.978   5.819  18.157  0.00  0.00    +0.000 A 
BRANCH  10  17
ATOM     16  C   UNL     1       6.289   6.954  17.236  0.00  0.00    +0.000 C 
ATOM     17  O   UNL     1       4.873   7.061  17.388  0.00  0.00    +0.000 OA
ENDBRANCH  10  17
ENDBRANCH   1  15
BRANCH   7  18
ATOM     18  C   UNL     1      -0.055  11.678  21.345  0.00  0.00    +0.000 A 
ATOM     19  C   UNL     1      -1.076  11.286  22.199  0.00  0.00    +0.000 A 
ATOM     20  C   UNL     1      -1.383  12.388  23.034  0.00  0.00    +0.000 A 
ATOM     21  C   UNL     1      -0.537  13.400  22.648  0.00  0.00    +0.000 A 
ATOM     22  O   UNL     1       0.262  12.987  21.636  0.00  0.00    +0.000 OA
ENDBRANCH   7  18
TORSDOF 3
ENDMDL
MODEL 8
REMARK VINA RESULT:      -6.5      6.266      7.665
REMARK  Name = 
REMARK  4 active torsions:
REMARK  status: ('A' for Active; 'I' for Inactive)
REMARK    1  A    between atoms: C_1  and  O_2
REMARK    2  A    between atoms: O_2  and  C_3
REMARK    3  A    between atoms: C_8  and  C_9
REMARK    4  A    between atoms: C_15  and  C_16
REMARK                            x       y       z     vdW  Elec       q    Type
REMARK                         _______ _______ _______ _____ _____    ______ ____
ROOT
ATOM      1  C   UNL     1       1.873   6.633  20.059  0.00  0.00    +0.000 C 
ATOM      2  O   UNL     1       1.397   7.150  21.071  0.00  0.00    +0.000 OA
ATOM      3  N   UNL     1       2.167   7.306  18.896  0.00  0.00    +0.000 N 
ATOM      4  C   UNL     1       1.964   8.650  18.665  0.00  0.00    +0.000 A 
ATOM      5  N   UNL     1       2.415   9.278  17.600  0.00  0.00    +0.000 NA
ATOM      6  N   UNL     1       2.074  10.625  17.602  0.00  0.00    +0.000 NA
ATOM      7  C   UNL     1       1.345  10.945  18.653  0.00  0.00    +0.000 A 
ATOM      8  S   UNL     1       1.050   9.639  19.716  0.00  0.00    +0.000 S 
ATOM      9  H   UNL     1       2.631   6.807  18.146  0.00  0.00    +0.000 HD
ENDROOT
BRANCH   1  15
ATOM     10  C   UNL     1       3.422   4.561  19.870  0.00  0.00    +0.000 A 
ATOM     11  C   UNL     1       3.531   3.161  19.957  0.00  0.00    +0.000 A 
ATOM     12  C   UNL     1       2.436   2.368  20.308  0.00  0.00    +0.000 A 
ATOM     13  C   UNL     1       1.209   2.956  20.570  0.00  0.00    +0.000 A 
ATOM     14  C   UNL     1       1.079   4.339  20.470  0.00  0.00    +0.000 A 
ATOM     15  C   UNL     1       2.171   5.161  20.118  0.00  0.00    +0.000 A 
BRANCH  10  17
ATOM     16  C   UNL     1       5.577   4.720  18.870  0.00  0.00    +0.000 C 
ATOM     17  O   UNL     1       4.478   5.364  19.517  0.00  0.00    +0.000 OA
ENDBRANCH  10  17
ENDBRANCH   1  15
BRANCH   7  18
ATOM     18  C   UNL     1       0.821  12.259  18.898  0.00  0.00    +0.000 A 
ATOM     19  C   UNL     1      -0.382  12.808  18.478  0.00  0.00    +0.000 A 
ATOM     20  C   UNL     1      -0.451  14.128  18.987  0.00  0.00    +0.000 A 
ATOM     21  C   UNL     1       0.713  14.322  19.690  0.00  0.00    +0.000 A 
ATOM     22  O   UNL     1       1.484  13.210  19.642  0.00  0.00    +0.000 OA
ENDBRANCH   7  18
TORSDOF 3
ENDMDL
MODEL 9
REMARK VINA RESULT:      -6.5      5.707      6.812
REMARK  Name = 
REMARK  4 active torsions:
REMARK  status: ('A' for Active; 'I' for Inactive)
REMARK    1  A    between atoms: C_1  and  O_2
REMARK    2  A    between atoms: O_2  and  C_3
REMARK    3  A    between atoms: C_8  and  C_9
REMARK    4  A    between atoms: C_15  and  C_16
REMARK                            x       y       z     vdW  Elec       q    Type
REMARK                         _______ _______ _______ _____ _____    ______ ____
ROOT
ATOM      1  C   UNL     1       1.375   9.417  18.676  0.00  0.00    +0.000 C 
ATOM      2  O   UNL     1       2.007   9.842  17.708  0.00  0.00    +0.000 OA
ATOM      3  N   UNL     1       1.626   8.228  19.321  0.00  0.00    +0.000 N 
ATOM      4  C   UNL     1       2.604   7.316  18.982  0.00  0.00    +0.000 A 
ATOM      5  N   UNL     1       2.913   6.276  19.728  0.00  0.00    +0.000 NA
ATOM      6  N   UNL     1       3.927   5.511  19.166  0.00  0.00    +0.000 NA
ATOM      7  C   UNL     1       4.310   5.986  17.997  0.00  0.00    +0.000 A 
ATOM      8  S   UNL     1       3.484   7.406  17.522  0.00  0.00    +0.000 S 
ATOM      9  H   UNL     1       1.102   8.004  20.158  0.00  0.00    +0.000 HD
ENDROOT
BRANCH   1  15
ATOM     10  C   UNL     1       0.124  10.740  20.525  0.00  0.00    +0.000 A 
ATOM     11  C   UNL     1      -0.987  11.536  20.855  0.00  0.00    +0.000 A 
ATOM     12  C   UNL     1      -1.934  11.897  19.893  0.00  0.00    +0.000 A 
ATOM     13  C   UNL     1      -1.793  11.462  18.585  0.00  0.00    +0.000 A 
ATOM     14  C   UNL     1      -0.708  10.657  18.245  0.00  0.00    +0.000 A 
ATOM     15  C   UNL     1       0.261  10.281  19.200  0.00  0.00    +0.000 A 
BRANCH  10  17
ATOM     16  C   UNL     1       0.604   9.530  22.520  0.00  0.00    +0.000 C 
ATOM     17  O   UNL     1       1.064  10.361  21.452  0.00  0.00    +0.000 OA
ENDBRANCH  10  17
ENDBRANCH   1  15
BRANCH   7  18
ATOM     18  C   UNL     1       5.316   5.378  17.172  0.00  0.00    +0.000 A 
ATOM     19  C   UNL     1       5.314   5.186  15.798  0.00  0.00    +0.000 A 
ATOM     20  C   UNL     1       6.537   4.559  15.452  0.00  0.00    +0.000 A 
ATOM     21  C   UNL     1       7.224   4.397  16.631  0.00  0.00    +0.000 A 
ATOM     22  O   UNL     1       6.501   4.882  17.669  0.00  0.00    +0.000 OA
ENDBRANCH   7  18
TORSDOF 3
ENDMDL
