MODEL 1
REMARK VINA RESULT:      -8.7      0.000      0.000
REMARK  Name = 
REMARK  6 active torsions:
REMARK  status: ('A' for Active; 'I' for Inactive)
REMARK    1  A    between atoms: C_1  and  N_2
REMARK    2  A    between atoms: C_5  and  C_6
REMARK    3  A    between atoms: C_8  and  C_9
REMARK    4  A    between atoms: C_9  and  O_11
REMARK    5  A    between atoms: C_15  and  C_16
REMARK    6  A    between atoms: C_19  and  N_20
REMARK                            x       y       z     vdW  Elec       q    Type
REMARK                         _______ _______ _______ _____ _____    ______ ____
ROOT
ATOM      1  C   UNL     1       0.601   3.057  19.789  0.00  0.00    +0.000 C 
ATOM      2  N   UNL     1       1.954   2.983  19.293  0.00  0.00    +0.000 N 
ATOM      3  C   UNL     1       2.567   1.803  18.948  0.00  0.00    +0.000 A 
ATOM      4  N   UNL     1       3.757   2.005  18.442  0.00  0.00    +0.000 NA
ATOM      5  C   UNL     1       3.949   3.372  18.495  0.00  0.00    +0.000 A 
ATOM      6  C   UNL     1       2.819   4.026  19.002  0.00  0.00    +0.000 A 
ENDROOT
BRANCH   5   7
ATOM      7  C   UNL     1       5.181   3.989  18.006  0.00  0.00    +0.000 A 
ATOM      8  C   UNL     1       5.463   3.991  16.646  0.00  0.00    +0.000 A 
ATOM      9  C   UNL     1       6.591   4.689  16.211  0.00  0.00    +0.000 A 
ATOM     10  C   UNL     1       7.382   5.376  17.132  0.00  0.00    +0.000 A 
ATOM     11  C   UNL     1       7.039   5.298  18.464  0.00  0.00    +0.000 A 
ATOM     12  N   UNL     1       5.977   4.601  18.915  0.00  0.00    +0.000 NA
BRANCH   9  13
ATOM     13  C   UNL     1       6.955   4.805  14.779  0.00  0.00    +0.000 C 
ATOM     14  O   UNL     1       7.815   5.575  14.386  0.00  0.00    +0.000 OA
BRANCH  13  15
ATOM     15  O   UNL     1       6.290   3.964  13.962  0.00  0.00    +0.000 OA
ATOM     16  H   UNL     1       6.839   3.364  13.428  0.00  0.00    +0.000 HD
ENDBRANCH  13  15
ENDBRANCH   9  13
ENDBRANCH   5   7
BRANCH   6  17
ATOM     17  C   UNL     1       2.518   5.462  19.154  0.00  0.00    +0.000 A 
ATOM     18  C   UNL     1       2.099   5.969  20.387  0.00  0.00    +0.000 A 
ATOM     19  C   UNL     1       1.700   7.306  20.535  0.00  0.00    +0.000 A 
ATOM     20  C   UNL     1       1.744   8.217  19.476  0.00  0.00    +0.000 A 
ATOM     21  C   UNL     1       2.234   7.714  18.263  0.00  0.00    +0.000 A 
ATOM     22  C   UNL     1       2.587   6.363  18.094  0.00  0.00    +0.000 A 
BRANCH  20  23
ATOM     23  N   UNL     1       1.330   9.523  19.608  0.00  0.00    +0.000 N 
ATOM     24  C   UNL     1       0.748  10.091  20.821  0.00  0.00    +0.000 C 
ATOM     25  C   UNL     1      -0.272  11.094  20.296  0.00  0.00    +0.000 C 
ATOM     26  C   UNL     1       0.370  11.612  19.022  0.00  0.00    +0.000 C 
ATOM     27  C   UNL     1       1.104  10.399  18.457  0.00  0.00    +0.000 C 
ENDBRANCH  20  23
ENDBRANCH   6  17
TORSDOF 5
ENDMDL
MODEL 2
REMARK VINA RESULT:      -8.7      0.637      1.004
REMARK  Name = 
REMARK  6 active torsions:
REMARK  status: ('A' for Active; 'I' for Inactive)
REMARK    1  A    between atoms: C_1  and  N_2
REMARK    2  A    between atoms: C_5  and  C_6
REMARK    3  A    between atoms: C_8  and  C_9
REMARK    4  A    between atoms: C_9  and  O_11
REMARK    5  A    between atoms: C_15  and  C_16
REMARK    6  A    between atoms: C_19  and  N_20
REMARK                            x       y       z     vdW  Elec       q    Type
REMARK                         _______ _______ _______ _____ _____    ______ ____
ROOT
ATOM      1  C   UNL     1       0.737   3.509  20.355  0.00  0.00    +0.000 C 
ATOM      2  N   UNL     1       2.091   3.383  19.870  0.00  0.00    +0.000 N 
ATOM      3  C   UNL     1       2.731   2.176  19.725  0.00  0.00    +0.000 A 
ATOM      4  N   UNL     1       3.915   2.317  19.185  0.00  0.00    +0.000 NA
ATOM      5  C   UNL     1       4.074   3.677  19.005  0.00  0.00    +0.000 A 
ATOM      6  C   UNL     1       2.930   4.381  19.401  0.00  0.00    +0.000 A 
ENDROOT
BRANCH   5   7
ATOM      7  C   UNL     1       5.291   4.231  18.411  0.00  0.00    +0.000 A 
ATOM      8  C   UNL     1       5.532   4.073  17.052  0.00  0.00    +0.000 A 
ATOM      9  C   UNL     1       6.645   4.714  16.506  0.00  0.00    +0.000 A 
ATOM     10  C   UNL     1       7.462   5.503  17.316  0.00  0.00    +0.000 A 
ATOM     11  C   UNL     1       7.159   5.581  18.658  0.00  0.00    +0.000 A 
ATOM     12  N   UNL     1       6.112   4.944  19.219  0.00  0.00    +0.000 NA
BRANCH   9  13
ATOM     13  C   UNL     1       6.967   4.661  15.060  0.00  0.00    +0.000 C 
ATOM     14  O   UNL     1       7.706   5.472  14.527  0.00  0.00    +0.000 OA
BRANCH  13  15
ATOM     15  O   UNL     1       6.410   3.626  14.400  0.00  0.00    +0.000 OA
ATOM     16  H   UNL     1       6.225   3.772  13.456  0.00  0.00    +0.000 HD
ENDBRANCH  13  15
ENDBRANCH   9  13
ENDBRANCH   5   7
BRANCH   6  17
ATOM     17  C   UNL     1       2.596   5.815  19.310  0.00  0.00    +0.000 A 
ATOM     18  C   UNL     1       2.130   6.504  20.434  0.00  0.00    +0.000 A 
ATOM     19  C   UNL     1       1.700   7.837  20.352  0.00  0.00    +0.000 A 
ATOM     20  C   UNL     1       1.756   8.565  19.161  0.00  0.00    +0.000 A 
ATOM     21  C   UNL     1       2.292   7.886  18.059  0.00  0.00    +0.000 A 
ATOM     22  C   UNL     1       2.678   6.535  18.120  0.00  0.00    +0.000 A 
BRANCH  20  23
ATOM     23  N   UNL     1       1.312   9.865  19.068  0.00  0.00    +0.000 N 
ATOM     24  C   UNL     1       1.815  10.848  18.113  0.00  0.00    +0.000 C 
ATOM     25  C   UNL     1       1.757  12.162  18.882  0.00  0.00    +0.000 C 
ATOM     26  C   UNL     1       0.535  11.995  19.767  0.00  0.00    +0.000 C 
ATOM     27  C   UNL     1       0.540  10.512  20.131  0.00  0.00    +0.000 C 
ENDBRANCH  20  23
ENDBRANCH   6  17
TORSDOF 5
ENDMDL
MODEL 3
REMARK VINA RESULT:      -8.6      1.701      2.129
REMARK  Name = 
REMARK  6 active torsions:
REMARK  status: ('A' for Active; 'I' for Inactive)
REMARK    1  A    between atoms: C_1  and  N_2
REMARK    2  A    between atoms: C_5  and  C_6
REMARK    3  A    between atoms: C_8  and  C_9
REMARK    4  A    between atoms: C_9  and  O_11
REMARK    5  A    between atoms: C_15  and  C_16
REMARK    6  A    between atoms: C_19  and  N_20
REMARK                            x       y       z     vdW  Elec       q    Type
REMARK                         _______ _______ _______ _____ _____    ______ ____
ROOT
ATOM      1  C   UNL     1       0.492   2.879  19.411  0.00  0.00    +0.000 C 
ATOM      2  N   UNL     1       1.835   2.879  18.881  0.00  0.00    +0.000 N 
ATOM      3  C   UNL     1       2.438   1.762  18.355  0.00  0.00    +0.000 A 
ATOM      4  N   UNL     1       3.618   2.036  17.859  0.00  0.00    +0.000 NA
ATOM      5  C   UNL     1       3.813   3.381  18.104  0.00  0.00    +0.000 A 
ATOM      6  C   UNL     1       2.696   3.954  18.725  0.00  0.00    +0.000 A 
ENDROOT
BRANCH   5   7
ATOM      7  C   UNL     1       5.036   4.064  17.684  0.00  0.00    +0.000 A 
ATOM      8  C   UNL     1       5.777   4.788  18.609  0.00  0.00    +0.000 A 
ATOM      9  C   UNL     1       6.995   5.329  18.193  0.00  0.00    +0.000 A 
ATOM     10  C   UNL     1       7.444   5.114  16.890  0.00  0.00    +0.000 A 
ATOM     11  C   UNL     1       6.630   4.404  16.035  0.00  0.00    +0.000 A 
ATOM     12  N   UNL     1       5.433   3.902  16.399  0.00  0.00    +0.000 NA
BRANCH   9  13
ATOM     13  C   UNL     1       7.893   6.071  19.110  0.00  0.00    +0.000 C 
ATOM     14  O   UNL     1       8.438   7.113  18.785  0.00  0.00    +0.000 OA
BRANCH  13  15
ATOM     15  O   UNL     1       8.022   5.523  20.334  0.00  0.00    +0.000 OA
ATOM     16  H   UNL     1       7.954   6.136  21.086  0.00  0.00    +0.000 HD
ENDBRANCH  13  15
ENDBRANCH   9  13
ENDBRANCH   5   7
BRANCH   6  17
ATOM     17  C   UNL     1       2.401   5.352  19.088  0.00  0.00    +0.000 A 
ATOM     18  C   UNL     1       1.981   5.672  20.383  0.00  0.00    +0.000 A 
ATOM     19  C   UNL     1       1.588   6.973  20.728  0.00  0.00    +0.000 A 
ATOM     20  C   UNL     1       1.637   8.032  19.817  0.00  0.00    +0.000 A 
ATOM     21  C   UNL     1       2.128   7.713  18.543  0.00  0.00    +0.000 A 
ATOM     22  C   UNL     1       2.476   6.402  18.175  0.00  0.00    +0.000 A 
BRANCH  20  23
ATOM     23  N   UNL     1       1.229   9.306  20.142  0.00  0.00    +0.000 N 
ATOM     24  C   UNL     1       0.772   9.719  21.466  0.00  0.00    +0.000 C 
ATOM     25  C   UNL     1      -0.305  10.755  21.168  0.00  0.00    +0.000 C 
ATOM     26  C   UNL     1       0.196  11.429  19.904  0.00  0.00    +0.000 C 
ATOM     27  C   UNL     1       0.877  10.303  19.129  0.00  0.00    +0.000 C 
ENDBRANCH  20  23
ENDBRANCH   6  17
TORSDOF 5
ENDMDL
MODEL 4
REMARK VINA RESULT:      -8.6      1.005      1.529
REMARK  Name = 
REMARK  6 active torsions:
REMARK  status: ('A' for Active; 'I' for Inactive)
REMARK    1  A    between atoms: C_1  and  N_2
REMARK    2  A    between atoms: C_5  and  C_6
REMARK    3  A    between atoms: C_8  and  C_9
REMARK    4  A    between atoms: C_9  and  O_11
REMARK    5  A    between atoms: C_15  and  C_16
REMARK    6  A    between atoms: C_19  and  N_20
REMARK                            x       y       z     vdW  Elec       q    Type
REMARK                         _______ _______ _______ _____ _____    ______ ____
ROOT
ATOM      1  C   UNL     1       1.103   3.462  20.837  0.00  0.00    +0.000 C 
ATOM      2  N   UNL     1       2.462   3.458  20.351  0.00  0.00    +0.000 N 
ATOM      3  C   UNL     1       3.265   2.343  20.366  0.00  0.00    +0.000 A 
ATOM      4  N   UNL     1       4.418   2.569  19.790  0.00  0.00    +0.000 NA
ATOM      5  C   UNL     1       4.386   3.898  19.418  0.00  0.00    +0.000 A 
ATOM      6  C   UNL     1       3.154   4.486  19.732  0.00  0.00    +0.000 A 
ENDROOT
BRANCH   5   7
ATOM      7  C   UNL     1       5.514   4.526  18.730  0.00  0.00    +0.000 A 
ATOM      8  C   UNL     1       5.635   4.411  17.351  0.00  0.00    +0.000 A 
ATOM      9  C   UNL     1       6.661   5.119  16.723  0.00  0.00    +0.000 A 
ATOM     10  C   UNL     1       7.511   5.930  17.476  0.00  0.00    +0.000 A 
ATOM     11  C   UNL     1       7.330   5.963  18.841  0.00  0.00    +0.000 A 
ATOM     12  N   UNL     1       6.371   5.262  19.478  0.00  0.00    +0.000 NA
BRANCH   9  13
ATOM     13  C   UNL     1       6.850   5.114  15.252  0.00  0.00    +0.000 C 
ATOM     14  O   UNL     1       7.856   5.557  14.723  0.00  0.00    +0.000 OA
BRANCH  13  15
ATOM     15  O   UNL     1       5.842   4.546  14.560  0.00  0.00    +0.000 OA
ATOM     16  H   UNL     1       6.098   4.053  13.762  0.00  0.00    +0.000 HD
ENDBRANCH  13  15
ENDBRANCH   9  13
ENDBRANCH   5   7
BRANCH   6  17
ATOM     17  C   UNL     1       2.623   5.832  19.446  0.00  0.00    +0.000 A 
ATOM     18  C   UNL     1       2.579   6.309  18.132  0.00  0.00    +0.000 A 
ATOM     19  C   UNL     1       2.183   7.623  17.841  0.00  0.00    +0.000 A 
ATOM     20  C   UNL     1       1.766   8.513  18.834  0.00  0.00    +0.000 A 
ATOM     21  C   UNL     1       1.746   8.000  20.139  0.00  0.00    +0.000 A 
ATOM     22  C   UNL     1       2.189   6.701  20.445  0.00  0.00    +0.000 A 
BRANCH  20  23
ATOM     23  N   UNL     1       1.401   9.811  18.558  0.00  0.00    +0.000 N 
ATOM     24  C   UNL     1       2.301  10.833  18.030  0.00  0.00    +0.000 C 
ATOM     25  C   UNL     1       1.816  12.117  18.690  0.00  0.00    +0.000 C 
ATOM     26  C   UNL     1       0.317  11.907  18.804  0.00  0.00    +0.000 C 
ATOM     27  C   UNL     1       0.172  10.412  19.078  0.00  0.00    +0.000 C 
ENDBRANCH  20  23
ENDBRANCH   6  17
TORSDOF 5
ENDMDL
MODEL 5
REMARK VINA RESULT:      -8.4      1.066      1.074
REMARK  Name = 
REMARK  6 active torsions:
REMARK  status: ('A' for Active; 'I' for Inactive)
REMARK    1  A    between atoms: C_1  and  N_2
REMARK    2  A    between atoms: C_5  and  C_6
REMARK    3  A    between atoms: C_8  and  C_9
REMARK    4  A    between atoms: C_9  and  O_11
REMARK    5  A    between atoms: C_15  and  C_16
REMARK    6  A    between atoms: C_19  and  N_20
REMARK                            x       y       z     vdW  Elec       q    Type
REMARK                         _______ _______ _______ _____ _____    ______ ____
ROOT
ATOM      1  C   UNL     1       1.253   3.397  20.923  0.00  0.00    +0.000 C 
ATOM      2  N   UNL     1       2.601   3.427  20.407  0.00  0.00    +0.000 N 
ATOM      3  C   UNL     1       3.399   2.313  20.317  0.00  0.00    +0.000 A 
ATOM      4  N   UNL     1       4.541   2.580  19.735  0.00  0.00    +0.000 NA
ATOM      5  C   UNL     1       4.506   3.934  19.468  0.00  0.00    +0.000 A 
ATOM      6  C   UNL     1       3.284   4.499  19.855  0.00  0.00    +0.000 A 
ENDROOT
BRANCH   5   7
ATOM      7  C   UNL     1       5.621   4.611  18.807  0.00  0.00    +0.000 A 
ATOM      8  C   UNL     1       5.674   4.665  17.420  0.00  0.00    +0.000 A 
ATOM      9  C   UNL     1       6.693   5.416  16.831  0.00  0.00    +0.000 A 
ATOM     10  C   UNL     1       7.603   6.103  17.634  0.00  0.00    +0.000 A 
ATOM     11  C   UNL     1       7.488   5.972  19.001  0.00  0.00    +0.000 A 
ATOM     12  N   UNL     1       6.537   5.224  19.595  0.00  0.00    +0.000 NA
BRANCH   9  13
ATOM     13  C   UNL     1       6.812   5.589  15.364  0.00  0.00    +0.000 C 
ATOM     14  O   UNL     1       7.848   5.359  14.763  0.00  0.00    +0.000 OA
BRANCH  13  15
ATOM     15  O   UNL     1       5.676   5.978  14.752  0.00  0.00    +0.000 OA
ATOM     16  H   UNL     1       5.554   5.665  13.839  0.00  0.00    +0.000 HD
ENDBRANCH  13  15
ENDBRANCH   9  13
ENDBRANCH   5   7
BRANCH   6  17
ATOM     17  C   UNL     1       2.752   5.865  19.686  0.00  0.00    +0.000 A 
ATOM     18  C   UNL     1       2.210   6.550  20.777  0.00  0.00    +0.000 A 
ATOM     19  C   UNL     1       1.597   7.803  20.627  0.00  0.00    +0.000 A 
ATOM     20  C   UNL     1       1.535   8.458  19.394  0.00  0.00    +0.000 A 
ATOM     21  C   UNL     1       2.146   7.793  18.322  0.00  0.00    +0.000 A 
ATOM     22  C   UNL     1       2.717   6.514  18.454  0.00  0.00    +0.000 A 
BRANCH  20  23
ATOM     23  N   UNL     1       0.913   9.676  19.234  0.00  0.00    +0.000 N 
ATOM     24  C   UNL     1       0.768  10.678  20.287  0.00  0.00    +0.000 C 
ATOM     25  C   UNL     1      -0.585  11.314  19.995  0.00  0.00    +0.000 C 
ATOM     26  C   UNL     1      -0.673  11.271  18.480  0.00  0.00    +0.000 C 
ATOM     27  C   UNL     1       0.028   9.968  18.105  0.00  0.00    +0.000 C 
ENDBRANCH  20  23
ENDBRANCH   6  17
TORSDOF 5
ENDMDL
MODEL 6
REMARK VINA RESULT:      -8.4      1.699      2.246
REMARK  Name = 
REMARK  6 active torsions:
REMARK  status: ('A' for Active; 'I' for Inactive)
REMARK    1  A    between atoms: C_1  and  N_2
REMARK    2  A    between atoms: C_5  and  C_6
REMARK    3  A    between atoms: C_8  and  C_9
REMARK    4  A    between atoms: C_9  and  O_11
REMARK    5  A    between atoms: C_15  and  C_16
REMARK    6  A    between atoms: C_19  and  N_20
REMARK                            x       y       z     vdW  Elec       q    Type
REMARK                         _______ _______ _______ _____ _____    ______ ____
ROOT
ATOM      1  C   UNL     1       0.460   3.292  19.863  0.00  0.00    +0.000 C 
ATOM      2  N   UNL     1       1.799   3.191  19.333  0.00  0.00    +0.000 N 
ATOM      3  C   UNL     1       2.396   1.995  19.016  0.00  0.00    +0.000 A 
ATOM      4  N   UNL     1       3.573   2.171  18.471  0.00  0.00    +0.000 NA
ATOM      5  C   UNL     1       3.773   3.537  18.467  0.00  0.00    +0.000 A 
ATOM      6  C   UNL     1       2.661   4.217  18.980  0.00  0.00    +0.000 A 
ENDROOT
BRANCH   5   7
ATOM      7  C   UNL     1       4.995   4.129  17.922  0.00  0.00    +0.000 A 
ATOM      8  C   UNL     1       5.831   4.871  18.745  0.00  0.00    +0.000 A 
ATOM      9  C   UNL     1       7.041   5.322  18.215  0.00  0.00    +0.000 A 
ATOM     10  C   UNL     1       7.388   5.001  16.902  0.00  0.00    +0.000 A 
ATOM     11  C   UNL     1       6.484   4.280  16.152  0.00  0.00    +0.000 A 
ATOM     12  N   UNL     1       5.294   3.864  16.627  0.00  0.00    +0.000 NA
BRANCH   9  13
ATOM     13  C   UNL     1       8.034   6.074  19.018  0.00  0.00    +0.000 C 
ATOM     14  O   UNL     1       8.374   7.211  18.735  0.00  0.00    +0.000 OA
BRANCH  13  15
ATOM     15  O   UNL     1       8.493   5.415  20.101  0.00  0.00    +0.000 OA
ATOM     16  H   UNL     1       9.226   5.840  20.580  0.00  0.00    +0.000 HD
ENDBRANCH  13  15
ENDBRANCH   9  13
ENDBRANCH   5   7
BRANCH   6  17
ATOM     17  C   UNL     1       2.372   5.659  19.085  0.00  0.00    +0.000 A 
ATOM     18  C   UNL     1       2.084   6.233  20.327  0.00  0.00    +0.000 A 
ATOM     19  C   UNL     1       1.698   7.576  20.445  0.00  0.00    +0.000 A 
ATOM     20  C   UNL     1       1.623   8.428  19.340  0.00  0.00    +0.000 A 
ATOM     21  C   UNL     1       1.983   7.860  18.110  0.00  0.00    +0.000 A 
ATOM     22  C   UNL     1       2.323   6.502  17.976  0.00  0.00    +0.000 A 
BRANCH  20  23
ATOM     23  N   UNL     1       1.220   9.741  19.445  0.00  0.00    +0.000 N 
ATOM     24  C   UNL     1       1.522  10.783  18.467  0.00  0.00    +0.000 C 
ATOM     25  C   UNL     1       1.696  12.035  19.316  0.00  0.00    +0.000 C 
ATOM     26  C   UNL     1       0.711  11.828  20.452  0.00  0.00    +0.000 C 
ATOM     27  C   UNL     1       0.745  10.321  20.701  0.00  0.00    +0.000 C 
ENDBRANCH  20  23
ENDBRANCH   6  17
TORSDOF 5
ENDMDL
MODEL 7
REMARK VINA RESULT:      -8.3      1.890      2.540
REMARK  Name = 
REMARK  6 active torsions:
REMARK  status: ('A' for Active; 'I' for Inactive)
REMARK    1  A    between atoms: C_1  and  N_2
REMARK    2  A    between atoms: C_5  and  C_6
REMARK    3  A    between atoms: C_8  and  C_9
REMARK    4  A    between atoms: C_9  and  O_11
REMARK    5  A    between atoms: C_15  and  C_16
REMARK    6  A    between atoms: C_19  and  N_20
REMARK                            x       y       z     vdW  Elec       q    Type
REMARK                         _______ _______ _______ _____ _____    ______ ____
ROOT
ATOM      1  C   UNL     1       0.568   2.566  19.038  0.00  0.00    +0.000 C 
ATOM      2  N   UNL     1       1.917   2.757  18.563  0.00  0.00    +0.000 N 
ATOM      3  C   UNL     1       2.633   1.782  17.912  0.00  0.00    +0.000 A 
ATOM      4  N   UNL     1       3.794   2.224  17.502  0.00  0.00    +0.000 NA
ATOM      5  C   UNL     1       3.859   3.534  17.935  0.00  0.00    +0.000 A 
ATOM      6  C   UNL     1       2.679   3.915  18.587  0.00  0.00    +0.000 A 
ENDROOT
BRANCH   5   7
ATOM      7  C   UNL     1       5.024   4.374  17.657  0.00  0.00    +0.000 A 
ATOM      8  C   UNL     1       5.826   4.813  18.703  0.00  0.00    +0.000 A 
ATOM      9  C   UNL     1       6.989   5.516  18.386  0.00  0.00    +0.000 A 
ATOM     10  C   UNL     1       7.327   5.737  17.050  0.00  0.00    +0.000 A 
ATOM     11  C   UNL     1       6.458   5.285  16.081  0.00  0.00    +0.000 A 
ATOM     12  N   UNL     1       5.311   4.636  16.360  0.00  0.00    +0.000 NA
BRANCH   9  13
ATOM     13  C   UNL     1       7.946   5.983  19.417  0.00  0.00    +0.000 C 
ATOM     14  O   UNL     1       8.161   5.353  20.439  0.00  0.00    +0.000 OA
BRANCH  13  15
ATOM     15  O   UNL     1       8.583   7.131  19.111  0.00  0.00    +0.000 OA
ATOM     16  H   UNL     1       9.363   7.046  18.537  0.00  0.00    +0.000 HD
ENDBRANCH  13  15
ENDBRANCH   9  13
ENDBRANCH   5   7
BRANCH   6  17
ATOM     17  C   UNL     1       2.248   5.218  19.127  0.00  0.00    +0.000 A 
ATOM     18  C   UNL     1       2.323   6.368  18.337  0.00  0.00    +0.000 A 
ATOM     19  C   UNL     1       2.026   7.637  18.857  0.00  0.00    +0.000 A 
ATOM     20  C   UNL     1       1.595   7.819  20.174  0.00  0.00    +0.000 A 
ATOM     21  C   UNL     1       1.455   6.650  20.934  0.00  0.00    +0.000 A 
ATOM     22  C   UNL     1       1.799   5.381  20.436  0.00  0.00    +0.000 A 
BRANCH  20  23
ATOM     23  N   UNL     1       1.326   9.064  20.698  0.00  0.00    +0.000 N 
ATOM     24  C   UNL     1       1.083   9.335  22.112  0.00  0.00    +0.000 C 
ATOM     25  C   UNL     1       0.052  10.456  22.093  0.00  0.00    +0.000 C 
ATOM     26  C   UNL     1       0.424  11.253  20.856  0.00  0.00    +0.000 C 
ATOM     27  C   UNL     1       0.911  10.196  19.867  0.00  0.00    +0.000 C 
ENDBRANCH  20  23
ENDBRANCH   6  17
TORSDOF 5
ENDMDL
MODEL 8
REMARK VINA RESULT:      -8.2      1.078      1.484
REMARK  Name = 
REMARK  6 active torsions:
REMARK  status: ('A' for Active; 'I' for Inactive)
REMARK    1  A    between atoms: C_1  and  N_2
REMARK    2  A    between atoms: C_5  and  C_6
REMARK    3  A    between atoms: C_8  and  C_9
REMARK    4  A    between atoms: C_9  and  O_11
REMARK    5  A    between atoms: C_15  and  C_16
REMARK    6  A    between atoms: C_19  and  N_20
REMARK                            x       y       z     vdW  Elec       q    Type
REMARK                         _______ _______ _______ _____ _____    ______ ____
ROOT
ATOM      1  C   UNL     1       1.447   3.001  21.149  0.00  0.00    +0.000 C 
ATOM      2  N   UNL     1       2.769   3.136  20.584  0.00  0.00    +0.000 N 
ATOM      3  C   UNL     1       3.647   2.087  20.460  0.00  0.00    +0.000 A 
ATOM      4  N   UNL     1       4.742   2.442  19.838  0.00  0.00    +0.000 NA
ATOM      5  C   UNL     1       4.593   3.790  19.578  0.00  0.00    +0.000 A 
ATOM      6  C   UNL     1       3.346   4.258  20.012  0.00  0.00    +0.000 A 
ENDROOT
BRANCH   5   7
ATOM      7  C   UNL     1       5.627   4.552  18.880  0.00  0.00    +0.000 A 
ATOM      8  C   UNL     1       5.605   4.640  17.493  0.00  0.00    +0.000 A 
ATOM      9  C   UNL     1       6.542   5.468  16.874  0.00  0.00    +0.000 A 
ATOM     10  C   UNL     1       7.448   6.195  17.648  0.00  0.00    +0.000 A 
ATOM     11  C   UNL     1       7.412   6.026  19.015  0.00  0.00    +0.000 A 
ATOM     12  N   UNL     1       6.542   5.205  19.636  0.00  0.00    +0.000 NA
BRANCH   9  13
ATOM     13  C   UNL     1       6.574   5.681  15.408  0.00  0.00    +0.000 C 
ATOM     14  O   UNL     1       5.643   6.184  14.802  0.00  0.00    +0.000 OA
BRANCH  13  15
ATOM     15  O   UNL     1       7.727   5.313  14.814  0.00  0.00    +0.000 OA
ATOM     16  H   UNL     1       8.206   6.015  14.341  0.00  0.00    +0.000 HD
ENDBRANCH  13  15
ENDBRANCH   9  13
ENDBRANCH   5   7
BRANCH   6  17
ATOM     17  C   UNL     1       2.704   5.578  19.869  0.00  0.00    +0.000 A 
ATOM     18  C   UNL     1       2.811   6.288  18.670  0.00  0.00    +0.000 A 
ATOM     19  C   UNL     1       2.307   7.591  18.540  0.00  0.00    +0.000 A 
ATOM     20  C   UNL     1       1.631   8.235  19.580  0.00  0.00    +0.000 A 
ATOM     21  C   UNL     1       1.468   7.485  20.753  0.00  0.00    +0.000 A 
ATOM     22  C   UNL     1       2.014   6.199  20.908  0.00  0.00    +0.000 A 
BRANCH  20  23
ATOM     23  N   UNL     1       1.157   9.523  19.468  0.00  0.00    +0.000 N 
ATOM     24  C   UNL     1       0.846  10.394  20.597  0.00  0.00    +0.000 C 
ATOM     25  C   UNL     1      -0.350  11.202  20.111  0.00  0.00    +0.000 C 
ATOM     26  C   UNL     1      -0.086  11.359  18.625  0.00  0.00    +0.000 C 
ATOM     27  C   UNL     1       0.583  10.046  18.227  0.00  0.00    +0.000 C 
ENDBRANCH  20  23
ENDBRANCH   6  17
TORSDOF 5
ENDMDL
MODEL 9
REMARK VINA RESULT:      -8.1      1.747      2.431
REMARK  Name = 
REMARK  6 active torsions:
REMARK  status: ('A' for Active; 'I' for Inactive)
REMARK    1  A    between atoms: C_1  and  N_2
REMARK    2  A    between atoms: C_5  and  C_6
REMARK    3  A    between atoms: C_8  and  C_9
REMARK    4  A    between atoms: C_9  and  O_11
REMARK    5  A    between atoms: C_15  and  C_16
REMARK    6  A    between atoms: C_19  and  N_20
REMARK                            x       y       z     vdW  Elec       q    Type
REMARK                         _______ _______ _______ _____ _____    ______ ____
ROOT
ATOM      1  C   UNL     1       1.179   3.768  20.835  0.00  0.00    +0.000 C 
ATOM      2  N   UNL     1       2.421   3.708  20.102  0.00  0.00    +0.000 N 
ATOM      3  C   UNL     1       3.159   2.558  19.961  0.00  0.00    +0.000 A 
ATOM      4  N   UNL     1       4.193   2.738  19.180  0.00  0.00    +0.000 NA
ATOM      5  C   UNL     1       4.155   4.073  18.826  0.00  0.00    +0.000 A 
ATOM      6  C   UNL     1       3.032   4.712  19.368  0.00  0.00    +0.000 A 
ENDROOT
BRANCH   5   7
ATOM      7  C   UNL     1       5.162   4.658  17.941  0.00  0.00    +0.000 A 
ATOM      8  C   UNL     1       5.891   5.764  18.359  0.00  0.00    +0.000 A 
ATOM      9  C   UNL     1       6.919   6.220  17.532  0.00  0.00    +0.000 A 
ATOM     10  C   UNL     1       7.202   5.554  16.340  0.00  0.00    +0.000 A 
ATOM     11  C   UNL     1       6.410   4.480  15.996  0.00  0.00    +0.000 A 
ATOM     12  N   UNL     1       5.388   4.041  16.756  0.00  0.00    +0.000 NA
BRANCH   9  13
ATOM     13  C   UNL     1       7.797   7.356  17.903  0.00  0.00    +0.000 C 
ATOM     14  O   UNL     1       7.818   8.397  17.269  0.00  0.00    +0.000 OA
BRANCH  13  15
ATOM     15  O   UNL     1       8.532   7.155  19.015  0.00  0.00    +0.000 OA
ATOM     16  H   UNL     1       9.494   7.095  18.886  0.00  0.00    +0.000 HD
ENDBRANCH  13  15
ENDBRANCH   9  13
ENDBRANCH   5   7
BRANCH   6  17
ATOM     17  C   UNL     1       2.521   6.084  19.193  0.00  0.00    +0.000 A 
ATOM     18  C   UNL     1       2.414   6.639  17.914  0.00  0.00    +0.000 A 
ATOM     19  C   UNL     1       2.037   7.977  17.723  0.00  0.00    +0.000 A 
ATOM     20  C   UNL     1       1.701   8.815  18.790  0.00  0.00    +0.000 A 
ATOM     21  C   UNL     1       1.743   8.226  20.061  0.00  0.00    +0.000 A 
ATOM     22  C   UNL     1       2.169   6.902  20.265  0.00  0.00    +0.000 A 
BRANCH  20  23
ATOM     23  N   UNL     1       1.355  10.136  18.611  0.00  0.00    +0.000 N 
ATOM     24  C   UNL     1       2.253  11.168  18.101  0.00  0.00    +0.000 C 
ATOM     25  C   UNL     1       1.833  12.420  18.861  0.00  0.00    +0.000 C 
ATOM     26  C   UNL     1       0.336  12.236  19.039  0.00  0.00    +0.000 C 
ATOM     27  C   UNL     1       0.168  10.730  19.230  0.00  0.00    +0.000 C 
ENDBRANCH  20  23
ENDBRANCH   6  17
TORSDOF 5
ENDMDL
