MODEL 1
REMARK VINA RESULT:      -7.2      0.000      0.000
REMARK  Name = 
REMARK  4 active torsions:
REMARK  status: ('A' for Active; 'I' for Inactive)
REMARK    1  A    between atoms: C_2  and  C_3
REMARK    2  A    between atoms: C_14  and  C_15
REMARK    3  A    between atoms: C_15  and  C_16
REMARK    4  A    between atoms: C_16  and  S_17
REMARK                            x       y       z     vdW  Elec       q    Type
REMARK                         _______ _______ _______ _____ _____    ______ ____
ROOT
ATOM      1  O   UNL     1       4.542   6.340  18.333  0.00  0.00    +0.000 OA
ATOM      2  C   UNL     1       3.356   6.036  18.202  0.00  0.00    +0.000 C 
ATOM      3  N   UNL     1       2.934   4.749  17.850  0.00  0.00    +0.000 N 
ATOM      4  C   UNL     1       1.519   4.361  17.789  0.00  0.00    +0.000 C 
ATOM      5  C   UNL     1       1.266   3.076  18.564  0.00  0.00    +0.000 C 
ATOM      6  C   UNL     1       2.150   1.953  18.048  0.00  0.00    +0.000 C 
ATOM      7  C   UNL     1       3.622   2.366  18.051  0.00  0.00    +0.000 C 
ATOM      8  C   UNL     1       3.863   3.704  17.317  0.00  0.00    +0.000 C 
ENDROOT
BRANCH   2   9
ATOM      9  C   UNL     1       2.289   7.108  18.445  0.00  0.00    +0.000 C 
ATOM     10  C   UNL     1       2.594   8.386  17.649  0.00  0.00    +0.000 C 
ATOM     11  C   UNL     1       1.544   9.445  17.952  0.00  0.00    +0.000 C 
ATOM     12  O   UNL     1       1.500   9.723  19.350  0.00  0.00    +0.000 OA
ATOM     13  C   UNL     1       1.158   8.577  20.127  0.00  0.00    +0.000 C 
ATOM     14  C   UNL     1       2.176   7.460  19.933  0.00  0.00    +0.000 C 
ENDBRANCH   2   9
BRANCH   8  15
ATOM     15  C   UNL     1       5.367   4.052  17.272  0.00  0.00    +0.000 C 
BRANCH  15  16
ATOM     16  C   UNL     1       6.015   3.873  15.904  0.00  0.00    +0.000 C 
BRANCH  16  17
ATOM     17  S   UNL     1       6.572   5.430  15.243  0.00  0.00    +0.000 S 
ATOM     18  O   UNL     1       7.382   6.102  16.237  0.00  0.00    +0.000 OA
ATOM     19  O   UNL     1       7.069   5.194  13.901  0.00  0.00    +0.000 OA
ATOM     20  F   UNL     1       5.279   6.328  15.056  0.00  0.00    +0.000 F 
ENDBRANCH  16  17
ENDBRANCH  15  16
ENDBRANCH   8  15
TORSDOF 4
ENDMDL
MODEL 2
REMARK VINA RESULT:      -7.1      1.645      1.679
REMARK  Name = 
REMARK  4 active torsions:
REMARK  status: ('A' for Active; 'I' for Inactive)
REMARK    1  A    between atoms: C_2  and  C_3
REMARK    2  A    between atoms: C_14  and  C_15
REMARK    3  A    between atoms: C_15  and  C_16
REMARK    4  A    between atoms: C_16  and  S_17
REMARK                            x       y       z     vdW  Elec       q    Type
REMARK                         _______ _______ _______ _____ _____    ______ ____
ROOT
ATOM      1  O   UNL     1       4.251   7.023  17.622  0.00  0.00    +0.000 OA
ATOM      2  C   UNL     1       3.161   6.509  17.873  0.00  0.00    +0.000 C 
ATOM      3  N   UNL     1       2.882   5.159  17.633  0.00  0.00    +0.000 N 
ATOM      4  C   UNL     1       1.616   4.524  18.021  0.00  0.00    +0.000 C 
ATOM      5  C   UNL     1       1.860   3.234  18.792  0.00  0.00    +0.000 C 
ATOM      6  C   UNL     1       2.712   2.274  17.978  0.00  0.00    +0.000 C 
ATOM      7  C   UNL     1       4.006   2.943  17.518  0.00  0.00    +0.000 C 
ATOM      8  C   UNL     1       3.756   4.283  16.792  0.00  0.00    +0.000 C 
ENDROOT
BRANCH   2   9
ATOM      9  C   UNL     1       2.059   7.380  18.486  0.00  0.00    +0.000 C 
ATOM     10  C   UNL     1       2.064   8.791  17.879  0.00  0.00    +0.000 C 
ATOM     11  C   UNL     1       0.993   9.642  18.544  0.00  0.00    +0.000 C 
ATOM     12  O   UNL     1       1.202   9.702  19.954  0.00  0.00    +0.000 OA
ATOM     13  C   UNL     1       1.143   8.417  20.572  0.00  0.00    +0.000 C 
ATOM     14  C   UNL     1       2.211   7.489  20.007  0.00  0.00    +0.000 C 
ENDBRANCH   2   9
BRANCH   8  15
ATOM     15  C   UNL     1       5.076   4.892  16.273  0.00  0.00    +0.000 C 
BRANCH  15  16
ATOM     16  C   UNL     1       6.315   4.051  16.563  0.00  0.00    +0.000 C 
BRANCH  16  17
ATOM     17  S   UNL     1       7.306   4.780  17.849  0.00  0.00    +0.000 S 
ATOM     18  O   UNL     1       6.502   4.917  19.045  0.00  0.00    +0.000 OA
ATOM     19  O   UNL     1       8.583   4.093  17.875  0.00  0.00    +0.000 OA
ATOM     20  F   UNL     1       7.639   6.257  17.379  0.00  0.00    +0.000 F 
ENDBRANCH  16  17
ENDBRANCH  15  16
ENDBRANCH   8  15
TORSDOF 4
ENDMDL
MODEL 3
REMARK VINA RESULT:      -6.9      3.363      6.199
REMARK  Name = 
REMARK  4 active torsions:
REMARK  status: ('A' for Active; 'I' for Inactive)
REMARK    1  A    between atoms: C_2  and  C_3
REMARK    2  A    between atoms: C_14  and  C_15
REMARK    3  A    between atoms: C_15  and  C_16
REMARK    4  A    between atoms: C_16  and  S_17
REMARK                            x       y       z     vdW  Elec       q    Type
REMARK                         _______ _______ _______ _____ _____    ______ ____
ROOT
ATOM      1  O   UNL     1       3.596   6.473  18.048  0.00  0.00    +0.000 OA
ATOM      2  C   UNL     1       3.917   5.352  18.442  0.00  0.00    +0.000 C 
ATOM      3  N   UNL     1       3.225   4.671  19.450  0.00  0.00    +0.000 N 
ATOM      4  C   UNL     1       3.548   3.296  19.852  0.00  0.00    +0.000 C 
ATOM      5  C   UNL     1       2.302   2.423  19.882  0.00  0.00    +0.000 C 
ATOM      6  C   UNL     1       1.252   3.018  20.807  0.00  0.00    +0.000 C 
ATOM      7  C   UNL     1       0.949   4.469  20.435  0.00  0.00    +0.000 C 
ATOM      8  C   UNL     1       2.225   5.335  20.343  0.00  0.00    +0.000 C 
ENDROOT
BRANCH   2   9
ATOM      9  C   UNL     1       5.122   4.661  17.796  0.00  0.00    +0.000 C 
ATOM     10  C   UNL     1       6.443   5.268  18.293  0.00  0.00    +0.000 C 
ATOM     11  C   UNL     1       7.615   4.594  17.595  0.00  0.00    +0.000 C 
ATOM     12  O   UNL     1       7.502   4.729  16.180  0.00  0.00    +0.000 OA
ATOM     13  C   UNL     1       6.318   4.123  15.663  0.00  0.00    +0.000 C 
ATOM     14  C   UNL     1       5.071   4.758  16.267  0.00  0.00    +0.000 C 
ENDBRANCH   2   9
BRANCH   8  15
ATOM     15  C   UNL     1       1.878   6.809  20.042  0.00  0.00    +0.000 C 
BRANCH  15  16
ATOM     16  C   UNL     1       1.957   7.735  21.250  0.00  0.00    +0.000 C 
BRANCH  16  17
ATOM     17  S   UNL     1       0.633   8.925  21.242  0.00  0.00    +0.000 S 
ATOM     18  O   UNL     1       0.822   9.850  22.340  0.00  0.00    +0.000 OA
ATOM     19  O   UNL     1       0.463   9.397  19.881  0.00  0.00    +0.000 OA
ATOM     20  F   UNL     1      -0.695   8.124  21.573  0.00  0.00    +0.000 F 
ENDBRANCH  16  17
ENDBRANCH  15  16
ENDBRANCH   8  15
TORSDOF 4
ENDMDL
MODEL 4
REMARK VINA RESULT:      -6.8      1.415      1.511
REMARK  Name = 
REMARK  4 active torsions:
REMARK  status: ('A' for Active; 'I' for Inactive)
REMARK    1  A    between atoms: C_2  and  C_3
REMARK    2  A    between atoms: C_14  and  C_15
REMARK    3  A    between atoms: C_15  and  C_16
REMARK    4  A    between atoms: C_16  and  S_17
REMARK                            x       y       z     vdW  Elec       q    Type
REMARK                         _______ _______ _______ _____ _____    ______ ____
ROOT
ATOM      1  O   UNL     1       4.277   6.650  18.140  0.00  0.00    +0.000 OA
ATOM      2  C   UNL     1       3.178   6.303  18.573  0.00  0.00    +0.000 C 
ATOM      3  N   UNL     1       2.887   4.985  18.944  0.00  0.00    +0.000 N 
ATOM      4  C   UNL     1       1.609   4.591  19.551  0.00  0.00    +0.000 C 
ATOM      5  C   UNL     1       1.829   3.769  20.813  0.00  0.00    +0.000 C 
ATOM      6  C   UNL     1       2.681   2.545  20.515  0.00  0.00    +0.000 C 
ATOM      7  C   UNL     1       3.988   2.938  19.829  0.00  0.00    +0.000 C 
ATOM      8  C   UNL     1       3.761   3.825  18.586  0.00  0.00    +0.000 C 
ENDROOT
BRANCH   2   9
ATOM      9  C   UNL     1       2.079   7.360  18.725  0.00  0.00    +0.000 C 
ATOM     10  C   UNL     1       2.314   8.546  17.778  0.00  0.00    +0.000 C 
ATOM     11  C   UNL     1       1.234   9.597  17.990  0.00  0.00    +0.000 C 
ATOM     12  O   UNL     1       1.218  10.034  19.348  0.00  0.00    +0.000 OA
ATOM     13  C   UNL     1       0.941   8.975  20.262  0.00  0.00    +0.000 C 
ATOM     14  C   UNL     1       1.994   7.878  20.165  0.00  0.00    +0.000 C 
ENDBRANCH   2   9
BRANCH   8  15
ATOM     15  C   UNL     1       5.095   4.140  17.874  0.00  0.00    +0.000 C 
BRANCH  15  16
ATOM     16  C   UNL     1       5.103   3.826  16.382  0.00  0.00    +0.000 C 
BRANCH  16  17
ATOM     17  S   UNL     1       6.441   4.658  15.553  0.00  0.00    +0.000 S 
ATOM     18  O   UNL     1       5.970   5.934  15.059  0.00  0.00    +0.000 OA
ATOM     19  O   UNL     1       7.618   4.564  16.396  0.00  0.00    +0.000 OA
ATOM     20  F   UNL     1       6.781   3.794  14.268  0.00  0.00    +0.000 F 
ENDBRANCH  16  17
ENDBRANCH  15  16
ENDBRANCH   8  15
TORSDOF 4
ENDMDL
MODEL 5
REMARK VINA RESULT:      -6.8      1.134      1.299
REMARK  Name = 
REMARK  4 active torsions:
REMARK  status: ('A' for Active; 'I' for Inactive)
REMARK    1  A    between atoms: C_2  and  C_3
REMARK    2  A    between atoms: C_14  and  C_15
REMARK    3  A    between atoms: C_15  and  C_16
REMARK    4  A    between atoms: C_16  and  S_17
REMARK                            x       y       z     vdW  Elec       q    Type
REMARK                         _______ _______ _______ _____ _____    ______ ____
ROOT
ATOM      1  O   UNL     1       4.292   7.022  17.987  0.00  0.00    +0.000 OA
ATOM      2  C   UNL     1       3.145   6.577  18.039  0.00  0.00    +0.000 C 
ATOM      3  N   UNL     1       2.824   5.257  17.703  0.00  0.00    +0.000 N 
ATOM      4  C   UNL     1       1.474   4.699  17.857  0.00  0.00    +0.000 C 
ATOM      5  C   UNL     1       1.508   3.374  18.604  0.00  0.00    +0.000 C 
ATOM      6  C   UNL     1       2.418   2.382  17.897  0.00  0.00    +0.000 C 
ATOM      7  C   UNL     1       3.810   2.973  17.678  0.00  0.00    +0.000 C 
ATOM      8  C   UNL     1       3.766   4.349  16.977  0.00  0.00    +0.000 C 
ENDROOT
BRANCH   2   9
ATOM      9  C   UNL     1       2.016   7.503  18.504  0.00  0.00    +0.000 C 
ATOM     10  C   UNL     1       2.103   8.873  17.815  0.00  0.00    +0.000 C 
ATOM     11  C   UNL     1       0.999   9.782  18.336  0.00  0.00    +0.000 C 
ATOM     12  O   UNL     1       1.091   9.925  19.752  0.00  0.00    +0.000 OA
ATOM     13  C   UNL     1       0.953   8.683  20.439  0.00  0.00    +0.000 C 
ATOM     14  C   UNL     1       2.043   7.703  20.023  0.00  0.00    +0.000 C 
ENDBRANCH   2   9
BRANCH   8  15
ATOM     15  C   UNL     1       5.189   4.881  16.702  0.00  0.00    +0.000 C 
BRANCH  15  16
ATOM     16  C   UNL     1       5.429   5.324  15.263  0.00  0.00    +0.000 C 
BRANCH  16  17
ATOM     17  S   UNL     1       6.991   4.724  14.653  0.00  0.00    +0.000 S 
ATOM     18  O   UNL     1       7.480   5.629  13.635  0.00  0.00    +0.000 OA
ATOM     19  O   UNL     1       7.809   4.363  15.796  0.00  0.00    +0.000 OA
ATOM     20  F   UNL     1       6.689   3.356  13.910  0.00  0.00    +0.000 F 
ENDBRANCH  16  17
ENDBRANCH  15  16
ENDBRANCH   8  15
TORSDOF 4
ENDMDL
MODEL 6
REMARK VINA RESULT:      -6.7      3.008      6.128
REMARK  Name = 
REMARK  4 active torsions:
REMARK  status: ('A' for Active; 'I' for Inactive)
REMARK    1  A    between atoms: C_2  and  C_3
REMARK    2  A    between atoms: C_14  and  C_15
REMARK    3  A    between atoms: C_15  and  C_16
REMARK    4  A    between atoms: C_16  and  S_17
REMARK                            x       y       z     vdW  Elec       q    Type
REMARK                         _______ _______ _______ _____ _____    ______ ____
ROOT
ATOM      1  O   UNL     1       3.746   6.789  17.968  0.00  0.00    +0.000 OA
ATOM      2  C   UNL     1       4.005   5.647  18.349  0.00  0.00    +0.000 C 
ATOM      3  N   UNL     1       3.290   5.002  19.364  0.00  0.00    +0.000 N 
ATOM      4  C   UNL     1       3.535   3.607  19.751  0.00  0.00    +0.000 C 
ATOM      5  C   UNL     1       2.238   2.812  19.798  0.00  0.00    +0.000 C 
ATOM      6  C   UNL     1       1.243   3.463  20.746  0.00  0.00    +0.000 C 
ATOM      7  C   UNL     1       1.024   4.933  20.389  0.00  0.00    +0.000 C 
ATOM      8  C   UNL     1       2.349   5.719  20.280  0.00  0.00    +0.000 C 
ENDROOT
BRANCH   2   9
ATOM      9  C   UNL     1       5.154   4.889  17.675  0.00  0.00    +0.000 C 
ATOM     10  C   UNL     1       6.509   5.277  18.286  0.00  0.00    +0.000 C 
ATOM     11  C   UNL     1       7.629   4.544  17.562  0.00  0.00    +0.000 C 
ATOM     12  O   UNL     1       7.604   4.839  16.167  0.00  0.00    +0.000 OA
ATOM     13  C   UNL     1       6.385   4.438  15.543  0.00  0.00    +0.000 C 
ATOM     14  C   UNL     1       5.191   5.151  16.166  0.00  0.00    +0.000 C 
ENDBRANCH   2   9
BRANCH   8  15
ATOM     15  C   UNL     1       2.088   7.214  19.995  0.00  0.00    +0.000 C 
BRANCH  15  16
ATOM     16  C   UNL     1       1.257   7.923  21.059  0.00  0.00    +0.000 C 
BRANCH  16  17
ATOM     17  S   UNL     1       0.766   9.548  20.520  0.00  0.00    +0.000 S 
ATOM     18  O   UNL     1      -0.629   9.515  20.131  0.00  0.00    +0.000 OA
ATOM     19  O   UNL     1       1.255  10.508  21.491  0.00  0.00    +0.000 OA
ATOM     20  F   UNL     1       1.580   9.847  19.193  0.00  0.00    +0.000 F 
ENDBRANCH  16  17
ENDBRANCH  15  16
ENDBRANCH   8  15
TORSDOF 4
ENDMDL
MODEL 7
REMARK VINA RESULT:      -6.6      1.207      1.215
REMARK  Name = 
REMARK  4 active torsions:
REMARK  status: ('A' for Active; 'I' for Inactive)
REMARK    1  A    between atoms: C_2  and  C_3
REMARK    2  A    between atoms: C_14  and  C_15
REMARK    3  A    between atoms: C_15  and  C_16
REMARK    4  A    between atoms: C_16  and  S_17
REMARK                            x       y       z     vdW  Elec       q    Type
REMARK                         _______ _______ _______ _____ _____    ______ ____
ROOT
ATOM      1  O   UNL     1       4.338   6.638  18.106  0.00  0.00    +0.000 OA
ATOM      2  C   UNL     1       3.238   6.281  18.529  0.00  0.00    +0.000 C 
ATOM      3  N   UNL     1       2.954   4.960  18.890  0.00  0.00    +0.000 N 
ATOM      4  C   UNL     1       1.674   4.553  19.486  0.00  0.00    +0.000 C 
ATOM      5  C   UNL     1       1.891   3.725  20.745  0.00  0.00    +0.000 C 
ATOM      6  C   UNL     1       2.752   2.508  20.446  0.00  0.00    +0.000 C 
ATOM      7  C   UNL     1       4.062   2.914  19.771  0.00  0.00    +0.000 C 
ATOM      8  C   UNL     1       3.838   3.808  18.531  0.00  0.00    +0.000 C 
ENDROOT
BRANCH   2   9
ATOM      9  C   UNL     1       2.131   7.330  18.680  0.00  0.00    +0.000 C 
ATOM     10  C   UNL     1       2.380   8.537  17.762  0.00  0.00    +0.000 C 
ATOM     11  C   UNL     1       1.291   9.578  17.974  0.00  0.00    +0.000 C 
ATOM     12  O   UNL     1       1.244   9.987  19.339  0.00  0.00    +0.000 OA
ATOM     13  C   UNL     1       0.953   8.908  20.225  0.00  0.00    +0.000 C 
ATOM     14  C   UNL     1       2.013   7.818  20.128  0.00  0.00    +0.000 C 
ENDBRANCH   2   9
BRANCH   8  15
ATOM     15  C   UNL     1       5.174   4.136  17.831  0.00  0.00    +0.000 C 
BRANCH  15  16
ATOM     16  C   UNL     1       5.280   3.619  16.400  0.00  0.00    +0.000 C 
BRANCH  16  17
ATOM     17  S   UNL     1       6.525   4.501  15.483  0.00  0.00    +0.000 S 
ATOM     18  O   UNL     1       7.756   4.510  16.247  0.00  0.00    +0.000 OA
ATOM     19  O   UNL     1       6.493   4.026  14.113  0.00  0.00    +0.000 OA
ATOM     20  F   UNL     1       6.047   6.011  15.412  0.00  0.00    +0.000 F 
ENDBRANCH  16  17
ENDBRANCH  15  16
ENDBRANCH   8  15
TORSDOF 4
ENDMDL
MODEL 8
REMARK VINA RESULT:      -6.5      3.040      5.672
REMARK  Name = 
REMARK  4 active torsions:
REMARK  status: ('A' for Active; 'I' for Inactive)
REMARK    1  A    between atoms: C_2  and  C_3
REMARK    2  A    between atoms: C_14  and  C_15
REMARK    3  A    between atoms: C_15  and  C_16
REMARK    4  A    between atoms: C_16  and  S_17
REMARK                            x       y       z     vdW  Elec       q    Type
REMARK                         _______ _______ _______ _____ _____    ______ ____
ROOT
ATOM      1  O   UNL     1       4.438   4.926  19.419  0.00  0.00    +0.000 OA
ATOM      2  C   UNL     1       4.108   5.844  18.669  0.00  0.00    +0.000 C 
ATOM      3  N   UNL     1       2.956   6.613  18.867  0.00  0.00    +0.000 N 
ATOM      4  C   UNL     1       2.615   7.770  18.029  0.00  0.00    +0.000 C 
ATOM      5  C   UNL     1       2.282   8.988  18.880  0.00  0.00    +0.000 C 
ATOM      6  C   UNL     1       1.151   8.675  19.846  0.00  0.00    +0.000 C 
ATOM      7  C   UNL     1       1.469   7.437  20.683  0.00  0.00    +0.000 C 
ATOM      8  C   UNL     1       1.868   6.222  19.816  0.00  0.00    +0.000 C 
ENDROOT
BRANCH   2   9
ATOM      9  C   UNL     1       5.003   6.173  17.469  0.00  0.00    +0.000 C 
ATOM     10  C   UNL     1       4.950   5.057  16.414  0.00  0.00    +0.000 C 
ATOM     11  C   UNL     1       5.886   5.392  15.263  0.00  0.00    +0.000 C 
ATOM     12  O   UNL     1       7.220   5.573  15.735  0.00  0.00    +0.000 OA
ATOM     13  C   UNL     1       7.330   6.643  16.672  0.00  0.00    +0.000 C 
ATOM     14  C   UNL     1       6.460   6.388  17.897  0.00  0.00    +0.000 C 
ENDBRANCH   2   9
BRANCH   8  15
ATOM     15  C   UNL     1       2.108   4.970  20.687  0.00  0.00    +0.000 C 
BRANCH  15  16
ATOM     16  C   UNL     1       1.058   3.877  20.522  0.00  0.00    +0.000 C 
BRANCH  16  17
ATOM     17  S   UNL     1       1.404   2.855  19.105  0.00  0.00    +0.000 S 
ATOM     18  O   UNL     1       2.686   2.209  19.291  0.00  0.00    +0.000 OA
ATOM     19  O   UNL     1       0.210   2.088  18.804  0.00  0.00    +0.000 OA
ATOM     20  F   UNL     1       1.587   3.839  17.875  0.00  0.00    +0.000 F 
ENDBRANCH  16  17
ENDBRANCH  15  16
ENDBRANCH   8  15
TORSDOF 4
ENDMDL
MODEL 9
REMARK VINA RESULT:      -6.4      3.365      4.556
REMARK  Name = 
REMARK  4 active torsions:
REMARK  status: ('A' for Active; 'I' for Inactive)
REMARK    1  A    between atoms: C_2  and  C_3
REMARK    2  A    between atoms: C_14  and  C_15
REMARK    3  A    between atoms: C_15  and  C_16
REMARK    4  A    between atoms: C_16  and  S_17
REMARK                            x       y       z     vdW  Elec       q    Type
REMARK                         _______ _______ _______ _____ _____    ______ ____
ROOT
ATOM      1  O   UNL     1       1.668   5.447  18.763  0.00  0.00    +0.000 OA
ATOM      2  C   UNL     1       2.587   6.224  18.503  0.00  0.00    +0.000 C 
ATOM      3  N   UNL     1       3.786   5.813  17.909  0.00  0.00    +0.000 N 
ATOM      4  C   UNL     1       4.842   6.753  17.511  0.00  0.00    +0.000 C 
ATOM      5  C   UNL     1       5.288   6.505  16.077  0.00  0.00    +0.000 C 
ATOM      6  C   UNL     1       5.755   5.069  15.900  0.00  0.00    +0.000 C 
ATOM      7  C   UNL     1       4.686   4.082  16.367  0.00  0.00    +0.000 C 
ATOM      8  C   UNL     1       4.192   4.378  17.800  0.00  0.00    +0.000 C 
ENDROOT
BRANCH   2   9
ATOM      9  C   UNL     1       2.411   7.710  18.832  0.00  0.00    +0.000 C 
ATOM     10  C   UNL     1       1.610   7.901  20.129  0.00  0.00    +0.000 C 
ATOM     11  C   UNL     1       1.412   9.385  20.398  0.00  0.00    +0.000 C 
ATOM     12  O   UNL     1       0.749  10.011  19.302  0.00  0.00    +0.000 OA
ATOM     13  C   UNL     1       1.488   9.914  18.086  0.00  0.00    +0.000 C 
ATOM     14  C   UNL     1       1.707   8.458  17.694  0.00  0.00    +0.000 C 
ENDBRANCH   2   9
BRANCH   8  15
ATOM     15  C   UNL     1       3.171   3.318  18.268  0.00  0.00    +0.000 C 
BRANCH  15  16
ATOM     16  C   UNL     1       3.594   2.538  19.507  0.00  0.00    +0.000 C 
BRANCH  16  17
ATOM     17  S   UNL     1       2.509   2.866  20.880  0.00  0.00    +0.000 S 
ATOM     18  O   UNL     1       1.138   2.687  20.452  0.00  0.00    +0.000 OA
ATOM     19  O   UNL     1       3.032   2.171  22.041  0.00  0.00    +0.000 OA
ATOM     20  F   UNL     1       2.661   4.408  21.216  0.00  0.00    +0.000 F 
ENDBRANCH  16  17
ENDBRANCH  15  16
ENDBRANCH   8  15
TORSDOF 4
ENDMDL
