MODEL 1
REMARK VINA RESULT:      -7.9      0.000      0.000
REMARK  Name = 
REMARK  5 active torsions:
REMARK  status: ('A' for Active; 'I' for Inactive)
REMARK    1  A    between atoms: C_1  and  C_2
REMARK    2  A    between atoms: N_7  and  S_8
REMARK    3  A    between atoms: S_8  and  C_11
REMARK    4  A    between atoms: C_14  and  N_15
REMARK    5  A    between atoms: C_16  and  C_18
REMARK                            x       y       z     vdW  Elec       q    Type
REMARK                         _______ _______ _______ _____ _____    ______ ____
ROOT
ATOM      1  C   UNL     1       6.059   5.723  18.078  0.00  0.00    +0.000 A 
ATOM      2  C   UNL     1       5.566   6.760  17.287  0.00  0.00    +0.000 A 
ATOM      3  C   UNL     1       6.322   7.921  17.115  0.00  0.00    +0.000 A 
ATOM      4  C   UNL     1       7.572   8.063  17.724  0.00  0.00    +0.000 A 
ATOM      5  C   UNL     1       8.063   7.012  18.512  0.00  0.00    +0.000 A 
ATOM      6  C   UNL     1       7.294   5.859  18.720  0.00  0.00    +0.000 A 
ENDROOT
BRANCH   4   7
ATOM      7  N   UNL     1       8.368   9.220  17.593  0.00  0.00    +0.000 N 
ATOM      8  C   UNL     1       8.944   9.954  18.622  0.00  0.00    +0.000 C 
ATOM      9  O   UNL     1       8.865   9.674  19.814  0.00  0.00    +0.000 OA
ATOM     10  H   UNL     1       8.616   9.522  16.658  0.00  0.00    +0.000 HD
BRANCH   8  11
ATOM     11  C   UNL     1       9.705  11.101  18.170  0.00  0.00    +0.000 A 
ATOM     12  C   UNL     1      11.073  11.288  18.100  0.00  0.00    +0.000 A 
ATOM     13  C   UNL     1      11.286  12.586  17.584  0.00  0.00    +0.000 A 
ATOM     14  C   UNL     1      10.036  13.119  17.370  0.00  0.00    +0.000 A 
ATOM     15  O   UNL     1       9.067  12.227  17.718  0.00  0.00    +0.000 OA
ENDBRANCH   8  11
ENDBRANCH   4   7
BRANCH   1  16
ATOM     16  S   UNL     1       5.032   4.297  18.366  0.00  0.00    +0.000 S 
ATOM     17  O   UNL     1       5.605   3.576  19.484  0.00  0.00    +0.000 OA
ATOM     18  O   UNL     1       4.840   3.642  17.092  0.00  0.00    +0.000 OA
BRANCH  16  25
ATOM     19  C   UNL     1       2.015   5.350  20.835  0.00  0.00    +0.000 C 
ATOM     20  C   UNL     1       2.988   4.379  20.155  0.00  0.00    +0.000 C 
ATOM     21  C   UNL     1       2.339   3.022  19.865  0.00  0.00    +0.000 C 
ATOM     22  C   UNL     1       1.271   3.103  18.776  0.00  0.00    +0.000 C 
ATOM     23  C   UNL     1       1.762   3.835  17.529  0.00  0.00    +0.000 C 
ATOM     24  C   UNL     1       2.481   5.143  17.846  0.00  0.00    +0.000 C 
ATOM     25  N   UNL     1       3.533   4.971  18.886  0.00  0.00    +0.000 NA
ENDBRANCH  16  25
ENDBRANCH   1  16
TORSDOF 4
ENDMDL
MODEL 2
REMARK VINA RESULT:      -7.9      0.663      1.299
REMARK  Name = 
REMARK  5 active torsions:
REMARK  status: ('A' for Active; 'I' for Inactive)
REMARK    1  A    between atoms: C_1  and  C_2
REMARK    2  A    between atoms: N_7  and  S_8
REMARK    3  A    between atoms: S_8  and  C_11
REMARK    4  A    between atoms: C_14  and  N_15
REMARK    5  A    between atoms: C_16  and  C_18
REMARK                            x       y       z     vdW  Elec       q    Type
REMARK                         _______ _______ _______ _____ _____    ______ ____
ROOT
ATOM      1  C   UNL     1       6.094   5.820  18.131  0.00  0.00    +0.000 A 
ATOM      2  C   UNL     1       7.353   5.871  18.726  0.00  0.00    +0.000 A 
ATOM      3  C   UNL     1       8.143   7.013  18.583  0.00  0.00    +0.000 A 
ATOM      4  C   UNL     1       7.689   8.115  17.853  0.00  0.00    +0.000 A 
ATOM      5  C   UNL     1       6.418   8.058  17.264  0.00  0.00    +0.000 A 
ATOM      6  C   UNL     1       5.635   6.901  17.371  0.00  0.00    +0.000 A 
ENDROOT
BRANCH   4   7
ATOM      7  N   UNL     1       8.453   9.287  17.669  0.00  0.00    +0.000 N 
ATOM      8  C   UNL     1       9.025  10.071  18.663  0.00  0.00    +0.000 C 
ATOM      9  O   UNL     1       8.971   9.832  19.864  0.00  0.00    +0.000 OA
ATOM     10  H   UNL     1       8.679   9.562  16.720  0.00  0.00    +0.000 HD
BRANCH   8  11
ATOM     11  C   UNL     1       9.749  11.220  18.159  0.00  0.00    +0.000 A 
ATOM     12  C   UNL     1       9.276  12.414  17.647  0.00  0.00    +0.000 A 
ATOM     13  C   UNL     1      10.405  13.191  17.303  0.00  0.00    +0.000 A 
ATOM     14  C   UNL     1      11.503  12.427  17.623  0.00  0.00    +0.000 A 
ATOM     15  O   UNL     1      11.120  11.230  18.146  0.00  0.00    +0.000 OA
ENDBRANCH   8  11
ENDBRANCH   4   7
BRANCH   1  16
ATOM     16  S   UNL     1       5.150   4.314  18.239  0.00  0.00    +0.000 S 
ATOM     17  O   UNL     1       5.639   3.584  19.391  0.00  0.00    +0.000 OA
ATOM     18  O   UNL     1       5.159   3.707  16.927  0.00  0.00    +0.000 OA
BRANCH  16  25
ATOM     19  C   UNL     1       2.002   5.637  20.395  0.00  0.00    +0.000 C 
ATOM     20  C   UNL     1       3.137   4.672  20.029  0.00  0.00    +0.000 C 
ATOM     21  C   UNL     1       2.754   3.210  20.280  0.00  0.00    +0.000 C 
ATOM     22  C   UNL     1       1.684   2.710  19.311  0.00  0.00    +0.000 C 
ATOM     23  C   UNL     1       2.021   3.022  17.855  0.00  0.00    +0.000 C 
ATOM     24  C   UNL     1       2.482   4.461  17.641  0.00  0.00    +0.000 C 
ATOM     25  N   UNL     1       3.553   4.857  18.597  0.00  0.00    +0.000 NA
ENDBRANCH  16  25
ENDBRANCH   1  16
TORSDOF 4
ENDMDL
MODEL 3
REMARK VINA RESULT:      -7.8      5.514      7.354
REMARK  Name = 
REMARK  5 active torsions:
REMARK  status: ('A' for Active; 'I' for Inactive)
REMARK    1  A    between atoms: C_1  and  C_2
REMARK    2  A    between atoms: N_7  and  S_8
REMARK    3  A    between atoms: S_8  and  C_11
REMARK    4  A    between atoms: C_14  and  N_15
REMARK    5  A    between atoms: C_16  and  C_18
REMARK                            x       y       z     vdW  Elec       q    Type
REMARK                         _______ _______ _______ _____ _____    ______ ____
ROOT
ATOM      1  C   UNL     1       2.553   7.119  19.089  0.00  0.00    +0.000 A 
ATOM      2  C   UNL     1       2.414   8.069  18.079  0.00  0.00    +0.000 A 
ATOM      3  C   UNL     1       1.679   9.232  18.316  0.00  0.00    +0.000 A 
ATOM      4  C   UNL     1       1.079   9.464  19.557  0.00  0.00    +0.000 A 
ATOM      5  C   UNL     1       1.230   8.506  20.570  0.00  0.00    +0.000 A 
ATOM      6  C   UNL     1       1.934   7.318  20.328  0.00  0.00    +0.000 A 
ENDROOT
BRANCH   4   7
ATOM      7  N   UNL     1       0.317  10.616  19.843  0.00  0.00    +0.000 N 
ATOM      8  C   UNL     1      -0.976  10.884  19.412  0.00  0.00    +0.000 C 
ATOM      9  O   UNL     1      -1.663  10.128  18.734  0.00  0.00    +0.000 OA
ATOM     10  H   UNL     1       0.708  11.296  20.485  0.00  0.00    +0.000 HD
BRANCH   8  11
ATOM     11  C   UNL     1      -1.492  12.160  19.868  0.00  0.00    +0.000 A 
ATOM     12  C   UNL     1      -0.850  13.374  20.023  0.00  0.00    +0.000 A 
ATOM     13  C   UNL     1      -1.815  14.293  20.494  0.00  0.00    +0.000 A 
ATOM     14  C   UNL     1      -2.991  13.588  20.600  0.00  0.00    +0.000 A 
ATOM     15  O   UNL     1      -2.811  12.293  20.220  0.00  0.00    +0.000 OA
ENDBRANCH   8  11
ENDBRANCH   4   7
BRANCH   1  16
ATOM     16  S   UNL     1       3.405   5.597  18.730  0.00  0.00    +0.000 S 
ATOM     17  O   UNL     1       4.542   5.522  19.625  0.00  0.00    +0.000 OA
ATOM     18  O   UNL     1       3.593   5.538  17.298  0.00  0.00    +0.000 OA
BRANCH  16  25
ATOM     19  C   UNL     1       1.574   2.832  21.034  0.00  0.00    +0.000 C 
ATOM     20  C   UNL     1       2.759   3.482  20.310  0.00  0.00    +0.000 C 
ATOM     21  C   UNL     1       3.739   2.442  19.759  0.00  0.00    +0.000 C 
ATOM     22  C   UNL     1       3.152   1.641  18.598  0.00  0.00    +0.000 C 
ATOM     23  C   UNL     1       2.527   2.533  17.528  0.00  0.00    +0.000 C 
ATOM     24  C   UNL     1       1.621   3.617  18.105  0.00  0.00    +0.000 C 
ATOM     25  N   UNL     1       2.282   4.378  19.201  0.00  0.00    +0.000 NA
ENDBRANCH  16  25
ENDBRANCH   1  16
TORSDOF 4
ENDMDL
MODEL 4
REMARK VINA RESULT:      -7.8      1.098      1.298
REMARK  Name = 
REMARK  5 active torsions:
REMARK  status: ('A' for Active; 'I' for Inactive)
REMARK    1  A    between atoms: C_1  and  C_2
REMARK    2  A    between atoms: N_7  and  S_8
REMARK    3  A    between atoms: S_8  and  C_11
REMARK    4  A    between atoms: C_14  and  N_15
REMARK    5  A    between atoms: C_16  and  C_18
REMARK                            x       y       z     vdW  Elec       q    Type
REMARK                         _______ _______ _______ _____ _____    ______ ____
ROOT
ATOM      1  C   UNL     1       6.108   5.470  18.158  0.00  0.00    +0.000 A 
ATOM      2  C   UNL     1       6.045   6.569  17.304  0.00  0.00    +0.000 A 
ATOM      3  C   UNL     1       6.970   7.607  17.439  0.00  0.00    +0.000 A 
ATOM      4  C   UNL     1       7.964   7.561  18.420  0.00  0.00    +0.000 A 
ATOM      5  C   UNL     1       8.024   6.449  19.270  0.00  0.00    +0.000 A 
ATOM      6  C   UNL     1       7.076   5.420  19.165  0.00  0.00    +0.000 A 
ENDROOT
BRANCH   4   7
ATOM      7  N   UNL     1       8.913   8.589  18.606  0.00  0.00    +0.000 N 
ATOM      8  C   UNL     1       8.756   9.931  18.286  0.00  0.00    +0.000 C 
ATOM      9  O   UNL     1       7.738  10.429  17.816  0.00  0.00    +0.000 OA
ATOM     10  H   UNL     1       9.775   8.357  19.085  0.00  0.00    +0.000 HD
BRANCH   8  11
ATOM     11  C   UNL     1       9.916  10.746  18.591  0.00  0.00    +0.000 A 
ATOM     12  C   UNL     1      10.453  11.104  19.814  0.00  0.00    +0.000 A 
ATOM     13  C   UNL     1      11.585  11.906  19.547  0.00  0.00    +0.000 A 
ATOM     14  C   UNL     1      11.675  11.993  18.177  0.00  0.00    +0.000 A 
ATOM     15  O   UNL     1      10.670  11.291  17.584  0.00  0.00    +0.000 OA
ENDBRANCH   8  11
ENDBRANCH   4   7
BRANCH   1  16
ATOM     16  S   UNL     1       4.856   4.210  18.034  0.00  0.00    +0.000 S 
ATOM     17  O   UNL     1       5.031   3.319  19.163  0.00  0.00    +0.000 OA
ATOM     18  O   UNL     1       4.894   3.698  16.683  0.00  0.00    +0.000 OA
BRANCH  16  25
ATOM     19  C   UNL     1       2.194   6.775  19.661  0.00  0.00    +0.000 C 
ATOM     20  C   UNL     1       3.179   5.598  19.660  0.00  0.00    +0.000 C 
ATOM     21  C   UNL     1       2.725   4.467  20.588  0.00  0.00    +0.000 C 
ATOM     22  C   UNL     1       1.482   3.747  20.068  0.00  0.00    +0.000 C 
ATOM     23  C   UNL     1       1.613   3.335  18.603  0.00  0.00    +0.000 C 
ATOM     24  C   UNL     1       2.148   4.452  17.712  0.00  0.00    +0.000 C 
ATOM     25  N   UNL     1       3.382   5.073  18.267  0.00  0.00    +0.000 NA
ENDBRANCH  16  25
ENDBRANCH   1  16
TORSDOF 4
ENDMDL
MODEL 5
REMARK VINA RESULT:      -7.8      5.379      7.137
REMARK  Name = 
REMARK  5 active torsions:
REMARK  status: ('A' for Active; 'I' for Inactive)
REMARK    1  A    between atoms: C_1  and  C_2
REMARK    2  A    between atoms: N_7  and  S_8
REMARK    3  A    between atoms: S_8  and  C_11
REMARK    4  A    between atoms: C_14  and  N_15
REMARK    5  A    between atoms: C_16  and  C_18
REMARK                            x       y       z     vdW  Elec       q    Type
REMARK                         _______ _______ _______ _____ _____    ______ ____
ROOT
ATOM      1  C   UNL     1       2.531   6.976  18.996  0.00  0.00    +0.000 A 
ATOM      2  C   UNL     1       1.978   7.184  20.258  0.00  0.00    +0.000 A 
ATOM      3  C   UNL     1       1.319   8.382  20.539  0.00  0.00    +0.000 A 
ATOM      4  C   UNL     1       1.201   9.383  19.570  0.00  0.00    +0.000 A 
ATOM      5  C   UNL     1       1.754   9.162  18.300  0.00  0.00    +0.000 A 
ATOM      6  C   UNL     1       2.450   7.977  18.023  0.00  0.00    +0.000 A 
ENDROOT
BRANCH   4   7
ATOM      7  N   UNL     1       0.556  10.615  19.807  0.00  0.00    +0.000 N 
ATOM      8  C   UNL     1      -0.735  10.963  19.431  0.00  0.00    +0.000 C 
ATOM      9  O   UNL     1      -1.524  10.221  18.857  0.00  0.00    +0.000 OA
ATOM     10  H   UNL     1       1.043  11.304  20.368  0.00  0.00    +0.000 HD
BRANCH   8  11
ATOM     11  C   UNL     1      -1.114  12.309  19.812  0.00  0.00    +0.000 A 
ATOM     12  C   UNL     1      -2.167  12.748  20.593  0.00  0.00    +0.000 A 
ATOM     13  C   UNL     1      -2.076  14.157  20.652  0.00  0.00    +0.000 A 
ATOM     14  C   UNL     1      -0.975  14.498  19.902  0.00  0.00    +0.000 A 
ATOM     15  O   UNL     1      -0.379  13.387  19.390  0.00  0.00    +0.000 OA
ENDBRANCH   8  11
ENDBRANCH   4   7
BRANCH   1  16
ATOM     16  S   UNL     1       3.456   5.485  18.695  0.00  0.00    +0.000 S 
ATOM     17  O   UNL     1       4.608   5.512  19.574  0.00  0.00    +0.000 OA
ATOM     18  O   UNL     1       3.628   5.367  17.265  0.00  0.00    +0.000 OA
BRANCH  16  25
ATOM     19  C   UNL     1       1.868   2.673  21.120  0.00  0.00    +0.000 C 
ATOM     20  C   UNL     1       2.982   3.357  20.318  0.00  0.00    +0.000 C 
ATOM     21  C   UNL     1       3.955   2.345  19.705  0.00  0.00    +0.000 C 
ATOM     22  C   UNL     1       3.317   1.522  18.587  0.00  0.00    +0.000 C 
ATOM     23  C   UNL     1       2.596   2.391  17.559  0.00  0.00    +0.000 C 
ATOM     24  C   UNL     1       1.697   3.449  18.193  0.00  0.00    +0.000 C 
ATOM     25  N   UNL     1       2.405   4.233  19.242  0.00  0.00    +0.000 NA
ENDBRANCH  16  25
ENDBRANCH   1  16
TORSDOF 4
ENDMDL
MODEL 6
REMARK VINA RESULT:      -7.8      5.647      7.883
REMARK  Name = 
REMARK  5 active torsions:
REMARK  status: ('A' for Active; 'I' for Inactive)
REMARK    1  A    between atoms: C_1  and  C_2
REMARK    2  A    between atoms: N_7  and  S_8
REMARK    3  A    between atoms: S_8  and  C_11
REMARK    4  A    between atoms: C_14  and  N_15
REMARK    5  A    between atoms: C_16  and  C_18
REMARK                            x       y       z     vdW  Elec       q    Type
REMARK                         _______ _______ _______ _____ _____    ______ ____
ROOT
ATOM      1  C   UNL     1       2.126   7.280  19.662  0.00  0.00    +0.000 A 
ATOM      2  C   UNL     1       1.930   8.454  18.937  0.00  0.00    +0.000 A 
ATOM      3  C   UNL     1       1.144   9.476  19.472  0.00  0.00    +0.000 A 
ATOM      4  C   UNL     1       0.549   9.344  20.730  0.00  0.00    +0.000 A 
ATOM      5  C   UNL     1       0.758   8.162  21.455  0.00  0.00    +0.000 A 
ATOM      6  C   UNL     1       1.515   7.116  20.909  0.00  0.00    +0.000 A 
ENDROOT
BRANCH   4   7
ATOM      7  N   UNL     1      -0.264  10.341  21.309  0.00  0.00    +0.000 N 
ATOM      8  C   UNL     1      -0.447  10.580  22.665  0.00  0.00    +0.000 C 
ATOM      9  O   UNL     1       0.109   9.965  23.568  0.00  0.00    +0.000 OA
ATOM     10  H   UNL     1      -0.713  11.006  20.689  0.00  0.00    +0.000 HD
BRANCH   8  11
ATOM     11  C   UNL     1      -1.351  11.676  22.950  0.00  0.00    +0.000 A 
ATOM     12  C   UNL     1      -1.156  13.040  22.840  0.00  0.00    +0.000 A 
ATOM     13  C   UNL     1      -2.360  13.662  23.242  0.00  0.00    +0.000 A 
ATOM     14  C   UNL     1      -3.221  12.642  23.576  0.00  0.00    +0.000 A 
ATOM     15  O   UNL     1      -2.623  11.432  23.400  0.00  0.00    +0.000 OA
ENDBRANCH   8  11
ENDBRANCH   4   7
BRANCH   1  16
ATOM     16  S   UNL     1       3.045   5.950  18.915  0.00  0.00    +0.000 S 
ATOM     17  O   UNL     1       4.235   5.749  19.717  0.00  0.00    +0.000 OA
ATOM     18  O   UNL     1       3.153   6.242  17.504  0.00  0.00    +0.000 OA
BRANCH  16  25
ATOM     19  C   UNL     1       1.300   2.782  20.712  0.00  0.00    +0.000 C 
ATOM     20  C   UNL     1       2.476   3.626  20.204  0.00  0.00    +0.000 C 
ATOM     21  C   UNL     1       3.627   2.757  19.688  0.00  0.00    +0.000 C 
ATOM     22  C   UNL     1       3.274   2.024  18.395  0.00  0.00    +0.000 C 
ATOM     23  C   UNL     1       2.676   2.952  17.340  0.00  0.00    +0.000 C 
ATOM     24  C   UNL     1       1.589   3.868  17.895  0.00  0.00    +0.000 C 
ATOM     25  N   UNL     1       2.026   4.576  19.130  0.00  0.00    +0.000 NA
ENDBRANCH  16  25
ENDBRANCH   1  16
TORSDOF 4
ENDMDL
MODEL 7
REMARK VINA RESULT:      -7.7      5.468      7.099
REMARK  Name = 
REMARK  5 active torsions:
REMARK  status: ('A' for Active; 'I' for Inactive)
REMARK    1  A    between atoms: C_1  and  C_2
REMARK    2  A    between atoms: N_7  and  S_8
REMARK    3  A    between atoms: S_8  and  C_11
REMARK    4  A    between atoms: C_14  and  N_15
REMARK    5  A    between atoms: C_16  and  C_18
REMARK                            x       y       z     vdW  Elec       q    Type
REMARK                         _______ _______ _______ _____ _____    ______ ____
ROOT
ATOM      1  C   UNL     1       2.433   7.147  19.240  0.00  0.00    +0.000 A 
ATOM      2  C   UNL     1       2.242   8.125  18.266  0.00  0.00    +0.000 A 
ATOM      3  C   UNL     1       1.476   9.256  18.558  0.00  0.00    +0.000 A 
ATOM      4  C   UNL     1       0.897   9.426  19.819  0.00  0.00    +0.000 A 
ATOM      5  C   UNL     1       1.101   8.440  20.795  0.00  0.00    +0.000 A 
ATOM      6  C   UNL     1       1.837   7.285  20.497  0.00  0.00    +0.000 A 
ENDROOT
BRANCH   4   7
ATOM      7  N   UNL     1       0.105  10.543  20.161  0.00  0.00    +0.000 N 
ATOM      8  C   UNL     1       0.525  11.685  20.830  0.00  0.00    +0.000 C 
ATOM      9  O   UNL     1       1.675  11.902  21.198  0.00  0.00    +0.000 OA
ATOM     10  H   UNL     1      -0.852  10.563  19.831  0.00  0.00    +0.000 HD
BRANCH   8  11
ATOM     11  C   UNL     1      -0.526  12.660  21.042  0.00  0.00    +0.000 A 
ATOM     12  C   UNL     1      -1.485  13.137  20.167  0.00  0.00    +0.000 A 
ATOM     13  C   UNL     1      -2.265  14.073  20.882  0.00  0.00    +0.000 A 
ATOM     14  C   UNL     1      -1.739  14.115  22.152  0.00  0.00    +0.000 A 
ATOM     15  O   UNL     1      -0.685  13.260  22.264  0.00  0.00    +0.000 OA
ENDBRANCH   8  11
ENDBRANCH   4   7
BRANCH   1  16
ATOM     16  S   UNL     1       3.325   5.667  18.810  0.00  0.00    +0.000 S 
ATOM     17  O   UNL     1       4.497   5.611  19.660  0.00  0.00    +0.000 OA
ATOM     18  O   UNL     1       3.460   5.649  17.371  0.00  0.00    +0.000 OA
BRANCH  16  25
ATOM     19  C   UNL     1       1.685   2.779  21.107  0.00  0.00    +0.000 C 
ATOM     20  C   UNL     1       2.817   3.490  20.355  0.00  0.00    +0.000 C 
ATOM     21  C   UNL     1       3.810   2.500  19.738  0.00  0.00    +0.000 C 
ATOM     22  C   UNL     1       3.205   1.708  18.580  0.00  0.00    +0.000 C 
ATOM     23  C   UNL     1       2.507   2.605  17.560  0.00  0.00    +0.000 C 
ATOM     24  C   UNL     1       1.588   3.640  18.201  0.00  0.00    +0.000 C 
ATOM     25  N   UNL     1       2.265   4.396  19.291  0.00  0.00    +0.000 NA
ENDBRANCH  16  25
ENDBRANCH   1  16
TORSDOF 4
ENDMDL
MODEL 8
REMARK VINA RESULT:      -7.6      5.605      7.606
REMARK  Name = 
REMARK  5 active torsions:
REMARK  status: ('A' for Active; 'I' for Inactive)
REMARK    1  A    between atoms: C_1  and  C_2
REMARK    2  A    between atoms: N_7  and  S_8
REMARK    3  A    between atoms: S_8  and  C_11
REMARK    4  A    between atoms: C_14  and  N_15
REMARK    5  A    between atoms: C_16  and  C_18
REMARK                            x       y       z     vdW  Elec       q    Type
REMARK                         _______ _______ _______ _____ _____    ______ ____
ROOT
ATOM      1  C   UNL     1       2.175   7.176  19.524  0.00  0.00    +0.000 A 
ATOM      2  C   UNL     1       1.710   7.110  20.836  0.00  0.00    +0.000 A 
ATOM      3  C   UNL     1       1.006   8.188  21.378  0.00  0.00    +0.000 A 
ATOM      4  C   UNL     1       0.755   9.336  20.622  0.00  0.00    +0.000 A 
ATOM      5  C   UNL     1       1.221   9.390  19.300  0.00  0.00    +0.000 A 
ATOM      6  C   UNL     1       1.961   8.328  18.762  0.00  0.00    +0.000 A 
ENDROOT
BRANCH   4   7
ATOM      7  N   UNL     1       0.060  10.456  21.126  0.00  0.00    +0.000 N 
ATOM      8  C   UNL     1      -0.235  10.720  22.457  0.00  0.00    +0.000 C 
ATOM      9  O   UNL     1       0.101  10.018  23.404  0.00  0.00    +0.000 OA
ATOM     10  H   UNL     1      -0.196  11.188  20.474  0.00  0.00    +0.000 HD
BRANCH   8  11
ATOM     11  C   UNL     1      -0.970  11.953  22.661  0.00  0.00    +0.000 A 
ATOM     12  C   UNL     1      -2.296  12.249  22.408  0.00  0.00    +0.000 A 
ATOM     13  C   UNL     1      -2.498  13.594  22.790  0.00  0.00    +0.000 A 
ATOM     14  C   UNL     1      -1.283  14.043  23.254  0.00  0.00    +0.000 A 
ATOM     15  O   UNL     1      -0.347  13.057  23.185  0.00  0.00    +0.000 OA
ENDBRANCH   8  11
ENDBRANCH   4   7
BRANCH   1  16
ATOM     16  S   UNL     1       3.160   5.834  18.891  0.00  0.00    +0.000 S 
ATOM     17  O   UNL     1       4.341   5.739  19.726  0.00  0.00    +0.000 OA
ATOM     18  O   UNL     1       3.285   6.029  17.465  0.00  0.00    +0.000 OA
BRANCH  16  25
ATOM     19  C   UNL     1       1.645   2.623  20.816  0.00  0.00    +0.000 C 
ATOM     20  C   UNL     1       2.754   3.492  20.209  0.00  0.00    +0.000 C 
ATOM     21  C   UNL     1       3.870   2.649  19.585  0.00  0.00    +0.000 C 
ATOM     22  C   UNL     1       3.416   1.916  18.324  0.00  0.00    +0.000 C 
ATOM     23  C   UNL     1       2.707   2.838  17.335  0.00  0.00    +0.000 C 
ATOM     24  C   UNL     1       1.658   3.730  17.992  0.00  0.00    +0.000 C 
ATOM     25  N   UNL     1       2.191   4.440  19.188  0.00  0.00    +0.000 NA
ENDBRANCH  16  25
ENDBRANCH   1  16
TORSDOF 4
ENDMDL
MODEL 9
REMARK VINA RESULT:      -7.6      5.492      7.391
REMARK  Name = 
REMARK  5 active torsions:
REMARK  status: ('A' for Active; 'I' for Inactive)
REMARK    1  A    between atoms: C_1  and  C_2
REMARK    2  A    between atoms: N_7  and  S_8
REMARK    3  A    between atoms: S_8  and  C_11
REMARK    4  A    between atoms: C_14  and  N_15
REMARK    5  A    between atoms: C_16  and  C_18
REMARK                            x       y       z     vdW  Elec       q    Type
REMARK                         _______ _______ _______ _____ _____    ______ ____
ROOT
ATOM      1  C   UNL     1       2.417   7.036  19.405  0.00  0.00    +0.000 A 
ATOM      2  C   UNL     1       2.250   8.099  18.519  0.00  0.00    +0.000 A 
ATOM      3  C   UNL     1       1.479   9.201  18.895  0.00  0.00    +0.000 A 
ATOM      4  C   UNL     1       0.870   9.259  20.151  0.00  0.00    +0.000 A 
ATOM      5  C   UNL     1       1.049   8.188  21.039  0.00  0.00    +0.000 A 
ATOM      6  C   UNL     1       1.791   7.062  20.655  0.00  0.00    +0.000 A 
ENDROOT
BRANCH   4   7
ATOM      7  N   UNL     1       0.072  10.343  20.573  0.00  0.00    +0.000 N 
ATOM      8  C   UNL     1      -0.094  10.794  21.876  0.00  0.00    +0.000 C 
ATOM      9  O   UNL     1       0.468  10.324  22.860  0.00  0.00    +0.000 OA
ATOM     10  H   UNL     1      -0.379  10.905  19.861  0.00  0.00    +0.000 HD
BRANCH   8  11
ATOM     11  C   UNL     1      -0.987  11.930  21.994  0.00  0.00    +0.000 A 
ATOM     12  C   UNL     1      -1.667  12.415  23.095  0.00  0.00    +0.000 A 
ATOM     13  C   UNL     1      -2.396  13.545  22.664  0.00  0.00    +0.000 A 
ATOM     14  C   UNL     1      -2.121  13.686  21.324  0.00  0.00    +0.000 A 
ATOM     15  O   UNL     1      -1.264  12.714  20.904  0.00  0.00    +0.000 OA
ENDBRANCH   8  11
ENDBRANCH   4   7
BRANCH   1  16
ATOM     16  S   UNL     1       3.316   5.597  18.865  0.00  0.00    +0.000 S 
ATOM     17  O   UNL     1       4.523   5.522  19.664  0.00  0.00    +0.000 OA
ATOM     18  O   UNL     1       3.395   5.656  17.423  0.00  0.00    +0.000 OA
BRANCH  16  25
ATOM     19  C   UNL     1       1.781   2.605  21.100  0.00  0.00    +0.000 C 
ATOM     20  C   UNL     1       2.886   3.369  20.360  0.00  0.00    +0.000 C 
ATOM     21  C   UNL     1       3.905   2.425  19.714  0.00  0.00    +0.000 C 
ATOM     22  C   UNL     1       3.318   1.644  18.540  0.00  0.00    +0.000 C 
ATOM     23  C   UNL     1       2.586   2.543  17.545  0.00  0.00    +0.000 C 
ATOM     24  C   UNL     1       1.639   3.533  18.217  0.00  0.00    +0.000 C 
ATOM     25  N   UNL     1       2.299   4.283  19.321  0.00  0.00    +0.000 NA
ENDBRANCH  16  25
ENDBRANCH   1  16
TORSDOF 4
ENDMDL
