MODEL 1
REMARK VINA RESULT:      -9.1      0.000      0.000
REMARK  Name = 
REMARK  5 active torsions:
REMARK  status: ('A' for Active; 'I' for Inactive)
REMARK    1  A    between atoms: C_1  and  C_2
REMARK    2  A    between atoms: C_4  and  C_5
REMARK    3  A    between atoms: C_10  and  O_11
REMARK    4  A    between atoms: O_11  and  C_12
REMARK    5  A    between atoms: C_20  and  C_21
REMARK                            x       y       z     vdW  Elec       q    Type
REMARK                         _______ _______ _______ _____ _____    ______ ____
ROOT
ATOM      1  C   UNL     1       2.995   3.888  18.502  0.00  0.00    +0.000 A 
ATOM      2  C   UNL     1       2.433   2.647  18.133  0.00  0.00    +0.000 A 
ATOM      3  C   UNL     1       1.264   2.158  18.716  0.00  0.00    +0.000 A 
ATOM      4  C   UNL     1       0.589   2.928  19.649  0.00  0.00    +0.000 A 
ATOM      5  C   UNL     1       1.105   4.169  20.015  0.00  0.00    +0.000 A 
ATOM      6  C   UNL     1       2.349   4.623  19.514  0.00  0.00    +0.000 A 
ENDROOT
BRANCH   1  10
ATOM      7  C   UNL     1       7.883   4.726  17.922  0.00  0.00    +0.000 C 
ATOM      8  C   UNL     1       6.458   4.603  17.511  0.00  0.00    +0.000 A 
ATOM      9  N   UNL     1       5.443   4.518  18.440  0.00  0.00    +0.000 N 
ATOM     10  C   UNL     1       4.242   4.274  17.815  0.00  0.00    +0.000 A 
ATOM     11  C   UNL     1       4.499   4.375  16.453  0.00  0.00    +0.000 A 
ATOM     12  C   UNL     1       5.901   4.510  16.240  0.00  0.00    +0.000 A 
ATOM     13  H   UNL     1       5.568   4.543  19.443  0.00  0.00    +0.000 HD
BRANCH  12  14
ATOM     14  C   UNL     1       6.651   4.513  14.983  0.00  0.00    +0.000 C 
ATOM     15  N   UNL     1       6.303   3.552  14.076  0.00  0.00    +0.000 N 
ATOM     16  O   UNL     1       7.570   5.284  14.728  0.00  0.00    +0.000 OA
ATOM     17  H   UNL     1       5.654   2.812  14.283  0.00  0.00    +0.000 HD
ATOM     18  H   UNL     1       6.882   3.476  13.250  0.00  0.00    +0.000 HD
ENDBRANCH  12  14
ENDBRANCH   1  10
BRANCH   6  19
ATOM     19  O   UNL     1       2.914   5.791  20.006  0.00  0.00    +0.000 OA
BRANCH  19  20
ATOM     20  C   UNL     1       2.331   6.994  19.632  0.00  0.00    +0.000 A 
ATOM     21  C   UNL     1       2.425   7.508  18.329  0.00  0.00    +0.000 A 
ATOM     22  C   UNL     1       1.911   8.771  18.032  0.00  0.00    +0.000 A 
ATOM     23  C   UNL     1       1.246   9.496  19.017  0.00  0.00    +0.000 A 
ATOM     24 CL   UNL     1       0.614  11.054  18.645  0.00  0.00    +0.000 Cl
ATOM     25  C   UNL     1       1.092   8.967  20.299  0.00  0.00    +0.000 A 
ATOM     26  C   UNL     1       1.639   7.715  20.611  0.00  0.00    +0.000 A 
ENDBRANCH  19  20
ENDBRANCH   6  19
TORSDOF 4
ENDMDL
MODEL 2
REMARK VINA RESULT:      -9.0      0.704      1.230
REMARK  Name = 
REMARK  5 active torsions:
REMARK  status: ('A' for Active; 'I' for Inactive)
REMARK    1  A    between atoms: C_1  and  C_2
REMARK    2  A    between atoms: C_4  and  C_5
REMARK    3  A    between atoms: C_10  and  O_11
REMARK    4  A    between atoms: O_11  and  C_12
REMARK    5  A    between atoms: C_20  and  C_21
REMARK                            x       y       z     vdW  Elec       q    Type
REMARK                         _______ _______ _______ _____ _____    ______ ____
ROOT
ATOM      1  C   UNL     1       2.994   4.348  18.308  0.00  0.00    +0.000 A 
ATOM      2  C   UNL     1       2.462   3.085  17.972  0.00  0.00    +0.000 A 
ATOM      3  C   UNL     1       1.404   2.513  18.679  0.00  0.00    +0.000 A 
ATOM      4  C   UNL     1       0.807   3.219  19.711  0.00  0.00    +0.000 A 
ATOM      5  C   UNL     1       1.293   4.480  20.049  0.00  0.00    +0.000 A 
ATOM      6  C   UNL     1       2.438   5.019  19.414  0.00  0.00    +0.000 A 
ENDROOT
BRANCH   1  10
ATOM      7  C   UNL     1       7.361   6.538  17.279  0.00  0.00    +0.000 C 
ATOM      8  C   UNL     1       6.124   5.758  17.005  0.00  0.00    +0.000 A 
ATOM      9  N   UNL     1       5.082   5.717  17.905  0.00  0.00    +0.000 N 
ATOM     10  C   UNL     1       4.122   4.825  17.486  0.00  0.00    +0.000 A 
ATOM     11  C   UNL     1       4.507   4.429  16.211  0.00  0.00    +0.000 A 
ATOM     12  C   UNL     1       5.802   4.949  15.921  0.00  0.00    +0.000 A 
ATOM     13  H   UNL     1       5.058   6.203  18.792  0.00  0.00    +0.000 HD
BRANCH  12  14
ATOM     14  C   UNL     1       6.667   4.689  14.768  0.00  0.00    +0.000 C 
ATOM     15  N   UNL     1       6.385   3.563  14.049  0.00  0.00    +0.000 N 
ATOM     16  O   UNL     1       7.624   5.388  14.451  0.00  0.00    +0.000 OA
ATOM     17  H   UNL     1       5.702   2.883  14.340  0.00  0.00    +0.000 HD
ATOM     18  H   UNL     1       7.037   3.315  13.317  0.00  0.00    +0.000 HD
ENDBRANCH  12  14
ENDBRANCH   1  10
BRANCH   6  19
ATOM     19  O   UNL     1       2.992   6.207  19.869  0.00  0.00    +0.000 OA
BRANCH  19  20
ATOM     20  C   UNL     1       2.284   7.379  19.635  0.00  0.00    +0.000 A 
ATOM     21  C   UNL     1       1.559   8.038  20.640  0.00  0.00    +0.000 A 
ATOM     22  C   UNL     1       0.780   9.154  20.329  0.00  0.00    +0.000 A 
ATOM     23  C   UNL     1       0.774   9.652  19.028  0.00  0.00    +0.000 A 
ATOM     24 CL   UNL     1      -0.188  11.028  18.650  0.00  0.00    +0.000 Cl
ATOM     25  C   UNL     1       1.541   9.041  18.036  0.00  0.00    +0.000 A 
ATOM     26  C   UNL     1       2.296   7.899  18.337  0.00  0.00    +0.000 A 
ENDBRANCH  19  20
ENDBRANCH   6  19
TORSDOF 4
ENDMDL
MODEL 3
REMARK VINA RESULT:      -8.5      1.238      1.899
REMARK  Name = 
REMARK  5 active torsions:
REMARK  status: ('A' for Active; 'I' for Inactive)
REMARK    1  A    between atoms: C_1  and  C_2
REMARK    2  A    between atoms: C_4  and  C_5
REMARK    3  A    between atoms: C_10  and  O_11
REMARK    4  A    between atoms: O_11  and  C_12
REMARK    5  A    between atoms: C_20  and  C_21
REMARK                            x       y       z     vdW  Elec       q    Type
REMARK                         _______ _______ _______ _____ _____    ______ ____
ROOT
ATOM      1  C   UNL     1       3.273   3.921  18.735  0.00  0.00    +0.000 A 
ATOM      2  C   UNL     1       2.826   2.660  18.286  0.00  0.00    +0.000 A 
ATOM      3  C   UNL     1       1.603   2.121  18.685  0.00  0.00    +0.000 A 
ATOM      4  C   UNL     1       0.763   2.857  19.502  0.00  0.00    +0.000 A 
ATOM      5  C   UNL     1       1.164   4.117  19.941  0.00  0.00    +0.000 A 
ATOM      6  C   UNL     1       2.450   4.623  19.636  0.00  0.00    +0.000 A 
ENDROOT
BRANCH   1  10
ATOM      7  C   UNL     1       7.042   4.535  15.518  0.00  0.00    +0.000 C 
ATOM      8  C   UNL     1       6.288   4.703  16.789  0.00  0.00    +0.000 A 
ATOM      9  N   UNL     1       5.193   3.922  17.090  0.00  0.00    +0.000 N 
ATOM     10  C   UNL     1       4.594   4.362  18.247  0.00  0.00    +0.000 A 
ATOM     11  C   UNL     1       5.438   5.338  18.761  0.00  0.00    +0.000 A 
ATOM     12  C   UNL     1       6.472   5.618  17.821  0.00  0.00    +0.000 A 
ATOM     13  H   UNL     1       4.825   3.185  16.503  0.00  0.00    +0.000 HD
BRANCH  12  14
ATOM     14  C   UNL     1       7.503   6.657  17.861  0.00  0.00    +0.000 C 
ATOM     15  N   UNL     1       8.271   6.695  18.990  0.00  0.00    +0.000 N 
ATOM     16  O   UNL     1       7.679   7.490  16.979  0.00  0.00    +0.000 OA
ATOM     17  H   UNL     1       8.085   6.127  19.799  0.00  0.00    +0.000 HD
ATOM     18  H   UNL     1       8.914   7.471  19.077  0.00  0.00    +0.000 HD
ENDBRANCH  12  14
ENDBRANCH   1  10
BRANCH   6  19
ATOM     19  O   UNL     1       2.884   5.812  20.207  0.00  0.00    +0.000 OA
BRANCH  19  20
ATOM     20  C   UNL     1       2.290   6.989  19.772  0.00  0.00    +0.000 A 
ATOM     21  C   UNL     1       2.401   7.448  18.451  0.00  0.00    +0.000 A 
ATOM     22  C   UNL     1       1.873   8.690  18.091  0.00  0.00    +0.000 A 
ATOM     23  C   UNL     1       1.179   9.445  19.033  0.00  0.00    +0.000 A 
ATOM     24 CL   UNL     1       0.531  10.975  18.584  0.00  0.00    +0.000 Cl
ATOM     25  C   UNL     1       1.010   8.968  20.333  0.00  0.00    +0.000 A 
ATOM     26  C   UNL     1       1.570   7.739  20.707  0.00  0.00    +0.000 A 
ENDBRANCH  19  20
ENDBRANCH   6  19
TORSDOF 4
ENDMDL
MODEL 4
REMARK VINA RESULT:      -8.4      1.191      1.939
REMARK  Name = 
REMARK  5 active torsions:
REMARK  status: ('A' for Active; 'I' for Inactive)
REMARK    1  A    between atoms: C_1  and  C_2
REMARK    2  A    between atoms: C_4  and  C_5
REMARK    3  A    between atoms: C_10  and  O_11
REMARK    4  A    between atoms: O_11  and  C_12
REMARK    5  A    between atoms: C_20  and  C_21
REMARK                            x       y       z     vdW  Elec       q    Type
REMARK                         _______ _______ _______ _____ _____    ______ ____
ROOT
ATOM      1  C   UNL     1       2.711   3.648  18.636  0.00  0.00    +0.000 A 
ATOM      2  C   UNL     1       1.981   2.458  18.429  0.00  0.00    +0.000 A 
ATOM      3  C   UNL     1       0.821   2.165  19.145  0.00  0.00    +0.000 A 
ATOM      4  C   UNL     1       0.324   3.085  20.052  0.00  0.00    +0.000 A 
ATOM      5  C   UNL     1       1.008   4.281  20.261  0.00  0.00    +0.000 A 
ATOM      6  C   UNL     1       2.246   4.537  19.623  0.00  0.00    +0.000 A 
ENDROOT
BRANCH   1  10
ATOM      7  C   UNL     1       5.456   4.539  14.561  0.00  0.00    +0.000 C 
ATOM      8  C   UNL     1       5.191   4.281  16.002  0.00  0.00    +0.000 A 
ATOM      9  N   UNL     1       3.958   3.854  16.445  0.00  0.00    +0.000 N 
ATOM     10  C   UNL     1       3.928   3.822  17.820  0.00  0.00    +0.000 A 
ATOM     11  C   UNL     1       5.231   4.079  18.231  0.00  0.00    +0.000 A 
ATOM     12  C   UNL     1       6.023   4.442  17.104  0.00  0.00    +0.000 A 
ATOM     13  H   UNL     1       3.157   3.672  15.854  0.00  0.00    +0.000 HD
BRANCH  12  14
ATOM     14  C   UNL     1       7.405   4.926  17.062  0.00  0.00    +0.000 C 
ATOM     15  N   UNL     1       7.577   6.208  16.625  0.00  0.00    +0.000 N 
ATOM     16  O   UNL     1       8.384   4.246  17.352  0.00  0.00    +0.000 OA
ATOM     17  H   UNL     1       6.829   6.764  16.246  0.00  0.00    +0.000 HD
ATOM     18  H   UNL     1       8.530   6.518  16.489  0.00  0.00    +0.000 HD
ENDBRANCH  12  14
ENDBRANCH   1  10
BRANCH   6  19
ATOM     19  O   UNL     1       2.981   5.665  19.959  0.00  0.00    +0.000 OA
BRANCH  19  20
ATOM     20  C   UNL     1       2.434   6.904  19.654  0.00  0.00    +0.000 A 
ATOM     21  C   UNL     1       1.776   7.695  20.608  0.00  0.00    +0.000 A 
ATOM     22  C   UNL     1       1.153   8.886  20.226  0.00  0.00    +0.000 A 
ATOM     23  C   UNL     1       1.241   9.319  18.906  0.00  0.00    +0.000 A 
ATOM     24 CL   UNL     1       0.471  10.787  18.441  0.00  0.00    +0.000 Cl
ATOM     25  C   UNL     1       1.947   8.571  17.964  0.00  0.00    +0.000 A 
ATOM     26  C   UNL     1       2.543   7.358  18.336  0.00  0.00    +0.000 A 
ENDBRANCH  19  20
ENDBRANCH   6  19
TORSDOF 4
ENDMDL
MODEL 5
REMARK VINA RESULT:      -8.3      1.211      2.139
REMARK  Name = 
REMARK  5 active torsions:
REMARK  status: ('A' for Active; 'I' for Inactive)
REMARK    1  A    between atoms: C_1  and  C_2
REMARK    2  A    between atoms: C_4  and  C_5
REMARK    3  A    between atoms: C_10  and  O_11
REMARK    4  A    between atoms: O_11  and  C_12
REMARK    5  A    between atoms: C_20  and  C_21
REMARK                            x       y       z     vdW  Elec       q    Type
REMARK                         _______ _______ _______ _____ _____    ______ ____
ROOT
ATOM      1  C   UNL     1       3.201   3.933  18.747  0.00  0.00    +0.000 A 
ATOM      2  C   UNL     1       2.706   2.698  18.276  0.00  0.00    +0.000 A 
ATOM      3  C   UNL     1       1.470   2.191  18.680  0.00  0.00    +0.000 A 
ATOM      4  C   UNL     1       0.666   2.937  19.525  0.00  0.00    +0.000 A 
ATOM      5  C   UNL     1       1.116   4.172  19.987  0.00  0.00    +0.000 A 
ATOM      6  C   UNL     1       2.414   4.642  19.675  0.00  0.00    +0.000 A 
ENDROOT
BRANCH   1  10
ATOM      7  C   UNL     1       6.951   4.482  15.496  0.00  0.00    +0.000 C 
ATOM      8  C   UNL     1       6.216   4.653  16.778  0.00  0.00    +0.000 A 
ATOM      9  N   UNL     1       5.102   3.901  17.079  0.00  0.00    +0.000 N 
ATOM     10  C   UNL     1       4.529   4.341  18.250  0.00  0.00    +0.000 A 
ATOM     11  C   UNL     1       5.409   5.282  18.770  0.00  0.00    +0.000 A 
ATOM     12  C   UNL     1       6.440   5.545  17.822  0.00  0.00    +0.000 A 
ATOM     13  H   UNL     1       4.705   3.185  16.486  0.00  0.00    +0.000 HD
BRANCH  12  14
ATOM     14  C   UNL     1       7.504   6.551  17.866  0.00  0.00    +0.000 C 
ATOM     15  N   UNL     1       8.227   6.607  19.023  0.00  0.00    +0.000 N 
ATOM     16  O   UNL     1       7.743   7.344  16.961  0.00  0.00    +0.000 OA
ATOM     17  H   UNL     1       7.989   6.077  19.845  0.00  0.00    +0.000 HD
ATOM     18  H   UNL     1       8.891   7.365  19.108  0.00  0.00    +0.000 HD
ENDBRANCH  12  14
ENDBRANCH   1  10
BRANCH   6  19
ATOM     19  O   UNL     1       2.895   5.802  20.266  0.00  0.00    +0.000 OA
BRANCH  19  20
ATOM     20  C   UNL     1       2.302   7.003  19.904  0.00  0.00    +0.000 A 
ATOM     21  C   UNL     1       1.551   7.777  20.803  0.00  0.00    +0.000 A 
ATOM     22  C   UNL     1       0.888   8.924  20.361  0.00  0.00    +0.000 A 
ATOM     23  C   UNL     1       1.026   9.335  19.038  0.00  0.00    +0.000 A 
ATOM     24 CL   UNL     1       0.207  10.750  18.499  0.00  0.00    +0.000 Cl
ATOM     25  C   UNL     1       1.821   8.607  18.152  0.00  0.00    +0.000 A 
ATOM     26  C   UNL     1       2.458   7.436  18.583  0.00  0.00    +0.000 A 
ENDBRANCH  19  20
ENDBRANCH   6  19
TORSDOF 4
ENDMDL
MODEL 6
REMARK VINA RESULT:      -8.3      1.099      1.628
REMARK  Name = 
REMARK  5 active torsions:
REMARK  status: ('A' for Active; 'I' for Inactive)
REMARK    1  A    between atoms: C_1  and  C_2
REMARK    2  A    between atoms: C_4  and  C_5
REMARK    3  A    between atoms: C_10  and  O_11
REMARK    4  A    between atoms: O_11  and  C_12
REMARK    5  A    between atoms: C_20  and  C_21
REMARK                            x       y       z     vdW  Elec       q    Type
REMARK                         _______ _______ _______ _____ _____    ______ ____
ROOT
ATOM      1  C   UNL     1       2.714   3.644  18.660  0.00  0.00    +0.000 A 
ATOM      2  C   UNL     1       2.018   2.431  18.471  0.00  0.00    +0.000 A 
ATOM      3  C   UNL     1       0.862   2.119  19.187  0.00  0.00    +0.000 A 
ATOM      4  C   UNL     1       0.335   3.042  20.075  0.00  0.00    +0.000 A 
ATOM      5  C   UNL     1       0.985   4.260  20.264  0.00  0.00    +0.000 A 
ATOM      6  C   UNL     1       2.219   4.538  19.629  0.00  0.00    +0.000 A 
ENDROOT
BRANCH   1  10
ATOM      7  C   UNL     1       5.457   4.501  14.577  0.00  0.00    +0.000 C 
ATOM      8  C   UNL     1       5.190   4.282  16.024  0.00  0.00    +0.000 A 
ATOM      9  N   UNL     1       3.970   3.823  16.473  0.00  0.00    +0.000 N 
ATOM     10  C   UNL     1       3.930   3.837  17.848  0.00  0.00    +0.000 A 
ATOM     11  C   UNL     1       5.219   4.156  18.259  0.00  0.00    +0.000 A 
ATOM     12  C   UNL     1       6.007   4.511  17.126  0.00  0.00    +0.000 A 
ATOM     13  H   UNL     1       3.182   3.592  15.883  0.00  0.00    +0.000 HD
BRANCH  12  14
ATOM     14  C   UNL     1       7.370   5.044  17.077  0.00  0.00    +0.000 C 
ATOM     15  N   UNL     1       8.326   4.305  17.713  0.00  0.00    +0.000 N 
ATOM     16  O   UNL     1       7.677   6.106  16.546  0.00  0.00    +0.000 OA
ATOM     17  H   UNL     1       8.111   3.501  18.279  0.00  0.00    +0.000 HD
ATOM     18  H   UNL     1       9.248   4.714  17.778  0.00  0.00    +0.000 HD
ENDBRANCH  12  14
ENDBRANCH   1  10
BRANCH   6  19
ATOM     19  O   UNL     1       2.922   5.692  19.948  0.00  0.00    +0.000 OA
BRANCH  19  20
ATOM     20  C   UNL     1       2.368   6.907  19.570  0.00  0.00    +0.000 A 
ATOM     21  C   UNL     1       2.459   7.405  18.260  0.00  0.00    +0.000 A 
ATOM     22  C   UNL     1       1.977   8.680  17.957  0.00  0.00    +0.000 A 
ATOM     23  C   UNL     1       1.345   9.433  18.944  0.00  0.00    +0.000 A 
ATOM     24 CL   UNL     1       0.752  11.004  18.565  0.00  0.00    +0.000 Cl
ATOM     25  C   UNL     1       1.194   8.920  20.233  0.00  0.00    +0.000 A 
ATOM     26  C   UNL     1       1.710   7.656  20.550  0.00  0.00    +0.000 A 
ENDBRANCH  19  20
ENDBRANCH   6  19
TORSDOF 4
ENDMDL
MODEL 7
REMARK VINA RESULT:      -8.3      3.314      6.433
REMARK  Name = 
REMARK  5 active torsions:
REMARK  status: ('A' for Active; 'I' for Inactive)
REMARK    1  A    between atoms: C_1  and  C_2
REMARK    2  A    between atoms: C_4  and  C_5
REMARK    3  A    between atoms: C_10  and  O_11
REMARK    4  A    between atoms: O_11  and  C_12
REMARK    5  A    between atoms: C_20  and  C_21
REMARK                            x       y       z     vdW  Elec       q    Type
REMARK                         _______ _______ _______ _____ _____    ______ ____
ROOT
ATOM      1  C   UNL     1       2.253   5.287  20.109  0.00  0.00    +0.000 A 
ATOM      2  C   UNL     1       1.102   4.523  20.397  0.00  0.00    +0.000 A 
ATOM      3  C   UNL     1       1.144   3.133  20.515  0.00  0.00    +0.000 A 
ATOM      4  C   UNL     1       2.356   2.472  20.406  0.00  0.00    +0.000 A 
ATOM      5  C   UNL     1       3.514   3.202  20.148  0.00  0.00    +0.000 A 
ATOM      6  C   UNL     1       3.464   4.597  19.913  0.00  0.00    +0.000 A 
ENDROOT
BRANCH   1  10
ATOM      7  C   UNL     1       1.873   9.740  17.883  0.00  0.00    +0.000 C 
ATOM      8  C   UNL     1       1.825   8.763  19.003  0.00  0.00    +0.000 A 
ATOM      9  N   UNL     1       2.350   7.495  18.880  0.00  0.00    +0.000 N 
ATOM     10  C   UNL     1       2.060   6.745  19.996  0.00  0.00    +0.000 A 
ATOM     11  C   UNL     1       1.483   7.627  20.902  0.00  0.00    +0.000 A 
ATOM     12  C   UNL     1       1.260   8.884  20.268  0.00  0.00    +0.000 A 
ATOM     13  H   UNL     1       2.807   7.132  18.054  0.00  0.00    +0.000 HD
BRANCH  12  14
ATOM     14  C   UNL     1       0.560  10.065  20.776  0.00  0.00    +0.000 C 
ATOM     15  N   UNL     1      -0.682  10.295  20.256  0.00  0.00    +0.000 N 
ATOM     16  O   UNL     1       1.033  10.853  21.589  0.00  0.00    +0.000 OA
ATOM     17  H   UNL     1      -1.064   9.763  19.492  0.00  0.00    +0.000 HD
ATOM     18  H   UNL     1      -1.131  11.162  20.518  0.00  0.00    +0.000 HD
ENDBRANCH  12  14
ENDBRANCH   1  10
BRANCH   6  19
ATOM     19  O   UNL     1       4.605   5.277  19.511  0.00  0.00    +0.000 OA
BRANCH  19  20
ATOM     20  C   UNL     1       5.146   4.953  18.274  0.00  0.00    +0.000 A 
ATOM     21  C   UNL     1       6.519   4.736  18.083  0.00  0.00    +0.000 A 
ATOM     22  C   UNL     1       7.024   4.515  16.800  0.00  0.00    +0.000 A 
ATOM     23  C   UNL     1       6.153   4.447  15.716  0.00  0.00    +0.000 A 
ATOM     24 CL   UNL     1       6.781   4.175  14.137  0.00  0.00    +0.000 Cl
ATOM     25  C   UNL     1       4.779   4.598  15.906  0.00  0.00    +0.000 A 
ATOM     26  C   UNL     1       4.272   4.856  17.187  0.00  0.00    +0.000 A 
ENDBRANCH  19  20
ENDBRANCH   6  19
TORSDOF 4
ENDMDL
MODEL 8
REMARK VINA RESULT:      -8.2      1.073      1.493
REMARK  Name = 
REMARK  5 active torsions:
REMARK  status: ('A' for Active; 'I' for Inactive)
REMARK    1  A    between atoms: C_1  and  C_2
REMARK    2  A    between atoms: C_4  and  C_5
REMARK    3  A    between atoms: C_10  and  O_11
REMARK    4  A    between atoms: O_11  and  C_12
REMARK    5  A    between atoms: C_20  and  C_21
REMARK                            x       y       z     vdW  Elec       q    Type
REMARK                         _______ _______ _______ _____ _____    ______ ____
ROOT
ATOM      1  C   UNL     1       3.013   4.252  18.969  0.00  0.00    +0.000 A 
ATOM      2  C   UNL     1       2.668   3.047  18.319  0.00  0.00    +0.000 A 
ATOM      3  C   UNL     1       1.480   2.370  18.593  0.00  0.00    +0.000 A 
ATOM      4  C   UNL     1       0.572   2.912  19.486  0.00  0.00    +0.000 A 
ATOM      5  C   UNL     1       0.872   4.113  20.125  0.00  0.00    +0.000 A 
ATOM      6  C   UNL     1       2.124   4.748  19.940  0.00  0.00    +0.000 A 
ENDROOT
BRANCH   1  10
ATOM      7  C   UNL     1       7.764   5.694  19.495  0.00  0.00    +0.000 C 
ATOM      8  C   UNL     1       6.476   5.461  18.789  0.00  0.00    +0.000 A 
ATOM      9  N   UNL     1       5.320   5.155  19.474  0.00  0.00    +0.000 N 
ATOM     10  C   UNL     1       4.307   4.852  18.594  0.00  0.00    +0.000 A 
ATOM     11  C   UNL     1       4.808   5.140  17.330  0.00  0.00    +0.000 A 
ATOM     12  C   UNL     1       6.195   5.454  17.427  0.00  0.00    +0.000 A 
ATOM     13  H   UNL     1       5.243   5.076  20.480  0.00  0.00    +0.000 HD
BRANCH  12  14
ATOM     14  C   UNL     1       7.167   5.688  16.358  0.00  0.00    +0.000 C 
ATOM     15  N   UNL     1       7.395   4.638  15.515  0.00  0.00    +0.000 N 
ATOM     16  O   UNL     1       7.795   6.732  16.210  0.00  0.00    +0.000 OA
ATOM     17  H   UNL     1       7.013   3.719  15.668  0.00  0.00    +0.000 HD
ATOM     18  H   UNL     1       8.140   4.749  14.840  0.00  0.00    +0.000 HD
ENDBRANCH  12  14
ENDBRANCH   1  10
BRANCH   6  19
ATOM     19  O   UNL     1       2.458   5.861  20.699  0.00  0.00    +0.000 OA
BRANCH  19  20
ATOM     20  C   UNL     1       1.996   7.097  20.268  0.00  0.00    +0.000 A 
ATOM     21  C   UNL     1       1.230   7.944  21.084  0.00  0.00    +0.000 A 
ATOM     22  C   UNL     1       0.702   9.130  20.567  0.00  0.00    +0.000 A 
ATOM     23  C   UNL     1       0.990   9.502  19.257  0.00  0.00    +0.000 A 
ATOM     24 CL   UNL     1       0.337  10.964  18.626  0.00  0.00    +0.000 Cl
ATOM     25  C   UNL     1       1.803   8.697  18.458  0.00  0.00    +0.000 A 
ATOM     26  C   UNL     1       2.304   7.489  18.962  0.00  0.00    +0.000 A 
ENDBRANCH  19  20
ENDBRANCH   6  19
TORSDOF 4
ENDMDL
MODEL 9
REMARK VINA RESULT:      -8.2      1.193      1.225
REMARK  Name = 
REMARK  5 active torsions:
REMARK  status: ('A' for Active; 'I' for Inactive)
REMARK    1  A    between atoms: C_1  and  C_2
REMARK    2  A    between atoms: C_4  and  C_5
REMARK    3  A    between atoms: C_10  and  O_11
REMARK    4  A    between atoms: O_11  and  C_12
REMARK    5  A    between atoms: C_20  and  C_21
REMARK                            x       y       z     vdW  Elec       q    Type
REMARK                         _______ _______ _______ _____ _____    ______ ____
ROOT
ATOM      1  C   UNL     1       3.041   4.171  18.996  0.00  0.00    +0.000 A 
ATOM      2  C   UNL     1       2.707   2.928  18.419  0.00  0.00    +0.000 A 
ATOM      3  C   UNL     1       1.522   2.260  18.730  0.00  0.00    +0.000 A 
ATOM      4  C   UNL     1       0.607   2.848  19.586  0.00  0.00    +0.000 A 
ATOM      5  C   UNL     1       0.897   4.088  20.152  0.00  0.00    +0.000 A 
ATOM      6  C   UNL     1       2.145   4.719  19.933  0.00  0.00    +0.000 A 
ENDROOT
BRANCH   1  10
ATOM      7  C   UNL     1       7.780   5.676  19.450  0.00  0.00    +0.000 C 
ATOM      8  C   UNL     1       6.496   5.392  18.755  0.00  0.00    +0.000 A 
ATOM      9  N   UNL     1       5.340   5.120  19.454  0.00  0.00    +0.000 N 
ATOM     10  C   UNL     1       4.333   4.757  18.590  0.00  0.00    +0.000 A 
ATOM     11  C   UNL     1       4.836   4.971  17.313  0.00  0.00    +0.000 A 
ATOM     12  C   UNL     1       6.220   5.301  17.395  0.00  0.00    +0.000 A 
ATOM     13  H   UNL     1       5.260   5.101  20.462  0.00  0.00    +0.000 HD
BRANCH  12  14
ATOM     14  C   UNL     1       7.195   5.476  16.317  0.00  0.00    +0.000 C 
ATOM     15  N   UNL     1       7.729   6.726  16.189  0.00  0.00    +0.000 N 
ATOM     16  O   UNL     1       7.515   4.596  15.524  0.00  0.00    +0.000 OA
ATOM     17  H   UNL     1       7.406   7.518  16.720  0.00  0.00    +0.000 HD
ATOM     18  H   UNL     1       8.321   6.889  15.385  0.00  0.00    +0.000 HD
ENDBRANCH  12  14
ENDBRANCH   1  10
BRANCH   6  19
ATOM     19  O   UNL     1       2.469   5.878  20.625  0.00  0.00    +0.000 OA
BRANCH  19  20
ATOM     20  C   UNL     1       1.994   7.082  20.122  0.00  0.00    +0.000 A 
ATOM     21  C   UNL     1       2.271   7.519  18.818  0.00  0.00    +0.000 A 
ATOM     22  C   UNL     1       1.856   8.784  18.397  0.00  0.00    +0.000 A 
ATOM     23  C   UNL     1       1.110   9.588  19.254  0.00  0.00    +0.000 A 
ATOM     24 CL   UNL     1       0.601  11.147  18.730  0.00  0.00    +0.000 Cl
ATOM     25  C   UNL     1       0.776   9.136  20.532  0.00  0.00    +0.000 A 
ATOM     26  C   UNL     1       1.221   7.882  20.970  0.00  0.00    +0.000 A 
ENDBRANCH  19  20
ENDBRANCH   6  19
TORSDOF 4
ENDMDL
