MODEL 1
REMARK VINA RESULT:      -8.1      0.000      0.000
REMARK  Name = 
REMARK  3 active torsions:
REMARK  status: ('A' for Active; 'I' for Inactive)
REMARK    1  A    between atoms: C_1  and  C_2
REMARK    2  A    between atoms: C_2  and  C_3
REMARK    3  A    between atoms: C_5  and  C_6
REMARK                            x       y       z     vdW  Elec       q    Type
REMARK                         _______ _______ _______ _____ _____    ______ ____
ROOT
ATOM      1  C   UNL     1       5.464   3.943  18.237  0.00  0.00    +0.000 C 
ATOM      2  O   UNL     1       6.382   4.206  19.010  0.00  0.00    +0.000 OA
ATOM      3  N   UNL     1       4.381   3.152  18.635  0.00  0.00    +0.000 N 
ATOM      4  C   UNL     1       3.327   2.606  17.744  0.00  0.00    +0.000 C 
ATOM      5  C   UNL     1       1.920   3.068  18.177  0.00  0.00    +0.000 C 
ATOM      6  C   UNL     1       1.831   2.923  19.648  0.00  0.00    +0.000 A 
ATOM      7  N   UNL     1       0.714   2.951  20.421  0.00  0.00    +0.000 N 
ATOM      8  N   UNL     1       0.989   2.782  21.729  0.00  0.00    +0.000 NA
ATOM      9  C   UNL     1       2.322   2.674  21.771  0.00  0.00    +0.000 A 
ATOM     10  C   UNL     1       2.907   2.765  20.495  0.00  0.00    +0.000 A 
ATOM     11  C   UNL     1       4.326   2.704  20.044  0.00  0.00    +0.000 C 
ATOM     12  H   UNL     1      -0.253   3.077  20.140  0.00  0.00    +0.000 HD
ENDROOT
BRANCH   1  15
ATOM     13  C   UNL     1       6.625   4.711  14.598  0.00  0.00    +0.000 C 
ATOM     14  C   UNL     1       6.705   4.162  16.032  0.00  0.00    +0.000 C 
ATOM     15  C   UNL     1       5.444   4.511  16.827  0.00  0.00    +0.000 C 
ATOM     16  C   UNL     1       5.347   6.033  16.836  0.00  0.00    +0.000 C 
ATOM     17  C   UNL     1       5.157   6.508  15.406  0.00  0.00    +0.000 C 
ATOM     18  O   UNL     1       6.192   6.073  14.529  0.00  0.00    +0.000 OA
BRANCH  13  20
ATOM     19  C   UNL     1       6.440   3.576  12.299  0.00  0.00    +0.000 C 
ATOM     20  C   UNL     1       5.834   3.759  13.682  0.00  0.00    +0.000 C 
ENDBRANCH  13  20
ENDBRANCH   1  15
TORSDOF 2
ENDMDL
MODEL 2
REMARK VINA RESULT:      -7.4      2.951      6.691
REMARK  Name = 
REMARK  3 active torsions:
REMARK  status: ('A' for Active; 'I' for Inactive)
REMARK    1  A    between atoms: C_1  and  C_2
REMARK    2  A    between atoms: C_2  and  C_3
REMARK    3  A    between atoms: C_5  and  C_6
REMARK                            x       y       z     vdW  Elec       q    Type
REMARK                         _______ _______ _______ _____ _____    ______ ____
ROOT
ATOM      1  C   UNL     1       3.303   3.819  17.367  0.00  0.00    +0.000 C 
ATOM      2  O   UNL     1       2.474   3.322  16.608  0.00  0.00    +0.000 OA
ATOM      3  N   UNL     1       4.660   3.865  17.034  0.00  0.00    +0.000 N 
ATOM      4  C   UNL     1       5.768   4.253  17.943  0.00  0.00    +0.000 C 
ATOM      5  C   UNL     1       6.571   5.447  17.386  0.00  0.00    +0.000 C 
ATOM      6  C   UNL     1       6.813   5.194  15.947  0.00  0.00    +0.000 A 
ATOM      7  N   UNL     1       7.691   5.828  15.126  0.00  0.00    +0.000 N 
ATOM      8  N   UNL     1       7.661   5.346  13.869  0.00  0.00    +0.000 NA
ATOM      9  C   UNL     1       6.714   4.402  13.903  0.00  0.00    +0.000 A 
ATOM     10  C   UNL     1       6.138   4.269  15.180  0.00  0.00    +0.000 A 
ATOM     11  C   UNL     1       5.068   3.372  15.700  0.00  0.00    +0.000 C 
ATOM     12  H   UNL     1       8.334   6.583  15.342  0.00  0.00    +0.000 HD
ENDROOT
BRANCH   1  15
ATOM     13  C   UNL     1       1.245   4.440  20.617  0.00  0.00    +0.000 C 
ATOM     14  C   UNL     1       1.615   3.808  19.265  0.00  0.00    +0.000 C 
ATOM     15  C   UNL     1       2.876   4.452  18.682  0.00  0.00    +0.000 C 
ATOM     16  C   UNL     1       2.565   5.936  18.517  0.00  0.00    +0.000 C 
ATOM     17  C   UNL     1       2.319   6.528  19.893  0.00  0.00    +0.000 C 
ATOM     18  O   UNL     1       1.276   5.871  20.608  0.00  0.00    +0.000 OA
BRANCH  13  20
ATOM     19  C   UNL     1       2.276   2.310  21.618  0.00  0.00    +0.000 C 
ATOM     20  C   UNL     1       2.051   3.806  21.766  0.00  0.00    +0.000 C 
ENDBRANCH  13  20
ENDBRANCH   1  15
TORSDOF 2
ENDMDL
MODEL 3
REMARK VINA RESULT:      -6.9      2.476      3.800
REMARK  Name = 
REMARK  3 active torsions:
REMARK  status: ('A' for Active; 'I' for Inactive)
REMARK    1  A    between atoms: C_1  and  C_2
REMARK    2  A    between atoms: C_2  and  C_3
REMARK    3  A    between atoms: C_5  and  C_6
REMARK                            x       y       z     vdW  Elec       q    Type
REMARK                         _______ _______ _______ _____ _____    ______ ____
ROOT
ATOM      1  C   UNL     1       4.539   5.098  17.266  0.00  0.00    +0.000 C 
ATOM      2  O   UNL     1       4.695   4.464  16.225  0.00  0.00    +0.000 OA
ATOM      3  N   UNL     1       3.315   5.097  17.942  0.00  0.00    +0.000 N 
ATOM      4  C   UNL     1       2.950   5.974  19.083  0.00  0.00    +0.000 C 
ATOM      5  C   UNL     1       2.551   5.153  20.327  0.00  0.00    +0.000 C 
ATOM      6  C   UNL     1       1.653   4.064  19.879  0.00  0.00    +0.000 A 
ATOM      7  N   UNL     1       0.856   3.274  20.645  0.00  0.00    +0.000 N 
ATOM      8  N   UNL     1       0.162   2.380  19.914  0.00  0.00    +0.000 NA
ATOM      9  C   UNL     1       0.562   2.604  18.657  0.00  0.00    +0.000 A 
ATOM     10  C   UNL     1       1.506   3.644  18.575  0.00  0.00    +0.000 A 
ATOM     11  C   UNL     1       2.228   4.242  17.416  0.00  0.00    +0.000 C 
ATOM     12  H   UNL     1       0.730   3.280  21.652  0.00  0.00    +0.000 HD
ENDROOT
BRANCH   1  15
ATOM     13  C   UNL     1       7.840   7.154  17.513  0.00  0.00    +0.000 C 
ATOM     14  C   UNL     1       6.719   6.334  16.852  0.00  0.00    +0.000 C 
ATOM     15  C   UNL     1       5.691   5.872  17.888  0.00  0.00    +0.000 C 
ATOM     16  C   UNL     1       6.451   5.026  18.904  0.00  0.00    +0.000 C 
ATOM     17  C   UNL     1       7.465   5.916  19.602  0.00  0.00    +0.000 C 
ATOM     18  O   UNL     1       8.366   6.553  18.700  0.00  0.00    +0.000 OA
BRANCH  13  20
ATOM     19  C   UNL     1       8.510   9.520  18.259  0.00  0.00    +0.000 C 
ATOM     20  C   UNL     1       7.420   8.625  17.692  0.00  0.00    +0.000 C 
ENDBRANCH  13  20
ENDBRANCH   1  15
TORSDOF 2
ENDMDL
MODEL 4
REMARK VINA RESULT:      -6.8      0.999      1.048
REMARK  Name = 
REMARK  3 active torsions:
REMARK  status: ('A' for Active; 'I' for Inactive)
REMARK    1  A    between atoms: C_1  and  C_2
REMARK    2  A    between atoms: C_2  and  C_3
REMARK    3  A    between atoms: C_5  and  C_6
REMARK                            x       y       z     vdW  Elec       q    Type
REMARK                         _______ _______ _______ _____ _____    ______ ____
ROOT
ATOM      1  C   UNL     1       5.797   4.436  18.946  0.00  0.00    +0.000 C 
ATOM      2  O   UNL     1       6.458   4.727  19.940  0.00  0.00    +0.000 OA
ATOM      3  N   UNL     1       4.709   3.561  19.025  0.00  0.00    +0.000 N 
ATOM      4  C   UNL     1       3.970   2.984  17.873  0.00  0.00    +0.000 C 
ATOM      5  C   UNL     1       2.469   3.335  17.927  0.00  0.00    +0.000 C 
ATOM      6  C   UNL     1       2.007   3.124  19.319  0.00  0.00    +0.000 A 
ATOM      7  N   UNL     1       0.727   3.048  19.768  0.00  0.00    +0.000 N 
ATOM      8  N   UNL     1       0.660   2.844  21.098  0.00  0.00    +0.000 NA
ATOM      9  C   UNL     1       1.939   2.822  21.490  0.00  0.00    +0.000 A 
ATOM     10  C   UNL     1       2.830   3.003  20.417  0.00  0.00    +0.000 A 
ATOM     11  C   UNL     1       4.318   3.054  20.357  0.00  0.00    +0.000 C 
ATOM     12  H   UNL     1      -0.138   3.122  19.244  0.00  0.00    +0.000 HD
ENDROOT
BRANCH   1  15
ATOM     13  C   UNL     1       7.107   4.752  15.289  0.00  0.00    +0.000 C 
ATOM     14  C   UNL     1       6.857   4.104  16.661  0.00  0.00    +0.000 C 
ATOM     15  C   UNL     1       6.108   5.059  17.594  0.00  0.00    +0.000 C 
ATOM     16  C   UNL     1       6.983   6.300  17.735  0.00  0.00    +0.000 C 
ATOM     17  C   UNL     1       7.102   6.958  16.371  0.00  0.00    +0.000 C 
ATOM     18  O   UNL     1       7.619   6.085  15.370  0.00  0.00    +0.000 OA
BRANCH  13  20
ATOM     19  C   UNL     1       6.098   3.731  13.157  0.00  0.00    +0.000 C 
ATOM     20  C   UNL     1       5.875   4.612  14.376  0.00  0.00    +0.000 C 
ENDBRANCH  13  20
ENDBRANCH   1  15
TORSDOF 2
ENDMDL
MODEL 5
REMARK VINA RESULT:      -6.8      3.417      6.365
REMARK  Name = 
REMARK  3 active torsions:
REMARK  status: ('A' for Active; 'I' for Inactive)
REMARK    1  A    between atoms: C_1  and  C_2
REMARK    2  A    between atoms: C_2  and  C_3
REMARK    3  A    between atoms: C_5  and  C_6
REMARK                            x       y       z     vdW  Elec       q    Type
REMARK                         _______ _______ _______ _____ _____    ______ ____
ROOT
ATOM      1  C   UNL     1       3.279   5.933  17.976  0.00  0.00    +0.000 C 
ATOM      2  O   UNL     1       2.596   6.864  17.556  0.00  0.00    +0.000 OA
ATOM      3  N   UNL     1       4.658   5.880  17.747  0.00  0.00    +0.000 N 
ATOM      4  C   UNL     1       5.544   4.722  18.027  0.00  0.00    +0.000 C 
ATOM      5  C   UNL     1       6.684   5.098  18.996  0.00  0.00    +0.000 C 
ATOM      6  C   UNL     1       7.238   6.399  18.555  0.00  0.00    +0.000 A 
ATOM      7  N   UNL     1       8.408   6.977  18.935  0.00  0.00    +0.000 N 
ATOM      8  N   UNL     1       8.612   8.166  18.337  0.00  0.00    +0.000 NA
ATOM      9  C   UNL     1       7.522   8.345  17.583  0.00  0.00    +0.000 A 
ATOM     10  C   UNL     1       6.618   7.272  17.687  0.00  0.00    +0.000 A 
ATOM     11  C   UNL     1       5.293   7.021  17.053  0.00  0.00    +0.000 C 
ATOM     12  H   UNL     1       9.108   6.632  19.583  0.00  0.00    +0.000 HD
ENDROOT
BRANCH   1  15
ATOM     13  C   UNL     1       1.114   2.818  18.867  0.00  0.00    +0.000 C 
ATOM     14  C   UNL     1       1.682   3.958  18.006  0.00  0.00    +0.000 C 
ATOM     15  C   UNL     1       2.657   4.823  18.809  0.00  0.00    +0.000 C 
ATOM     16  C   UNL     1       1.870   5.380  19.989  0.00  0.00    +0.000 C 
ATOM     17  C   UNL     1       1.431   4.217  20.862  0.00  0.00    +0.000 C 
ATOM     18  O   UNL     1       0.665   3.245  20.157  0.00  0.00    +0.000 OA
BRANCH  13  20
ATOM     19  C   UNL     1       3.269   1.744  17.970  0.00  0.00    +0.000 C 
ATOM     20  C   UNL     1       2.079   1.619  18.908  0.00  0.00    +0.000 C 
ENDBRANCH  13  20
ENDBRANCH   1  15
TORSDOF 2
ENDMDL
MODEL 6
REMARK VINA RESULT:      -6.8      3.671      4.040
REMARK  Name = 
REMARK  3 active torsions:
REMARK  status: ('A' for Active; 'I' for Inactive)
REMARK    1  A    between atoms: C_1  and  C_2
REMARK    2  A    between atoms: C_2  and  C_3
REMARK    3  A    between atoms: C_5  and  C_6
REMARK                            x       y       z     vdW  Elec       q    Type
REMARK                         _______ _______ _______ _____ _____    ______ ____
ROOT
ATOM      1  C   UNL     1       4.191   5.538  19.044  0.00  0.00    +0.000 C 
ATOM      2  O   UNL     1       4.486   4.917  20.063  0.00  0.00    +0.000 OA
ATOM      3  N   UNL     1       3.021   6.300  18.968  0.00  0.00    +0.000 N 
ATOM      4  C   UNL     1       2.465   6.921  17.740  0.00  0.00    +0.000 C 
ATOM      5  C   UNL     1       2.312   8.449  17.893  0.00  0.00    +0.000 C 
ATOM      6  C   UNL     1       1.714   8.709  19.223  0.00  0.00    +0.000 A 
ATOM      7  N   UNL     1       1.160   9.865  19.675  0.00  0.00    +0.000 N 
ATOM      8  N   UNL     1       0.704   9.758  20.937  0.00  0.00    +0.000 NA
ATOM      9  C   UNL     1       1.010   8.505  21.291  0.00  0.00    +0.000 A 
ATOM     10  C   UNL     1       1.656   7.801  20.258  0.00  0.00    +0.000 A 
ATOM     11  C   UNL     1       2.180   6.408  20.179  0.00  0.00    +0.000 C 
ATOM     12  H   UNL     1       1.055  10.752  19.193  0.00  0.00    +0.000 HD
ENDROOT
BRANCH   1  15
ATOM     13  C   UNL     1       6.286   4.188  16.048  0.00  0.00    +0.000 C 
ATOM     14  C   UNL     1       5.387   4.137  17.294  0.00  0.00    +0.000 C 
ATOM     15  C   UNL     1       5.118   5.543  17.838  0.00  0.00    +0.000 C 
ATOM     16  C   UNL     1       6.479   6.141  18.178  0.00  0.00    +0.000 C 
ATOM     17  C   UNL     1       7.278   6.270  16.893  0.00  0.00    +0.000 C 
ATOM     18  O   UNL     1       7.429   5.034  16.200  0.00  0.00    +0.000 OA
BRANCH  13  20
ATOM     19  C   UNL     1       6.043   3.881  13.508  0.00  0.00    +0.000 C 
ATOM     20  C   UNL     1       5.461   4.476  14.780  0.00  0.00    +0.000 C 
ENDBRANCH  13  20
ENDBRANCH   1  15
TORSDOF 2
ENDMDL
MODEL 7
REMARK VINA RESULT:      -6.5      2.349      3.621
REMARK  Name = 
REMARK  3 active torsions:
REMARK  status: ('A' for Active; 'I' for Inactive)
REMARK    1  A    between atoms: C_1  and  C_2
REMARK    2  A    between atoms: C_2  and  C_3
REMARK    3  A    between atoms: C_5  and  C_6
REMARK                            x       y       z     vdW  Elec       q    Type
REMARK                         _______ _______ _______ _____ _____    ______ ____
ROOT
ATOM      1  C   UNL     1       3.939   6.200  18.197  0.00  0.00    +0.000 C 
ATOM      2  O   UNL     1       3.191   7.114  17.858  0.00  0.00    +0.000 OA
ATOM      3  N   UNL     1       3.463   5.098  18.914  0.00  0.00    +0.000 N 
ATOM      4  C   UNL     1       4.296   4.044  19.545  0.00  0.00    +0.000 C 
ATOM      5  C   UNL     1       3.941   2.641  19.010  0.00  0.00    +0.000 C 
ATOM      6  C   UNL     1       2.465   2.533  18.976  0.00  0.00    +0.000 A 
ATOM      7  N   UNL     1       1.715   1.409  18.835  0.00  0.00    +0.000 N 
ATOM      8  N   UNL     1       0.393   1.666  18.850  0.00  0.00    +0.000 NA
ATOM      9  C   UNL     1       0.320   2.996  18.976  0.00  0.00    +0.000 A 
ATOM     10  C   UNL     1       1.590   3.596  19.049  0.00  0.00    +0.000 A 
ATOM     11  C   UNL     1       2.012   5.019  19.188  0.00  0.00    +0.000 C 
ATOM     12  H   UNL     1       2.022   0.447  18.727  0.00  0.00    +0.000 HD
ENDROOT
BRANCH   1  15
ATOM     13  C   UNL     1       7.365   7.542  16.913  0.00  0.00    +0.000 C 
ATOM     14  C   UNL     1       5.865   7.561  17.253  0.00  0.00    +0.000 C 
ATOM     15  C   UNL     1       5.407   6.207  17.802  0.00  0.00    +0.000 C 
ATOM     16  C   UNL     1       5.702   5.179  16.715  0.00  0.00    +0.000 C 
ATOM     17  C   UNL     1       7.205   5.125  16.503  0.00  0.00    +0.000 C 
ATOM     18  O   UNL     1       7.769   6.390  16.167  0.00  0.00    +0.000 OA
BRANCH  13  20
ATOM     19  C   UNL     1       8.562   9.272  18.389  0.00  0.00    +0.000 C 
ATOM     20  C   UNL     1       8.221   7.807  18.165  0.00  0.00    +0.000 C 
ENDBRANCH  13  20
ENDBRANCH   1  15
TORSDOF 2
ENDMDL
MODEL 8
REMARK VINA RESULT:      -6.3      1.770      2.229
REMARK  Name = 
REMARK  3 active torsions:
REMARK  status: ('A' for Active; 'I' for Inactive)
REMARK    1  A    between atoms: C_1  and  C_2
REMARK    2  A    between atoms: C_2  and  C_3
REMARK    3  A    between atoms: C_5  and  C_6
REMARK                            x       y       z     vdW  Elec       q    Type
REMARK                         _______ _______ _______ _____ _____    ______ ____
ROOT
ATOM      1  C   UNL     1       4.081   6.277  17.589  0.00  0.00    +0.000 C 
ATOM      2  O   UNL     1       3.305   7.200  17.351  0.00  0.00    +0.000 OA
ATOM      3  N   UNL     1       3.969   5.516  18.757  0.00  0.00    +0.000 N 
ATOM      4  C   UNL     1       4.956   4.520  19.245  0.00  0.00    +0.000 C 
ATOM      5  C   UNL     1       4.321   3.124  19.413  0.00  0.00    +0.000 C 
ATOM      6  C   UNL     1       3.015   3.303  20.087  0.00  0.00    +0.000 A 
ATOM      7  N   UNL     1       2.243   2.349  20.672  0.00  0.00    +0.000 N 
ATOM      8  N   UNL     1       1.111   2.855  21.199  0.00  0.00    +0.000 NA
ATOM      9  C   UNL     1       1.169   4.159  20.907  0.00  0.00    +0.000 A 
ATOM     10  C   UNL     1       2.337   4.498  20.200  0.00  0.00    +0.000 A 
ATOM     11  C   UNL     1       2.837   5.796  19.666  0.00  0.00    +0.000 C 
ATOM     12  H   UNL     1       2.413   1.352  20.754  0.00  0.00    +0.000 HD
ENDROOT
BRANCH   1  15
ATOM     13  C   UNL     1       6.180   4.081  15.149  0.00  0.00    +0.000 C 
ATOM     14  C   UNL     1       5.100   4.418  16.192  0.00  0.00    +0.000 C 
ATOM     15  C   UNL     1       5.165   5.893  16.595  0.00  0.00    +0.000 C 
ATOM     16  C   UNL     1       6.559   6.124  17.168  0.00  0.00    +0.000 C 
ATOM     17  C   UNL     1       7.574   5.885  16.063  0.00  0.00    +0.000 C 
ATOM     18  O   UNL     1       7.475   4.588  15.481  0.00  0.00    +0.000 OA
BRANCH  13  20
ATOM     19  C   UNL     1       6.064   3.415  12.669  0.00  0.00    +0.000 C 
ATOM     20  C   UNL     1       5.712   4.448  13.728  0.00  0.00    +0.000 C 
ENDBRANCH  13  20
ENDBRANCH   1  15
TORSDOF 2
ENDMDL
MODEL 9
REMARK VINA RESULT:      -6.2      1.882      3.104
REMARK  Name = 
REMARK  3 active torsions:
REMARK  status: ('A' for Active; 'I' for Inactive)
REMARK    1  A    between atoms: C_1  and  C_2
REMARK    2  A    between atoms: C_2  and  C_3
REMARK    3  A    between atoms: C_5  and  C_6
REMARK                            x       y       z     vdW  Elec       q    Type
REMARK                         _______ _______ _______ _____ _____    ______ ____
ROOT
ATOM      1  C   UNL     1       3.647   4.012  16.933  0.00  0.00    +0.000 C 
ATOM      2  O   UNL     1       3.119   3.255  16.122  0.00  0.00    +0.000 OA
ATOM      3  N   UNL     1       3.016   4.348  18.135  0.00  0.00    +0.000 N 
ATOM      4  C   UNL     1       3.459   5.396  19.089  0.00  0.00    +0.000 C 
ATOM      5  C   UNL     1       3.716   4.814  20.494  0.00  0.00    +0.000 C 
ATOM      6  C   UNL     1       2.591   3.908  20.819  0.00  0.00    +0.000 A 
ATOM      7  N   UNL     1       2.260   3.394  22.033  0.00  0.00    +0.000 N 
ATOM      8  N   UNL     1       1.170   2.604  21.977  0.00  0.00    +0.000 NA
ATOM      9  C   UNL     1       0.831   2.605  20.683  0.00  0.00    +0.000 A 
ATOM     10  C   UNL     1       1.694   3.398  19.905  0.00  0.00    +0.000 A 
ATOM     11  C   UNL     1       1.722   3.702  18.447  0.00  0.00    +0.000 C 
ATOM     12  H   UNL     1       2.715   3.531  22.929  0.00  0.00    +0.000 HD
ENDROOT
BRANCH   1  15
ATOM     13  C   UNL     1       6.457   6.625  16.256  0.00  0.00    +0.000 C 
ATOM     14  C   UNL     1       5.030   6.088  16.454  0.00  0.00    +0.000 C 
ATOM     15  C   UNL     1       5.038   4.574  16.684  0.00  0.00    +0.000 C 
ATOM     16  C   UNL     1       5.681   3.953  15.449  0.00  0.00    +0.000 C 
ATOM     17  C   UNL     1       7.121   4.432  15.369  0.00  0.00    +0.000 C 
ATOM     18  O   UNL     1       7.238   5.852  15.340  0.00  0.00    +0.000 OA
BRANCH  13  20
ATOM     19  C   UNL     1       7.883   8.205  17.697  0.00  0.00    +0.000 C 
ATOM     20  C   UNL     1       7.149   6.876  17.609  0.00  0.00    +0.000 C 
ENDBRANCH  13  20
ENDBRANCH   1  15
TORSDOF 2
ENDMDL
