MODEL 1
REMARK VINA RESULT:      -8.2      0.000      0.000
REMARK  Name = 
REMARK  8 active torsions:
REMARK  status: ('A' for Active; 'I' for Inactive)
REMARK    1  A    between atoms: C_1  and  C_2
REMARK    2  A    between atoms: N_5  and  C_6
REMARK    3  A    between atoms: C_6  and  C_7
REMARK    4  A    between atoms: C_7  and  O_8
REMARK    5  A    between atoms: O_8  and  C_9
REMARK    6  A    between atoms: C_12  and  C_13
REMARK    7  A    between atoms: C_17  and  O_18
REMARK    8  A    between atoms: C_23  and  C_24
REMARK                            x       y       z     vdW  Elec       q    Type
REMARK                         _______ _______ _______ _____ _____    ______ ____
ROOT
ATOM      1  C   UNL     1      -0.437  10.553  19.852  0.00  0.00    +0.000 C 
ATOM      2  C   UNL     1      -1.612  10.666  18.835  0.00  0.00    +0.000 A 
ATOM      3  C   UNL     1      -2.164   9.570  18.147  0.00  0.00    +0.000 A 
ATOM      4  C   UNL     1      -3.383   9.699  17.445  0.00  0.00    +0.000 A 
ATOM      5  C   UNL     1      -4.076  10.904  17.463  0.00  0.00    +0.000 A 
ATOM      6  C   UNL     1      -3.529  12.007  18.077  0.00  0.00    +0.000 A 
ATOM      7  C   UNL     1      -2.298  11.894  18.715  0.00  0.00    +0.000 A 
ATOM      8  C   UNL     1      -1.660  13.123  19.239  0.00  0.00    +0.000 C 
ATOM      9  C   UNL     1      -1.224  12.840  20.672  0.00  0.00    +0.000 C 
ATOM     10  C   UNL     1       0.018  11.929  20.606  0.00  0.00    +0.000 C 
ENDROOT
BRANCH   1  14
ATOM     11  C   UNL     1       2.521   7.728  18.472  0.00  0.00    +0.000 A 
ATOM     12  C   UNL     1       2.114   7.753  19.811  0.00  0.00    +0.000 A 
ATOM     13  C   UNL     1       1.247   8.734  20.281  0.00  0.00    +0.000 A 
ATOM     14  C   UNL     1       0.745   9.703  19.415  0.00  0.00    +0.000 A 
ATOM     15  C   UNL     1       1.242   9.742  18.095  0.00  0.00    +0.000 A 
ATOM     16  C   UNL     1       2.122   8.765  17.629  0.00  0.00    +0.000 A 
BRANCH  11  17
ATOM     17  O   UNL     1       3.248   6.703  17.896  0.00  0.00    +0.000 OA
BRANCH  17  18
ATOM     18  C   UNL     1       2.781   5.418  18.316  0.00  0.00    +0.000 C 
BRANCH  18  19
ATOM     19  C   UNL     1       3.889   4.424  18.678  0.00  0.00    +0.000 C 
BRANCH  19  24
ATOM     20  C   UNL     1       0.761   2.496  18.764  0.00  0.00    +0.000 C 
ATOM     21  C   UNL     1       1.637   2.183  19.978  0.00  0.00    +0.000 C 
ATOM     22  C   UNL     1       1.475   3.216  21.081  0.00  0.00    +0.000 C 
ATOM     23  C   UNL     1       2.395   4.338  20.633  0.00  0.00    +0.000 C 
ATOM     24  N   UNL     1       3.492   3.689  19.893  0.00  0.00    +0.000 NA
ATOM     25  C   UNL     1       3.126   2.292  19.651  0.00  0.00    +0.000 C 
ENDBRANCH  19  24
ENDBRANCH  18  19
ENDBRANCH  17  18
ENDBRANCH  11  17
ENDBRANCH   1  14
BRANCH  10  26
ATOM     26  C   UNL     1       1.253  12.752  20.129  0.00  0.00    +0.000 A 
ATOM     27  C   UNL     1       2.282  13.180  21.005  0.00  0.00    +0.000 A 
ATOM     28  C   UNL     1       3.286  14.066  20.609  0.00  0.00    +0.000 A 
ATOM     29  C   UNL     1       3.356  14.476  19.286  0.00  0.00    +0.000 A 
ATOM     30  C   UNL     1       2.458  13.943  18.368  0.00  0.00    +0.000 A 
ATOM     31  C   UNL     1       1.439  13.069  18.778  0.00  0.00    +0.000 A 
ENDBRANCH  10  26
BRANCH   5  32
ATOM     32  O   UNL     1      -5.297  11.067  16.889  0.00  0.00    +0.000 OA
ATOM     33  H   UNL     1      -5.744  10.203  16.884  0.00  0.00    +0.000 HD
ENDBRANCH   5  32
TORSDOF 7
ENDMDL
MODEL 2
REMARK VINA RESULT:      -8.2      3.076      9.061
REMARK  Name = 
REMARK  8 active torsions:
REMARK  status: ('A' for Active; 'I' for Inactive)
REMARK    1  A    between atoms: C_1  and  C_2
REMARK    2  A    between atoms: N_5  and  C_6
REMARK    3  A    between atoms: C_6  and  C_7
REMARK    4  A    between atoms: C_7  and  O_8
REMARK    5  A    between atoms: O_8  and  C_9
REMARK    6  A    between atoms: C_12  and  C_13
REMARK    7  A    between atoms: C_17  and  O_18
REMARK    8  A    between atoms: C_23  and  C_24
REMARK                            x       y       z     vdW  Elec       q    Type
REMARK                         _______ _______ _______ _____ _____    ______ ____
ROOT
ATOM      1  C   UNL     1       4.216   6.024  18.592  0.00  0.00    +0.000 C 
ATOM      2  C   UNL     1       4.681   5.717  17.137  0.00  0.00    +0.000 A 
ATOM      3  C   UNL     1       4.876   6.700  16.151  0.00  0.00    +0.000 A 
ATOM      4  C   UNL     1       5.540   6.389  14.944  0.00  0.00    +0.000 A 
ATOM      5  C   UNL     1       6.050   5.113  14.735  0.00  0.00    +0.000 A 
ATOM      6  C   UNL     1       5.820   4.118  15.657  0.00  0.00    +0.000 A 
ATOM      7  C   UNL     1       5.110   4.411  16.817  0.00  0.00    +0.000 A 
ATOM      8  C   UNL     1       4.747   3.298  17.722  0.00  0.00    +0.000 C 
ATOM      9  C   UNL     1       5.140   3.707  19.137  0.00  0.00    +0.000 C 
ATOM     10  C   UNL     1       4.115   4.755  19.616  0.00  0.00    +0.000 C 
ENDROOT
BRANCH   1  14
ATOM     11  C   UNL     1       1.285   9.135  19.202  0.00  0.00    +0.000 A 
ATOM     12  C   UNL     1       1.564   8.197  20.203  0.00  0.00    +0.000 A 
ATOM     13  C   UNL     1       2.423   7.128  19.968  0.00  0.00    +0.000 A 
ATOM     14  C   UNL     1       3.046   6.984  18.730  0.00  0.00    +0.000 A 
ATOM     15  C   UNL     1       2.679   7.866  17.691  0.00  0.00    +0.000 A 
ATOM     16  C   UNL     1       1.807   8.930  17.925  0.00  0.00    +0.000 A 
BRANCH  11  17
ATOM     17  O   UNL     1       0.574  10.303  19.403  0.00  0.00    +0.000 OA
BRANCH  17  18
ATOM     18  C   UNL     1      -0.145  10.696  18.230  0.00  0.00    +0.000 C 
BRANCH  18  19
ATOM     19  C   UNL     1      -1.278  11.696  18.482  0.00  0.00    +0.000 C 
BRANCH  19  24
ATOM     20  C   UNL     1      -2.860  10.718  15.312  0.00  0.00    +0.000 C 
ATOM     21  C   UNL     1      -3.543  10.043  16.503  0.00  0.00    +0.000 C 
ATOM     22  C   UNL     1      -4.562  10.954  17.169  0.00  0.00    +0.000 C 
ATOM     23  C   UNL     1      -3.704  11.817  18.076  0.00  0.00    +0.000 C 
ATOM     24  N   UNL     1      -2.563  10.972  18.475  0.00  0.00    +0.000 NA
ATOM     25  C   UNL     1      -2.563   9.768  17.642  0.00  0.00    +0.000 C 
ENDBRANCH  19  24
ENDBRANCH  18  19
ENDBRANCH  17  18
ENDBRANCH  11  17
ENDBRANCH   1  14
BRANCH  10  26
ATOM     26  C   UNL     1       2.755   4.061  19.927  0.00  0.00    +0.000 A 
ATOM     27  C   UNL     1       2.364   3.677  21.235  0.00  0.00    +0.000 A 
ATOM     28  C   UNL     1       1.232   2.898  21.482  0.00  0.00    +0.000 A 
ATOM     29  C   UNL     1       0.389   2.561  20.434  0.00  0.00    +0.000 A 
ATOM     30  C   UNL     1       0.659   3.062  19.166  0.00  0.00    +0.000 A 
ATOM     31  C   UNL     1       1.809   3.828  18.921  0.00  0.00    +0.000 A 
ENDBRANCH  10  26
BRANCH   5  32
ATOM     32  O   UNL     1       6.780   4.775  13.640  0.00  0.00    +0.000 OA
ATOM     33  H   UNL     1       7.721   4.896  13.856  0.00  0.00    +0.000 HD
ENDBRANCH   5  32
TORSDOF 7
ENDMDL
MODEL 3
REMARK VINA RESULT:      -8.2      0.738      1.500
REMARK  Name = 
REMARK  8 active torsions:
REMARK  status: ('A' for Active; 'I' for Inactive)
REMARK    1  A    between atoms: C_1  and  C_2
REMARK    2  A    between atoms: N_5  and  C_6
REMARK    3  A    between atoms: C_6  and  C_7
REMARK    4  A    between atoms: C_7  and  O_8
REMARK    5  A    between atoms: O_8  and  C_9
REMARK    6  A    between atoms: C_12  and  C_13
REMARK    7  A    between atoms: C_17  and  O_18
REMARK    8  A    between atoms: C_23  and  C_24
REMARK                            x       y       z     vdW  Elec       q    Type
REMARK                         _______ _______ _______ _____ _____    ______ ____
ROOT
ATOM      1  C   UNL     1      -0.490  10.528  19.858  0.00  0.00    +0.000 C 
ATOM      2  C   UNL     1      -1.666  10.646  18.843  0.00  0.00    +0.000 A 
ATOM      3  C   UNL     1      -2.211   9.554  18.143  0.00  0.00    +0.000 A 
ATOM      4  C   UNL     1      -3.431   9.684  17.442  0.00  0.00    +0.000 A 
ATOM      5  C   UNL     1      -4.133  10.883  17.475  0.00  0.00    +0.000 A 
ATOM      6  C   UNL     1      -3.592  11.983  18.101  0.00  0.00    +0.000 A 
ATOM      7  C   UNL     1      -2.360  11.870  18.737  0.00  0.00    +0.000 A 
ATOM      8  C   UNL     1      -1.730  13.097  19.276  0.00  0.00    +0.000 C 
ATOM      9  C   UNL     1      -1.292  12.801  20.705  0.00  0.00    +0.000 C 
ATOM     10  C   UNL     1      -0.043  11.899  20.628  0.00  0.00    +0.000 C 
ENDROOT
BRANCH   1  14
ATOM     11  C   UNL     1       2.489   7.730  18.469  0.00  0.00    +0.000 A 
ATOM     12  C   UNL     1       2.116   7.780  19.817  0.00  0.00    +0.000 A 
ATOM     13  C   UNL     1       1.241   8.755  20.286  0.00  0.00    +0.000 A 
ATOM     14  C   UNL     1       0.697   9.692  19.410  0.00  0.00    +0.000 A 
ATOM     15  C   UNL     1       1.159   9.708  18.077  0.00  0.00    +0.000 A 
ATOM     16  C   UNL     1       2.046   8.737  17.612  0.00  0.00    +0.000 A 
BRANCH  11  17
ATOM     17  O   UNL     1       3.221   6.705  17.899  0.00  0.00    +0.000 OA
BRANCH  17  18
ATOM     18  C   UNL     1       2.843   5.427  18.420  0.00  0.00    +0.000 C 
BRANCH  18  19
ATOM     19  C   UNL     1       1.599   4.816  17.769  0.00  0.00    +0.000 C 
BRANCH  19  24
ATOM     20  C   UNL     1       2.336   2.770  20.733  0.00  0.00    +0.000 C 
ATOM     21  C   UNL     1       1.995   1.894  19.526  0.00  0.00    +0.000 C 
ATOM     22  C   UNL     1       3.194   1.685  18.615  0.00  0.00    +0.000 C 
ATOM     23  C   UNL     1       3.201   2.946  17.770  0.00  0.00    +0.000 C 
ATOM     24  N   UNL     1       1.791   3.358  17.648  0.00  0.00    +0.000 NA
ATOM     25  C   UNL     1       0.994   2.572  18.592  0.00  0.00    +0.000 C 
ENDBRANCH  19  24
ENDBRANCH  18  19
ENDBRANCH  17  18
ENDBRANCH  11  17
ENDBRANCH   1  14
BRANCH  10  26
ATOM     26  C   UNL     1       1.185  12.736  20.160  0.00  0.00    +0.000 A 
ATOM     27  C   UNL     1       1.543  12.889  18.797  0.00  0.00    +0.000 A 
ATOM     28  C   UNL     1       2.741  13.485  18.397  0.00  0.00    +0.000 A 
ATOM     29  C   UNL     1       3.579  14.046  19.348  0.00  0.00    +0.000 A 
ATOM     30  C   UNL     1       3.175  14.057  20.679  0.00  0.00    +0.000 A 
ATOM     31  C   UNL     1       1.979  13.438  21.075  0.00  0.00    +0.000 A 
ENDBRANCH  10  26
BRANCH   5  32
ATOM     32  O   UNL     1      -5.355  11.044  16.903  0.00  0.00    +0.000 OA
ATOM     33  H   UNL     1      -5.512  10.288  16.312  0.00  0.00    +0.000 HD
ENDBRANCH   5  32
TORSDOF 7
ENDMDL
MODEL 4
REMARK VINA RESULT:      -8.1      2.184      2.887
REMARK  Name = 
REMARK  8 active torsions:
REMARK  status: ('A' for Active; 'I' for Inactive)
REMARK    1  A    between atoms: C_1  and  C_2
REMARK    2  A    between atoms: N_5  and  C_6
REMARK    3  A    between atoms: C_6  and  C_7
REMARK    4  A    between atoms: C_7  and  O_8
REMARK    5  A    between atoms: O_8  and  C_9
REMARK    6  A    between atoms: C_12  and  C_13
REMARK    7  A    between atoms: C_17  and  O_18
REMARK    8  A    between atoms: C_23  and  C_24
REMARK                            x       y       z     vdW  Elec       q    Type
REMARK                         _______ _______ _______ _____ _____    ______ ____
ROOT
ATOM      1  C   UNL     1      -0.313  10.420  19.790  0.00  0.00    +0.000 C 
ATOM      2  C   UNL     1      -1.462  10.584  18.751  0.00  0.00    +0.000 A 
ATOM      3  C   UNL     1      -2.006   9.521  18.008  0.00  0.00    +0.000 A 
ATOM      4  C   UNL     1      -3.207   9.688  17.282  0.00  0.00    +0.000 A 
ATOM      5  C   UNL     1      -3.890  10.898  17.330  0.00  0.00    +0.000 A 
ATOM      6  C   UNL     1      -3.348  11.972  17.999  0.00  0.00    +0.000 A 
ATOM      7  C   UNL     1      -2.133  11.822  18.661  0.00  0.00    +0.000 A 
ATOM      8  C   UNL     1      -1.497  13.023  19.247  0.00  0.00    +0.000 C 
ATOM      9  C   UNL     1      -1.099  12.682  20.678  0.00  0.00    +0.000 C 
ATOM     10  C   UNL     1       0.136  11.762  20.607  0.00  0.00    +0.000 C 
ENDROOT
BRANCH   1  14
ATOM     11  C   UNL     1       2.653   7.619  18.377  0.00  0.00    +0.000 A 
ATOM     12  C   UNL     1       2.218   7.603  19.708  0.00  0.00    +0.000 A 
ATOM     13  C   UNL     1       1.349   8.575  20.192  0.00  0.00    +0.000 A 
ATOM     14  C   UNL     1       0.871   9.576  19.349  0.00  0.00    +0.000 A 
ATOM     15  C   UNL     1       1.396   9.654  18.041  0.00  0.00    +0.000 A 
ATOM     16  C   UNL     1       2.278   8.686  17.561  0.00  0.00    +0.000 A 
BRANCH  11  17
ATOM     17  O   UNL     1       3.384   6.608  17.782  0.00  0.00    +0.000 OA
BRANCH  17  18
ATOM     18  C   UNL     1       4.358   7.123  16.869  0.00  0.00    +0.000 C 
BRANCH  18  19
ATOM     19  C   UNL     1       5.124   6.054  16.085  0.00  0.00    +0.000 C 
BRANCH  19  24
ATOM     20  C   UNL     1       6.331   5.290  19.472  0.00  0.00    +0.000 C 
ATOM     21  C   UNL     1       7.494   5.422  18.486  0.00  0.00    +0.000 C 
ATOM     22  C   UNL     1       7.891   6.872  18.262  0.00  0.00    +0.000 C 
ATOM     23  C   UNL     1       6.885   7.343  17.226  0.00  0.00    +0.000 C 
ATOM     24  N   UNL     1       6.559   6.157  16.413  0.00  0.00    +0.000 NA
ATOM     25  C   UNL     1       7.104   4.972  17.079  0.00  0.00    +0.000 C 
ENDBRANCH  19  24
ENDBRANCH  18  19
ENDBRANCH  17  18
ENDBRANCH  11  17
ENDBRANCH   1  14
BRANCH  10  26
ATOM     26  C   UNL     1       1.390  12.591  20.192  0.00  0.00    +0.000 A 
ATOM     27  C   UNL     1       2.254  13.208  21.130  0.00  0.00    +0.000 A 
ATOM     28  C   UNL     1       3.265  14.094  20.752  0.00  0.00    +0.000 A 
ATOM     29  C   UNL     1       3.514  14.314  19.406  0.00  0.00    +0.000 A 
ATOM     30  C   UNL     1       2.790  13.597  18.460  0.00  0.00    +0.000 A 
ATOM     31  C   UNL     1       1.763  12.723  18.849  0.00  0.00    +0.000 A 
ENDBRANCH  10  26
BRANCH   5  32
ATOM     32  O   UNL     1      -5.095  11.095  16.733  0.00  0.00    +0.000 OA
ATOM     33  H   UNL     1      -5.741  10.508  17.161  0.00  0.00    +0.000 HD
ENDBRANCH   5  32
TORSDOF 7
ENDMDL
MODEL 5
REMARK VINA RESULT:      -8.0      3.115      8.545
REMARK  Name = 
REMARK  8 active torsions:
REMARK  status: ('A' for Active; 'I' for Inactive)
REMARK    1  A    between atoms: C_1  and  C_2
REMARK    2  A    between atoms: N_5  and  C_6
REMARK    3  A    between atoms: C_6  and  C_7
REMARK    4  A    between atoms: C_7  and  O_8
REMARK    5  A    between atoms: O_8  and  C_9
REMARK    6  A    between atoms: C_12  and  C_13
REMARK    7  A    between atoms: C_17  and  O_18
REMARK    8  A    between atoms: C_23  and  C_24
REMARK                            x       y       z     vdW  Elec       q    Type
REMARK                         _______ _______ _______ _____ _____    ______ ____
ROOT
ATOM      1  C   UNL     1       2.878   5.350  18.455  0.00  0.00    +0.000 C 
ATOM      2  C   UNL     1       2.590   4.454  19.696  0.00  0.00    +0.000 A 
ATOM      3  C   UNL     1       1.419   4.538  20.471  0.00  0.00    +0.000 A 
ATOM      4  C   UNL     1       1.105   3.535  21.415  0.00  0.00    +0.000 A 
ATOM      5  C   UNL     1       1.930   2.425  21.557  0.00  0.00    +0.000 A 
ATOM      6  C   UNL     1       3.112   2.349  20.855  0.00  0.00    +0.000 A 
ATOM      7  C   UNL     1       3.450   3.370  19.973  0.00  0.00    +0.000 A 
ATOM      8  C   UNL     1       4.789   3.341  19.342  0.00  0.00    +0.000 C 
ATOM      9  C   UNL     1       4.598   3.563  17.846  0.00  0.00    +0.000 C 
ATOM     10  C   UNL     1       4.262   5.054  17.639  0.00  0.00    +0.000 C 
ENDROOT
BRANCH   1  14
ATOM     11  C   UNL     1       1.534   9.438  18.804  0.00  0.00    +0.000 A 
ATOM     12  C   UNL     1       2.001   8.931  17.585  0.00  0.00    +0.000 A 
ATOM     13  C   UNL     1       2.540   7.651  17.498  0.00  0.00    +0.000 A 
ATOM     14  C   UNL     1       2.602   6.835  18.625  0.00  0.00    +0.000 A 
ATOM     15  C   UNL     1       2.234   7.387  19.870  0.00  0.00    +0.000 A 
ATOM     16  C   UNL     1       1.706   8.675  19.958  0.00  0.00    +0.000 A 
BRANCH  11  17
ATOM     17  O   UNL     1       0.846  10.629  18.942  0.00  0.00    +0.000 OA
BRANCH  17  18
ATOM     18  C   UNL     1      -0.387  10.617  18.217  0.00  0.00    +0.000 C 
BRANCH  18  19
ATOM     19  C   UNL     1      -1.458  11.566  18.765  0.00  0.00    +0.000 C 
BRANCH  19  24
ATOM     20  C   UNL     1      -2.862  10.897  15.435  0.00  0.00    +0.000 C 
ATOM     21  C   UNL     1      -3.668  10.192  16.528  0.00  0.00    +0.000 C 
ATOM     22  C   UNL     1      -4.677  11.121  17.183  0.00  0.00    +0.000 C 
ATOM     23  C   UNL     1      -3.836  11.867  18.204  0.00  0.00    +0.000 C 
ATOM     24  N   UNL     1      -2.780  10.928  18.621  0.00  0.00    +0.000 NA
ATOM     25  C   UNL     1      -2.791   9.782  17.709  0.00  0.00    +0.000 C 
ENDBRANCH  19  24
ENDBRANCH  18  19
ENDBRANCH  17  18
ENDBRANCH  11  17
ENDBRANCH   1  14
BRANCH  10  26
ATOM     26  C   UNL     1       5.541   5.919  17.857  0.00  0.00    +0.000 A 
ATOM     27  C   UNL     1       5.821   7.087  17.105  0.00  0.00    +0.000 A 
ATOM     28  C   UNL     1       7.048   7.752  17.179  0.00  0.00    +0.000 A 
ATOM     29  C   UNL     1       8.003   7.329  18.091  0.00  0.00    +0.000 A 
ATOM     30  C   UNL     1       7.691   6.287  18.957  0.00  0.00    +0.000 A 
ATOM     31  C   UNL     1       6.465   5.612  18.864  0.00  0.00    +0.000 A 
ENDBRANCH  10  26
BRANCH   5  32
ATOM     32  O   UNL     1       1.637   1.382  22.376  0.00  0.00    +0.000 OA
ATOM     33  H   UNL     1       1.139   0.725  21.860  0.00  0.00    +0.000 HD
ENDBRANCH   5  32
TORSDOF 7
ENDMDL
MODEL 6
REMARK VINA RESULT:      -8.0      0.689      1.123
REMARK  Name = 
REMARK  8 active torsions:
REMARK  status: ('A' for Active; 'I' for Inactive)
REMARK    1  A    between atoms: C_1  and  C_2
REMARK    2  A    between atoms: N_5  and  C_6
REMARK    3  A    between atoms: C_6  and  C_7
REMARK    4  A    between atoms: C_7  and  O_8
REMARK    5  A    between atoms: O_8  and  C_9
REMARK    6  A    between atoms: C_12  and  C_13
REMARK    7  A    between atoms: C_17  and  O_18
REMARK    8  A    between atoms: C_23  and  C_24
REMARK                            x       y       z     vdW  Elec       q    Type
REMARK                         _______ _______ _______ _____ _____    ______ ____
ROOT
ATOM      1  C   UNL     1      -0.457  10.537  19.833  0.00  0.00    +0.000 C 
ATOM      2  C   UNL     1      -1.606  10.637  18.786  0.00  0.00    +0.000 A 
ATOM      3  C   UNL     1      -2.144   9.532  18.102  0.00  0.00    +0.000 A 
ATOM      4  C   UNL     1      -3.344   9.653  17.368  0.00  0.00    +0.000 A 
ATOM      5  C   UNL     1      -4.034  10.860  17.349  0.00  0.00    +0.000 A 
ATOM      6  C   UNL     1      -3.498  11.971  17.958  0.00  0.00    +0.000 A 
ATOM      7  C   UNL     1      -2.284  11.865  18.628  0.00  0.00    +0.000 A 
ATOM      8  C   UNL     1      -1.655  13.100  19.148  0.00  0.00    +0.000 C 
ATOM      9  C   UNL     1      -1.256  12.839  20.596  0.00  0.00    +0.000 C 
ATOM     10  C   UNL     1      -0.015  11.924  20.576  0.00  0.00    +0.000 C 
ENDROOT
BRANCH   1  14
ATOM     11  C   UNL     1       2.526   7.677  18.583  0.00  0.00    +0.000 A 
ATOM     12  C   UNL     1       2.098   7.741  19.914  0.00  0.00    +0.000 A 
ATOM     13  C   UNL     1       1.223   8.734  20.341  0.00  0.00    +0.000 A 
ATOM     14  C   UNL     1       0.732   9.677  19.440  0.00  0.00    +0.000 A 
ATOM     15  C   UNL     1       1.250   9.677  18.127  0.00  0.00    +0.000 A 
ATOM     16  C   UNL     1       2.138   8.688  17.703  0.00  0.00    +0.000 A 
BRANCH  11  17
ATOM     17  O   UNL     1       3.262   6.637  18.049  0.00  0.00    +0.000 OA
BRANCH  17  18
ATOM     18  C   UNL     1       3.951   5.897  19.061  0.00  0.00    +0.000 C 
BRANCH  18  19
ATOM     19  C   UNL     1       4.738   4.689  18.545  0.00  0.00    +0.000 C 
BRANCH  19  24
ATOM     20  C   UNL     1       1.269   3.902  17.619  0.00  0.00    +0.000 C 
ATOM     21  C   UNL     1       1.953   2.701  18.274  0.00  0.00    +0.000 C 
ATOM     22  C   UNL     1       1.928   2.788  19.792  0.00  0.00    +0.000 C 
ATOM     23  C   UNL     1       3.104   3.698  20.099  0.00  0.00    +0.000 C 
ATOM     24  N   UNL     1       4.091   3.455  19.031  0.00  0.00    +0.000 NA
ATOM     25  C   UNL     1       3.451   2.664  17.978  0.00  0.00    +0.000 C 
ENDBRANCH  19  24
ENDBRANCH  18  19
ENDBRANCH  17  18
ENDBRANCH  11  17
ENDBRANCH   1  14
BRANCH  10  26
ATOM     26  C   UNL     1       1.234  12.735  20.116  0.00  0.00    +0.000 A 
ATOM     27  C   UNL     1       1.616  12.863  18.757  0.00  0.00    +0.000 A 
ATOM     28  C   UNL     1       2.829  13.435  18.369  0.00  0.00    +0.000 A 
ATOM     29  C   UNL     1       3.660  13.997  19.326  0.00  0.00    +0.000 A 
ATOM     30  C   UNL     1       3.234  14.033  20.649  0.00  0.00    +0.000 A 
ATOM     31  C   UNL     1       2.023  13.439  21.035  0.00  0.00    +0.000 A 
ENDBRANCH  10  26
BRANCH   5  32
ATOM     32  O   UNL     1      -5.240  11.017  16.741  0.00  0.00    +0.000 OA
ATOM     33  H   UNL     1      -5.887  11.275  17.420  0.00  0.00    +0.000 HD
ENDBRANCH   5  32
TORSDOF 7
ENDMDL
MODEL 7
REMARK VINA RESULT:      -8.0      5.748     10.385
REMARK  Name = 
REMARK  8 active torsions:
REMARK  status: ('A' for Active; 'I' for Inactive)
REMARK    1  A    between atoms: C_1  and  C_2
REMARK    2  A    between atoms: N_5  and  C_6
REMARK    3  A    between atoms: C_6  and  C_7
REMARK    4  A    between atoms: C_7  and  O_8
REMARK    5  A    between atoms: O_8  and  C_9
REMARK    6  A    between atoms: C_12  and  C_13
REMARK    7  A    between atoms: C_17  and  O_18
REMARK    8  A    between atoms: C_23  and  C_24
REMARK                            x       y       z     vdW  Elec       q    Type
REMARK                         _______ _______ _______ _____ _____    ______ ____
ROOT
ATOM      1  C   UNL     1       6.429   4.969  17.291  0.00  0.00    +0.000 C 
ATOM      2  C   UNL     1       6.436   4.847  15.738  0.00  0.00    +0.000 A 
ATOM      3  C   UNL     1       7.539   5.177  14.930  0.00  0.00    +0.000 A 
ATOM      4  C   UNL     1       7.572   4.804  13.568  0.00  0.00    +0.000 A 
ATOM      5  C   UNL     1       6.530   4.064  13.020  0.00  0.00    +0.000 A 
ATOM      6  C   UNL     1       5.414   3.781  13.773  0.00  0.00    +0.000 A 
ATOM      7  C   UNL     1       5.356   4.205  15.096  0.00  0.00    +0.000 A 
ATOM      8  C   UNL     1       4.090   4.020  15.841  0.00  0.00    +0.000 C 
ATOM      9  C   UNL     1       4.433   3.380  17.181  0.00  0.00    +0.000 C 
ATOM     10  C   UNL     1       5.078   4.468  18.062  0.00  0.00    +0.000 C 
ENDROOT
BRANCH   1  14
ATOM     11  C   UNL     1       8.507   8.512  18.619  0.00  0.00    +0.000 A 
ATOM     12  C   UNL     1       8.568   7.321  19.351  0.00  0.00    +0.000 A 
ATOM     13  C   UNL     1       7.809   6.213  18.987  0.00  0.00    +0.000 A 
ATOM     14  C   UNL     1       6.987   6.262  17.863  0.00  0.00    +0.000 A 
ATOM     15  C   UNL     1       6.844   7.496  17.193  0.00  0.00    +0.000 A 
ATOM     16  C   UNL     1       7.596   8.609  17.568  0.00  0.00    +0.000 A 
BRANCH  11  17
ATOM     17  O   UNL     1       9.341   9.596  18.820  0.00  0.00    +0.000 OA
BRANCH  17  18
ATOM     18  C   UNL     1       9.086  10.645  17.881  0.00  0.00    +0.000 C 
BRANCH  18  19
ATOM     19  C   UNL     1       8.896  12.029  18.508  0.00  0.00    +0.000 C 
BRANCH  19  24
ATOM     20  C   UNL     1      12.333  11.852  19.797  0.00  0.00    +0.000 C 
ATOM     21  C   UNL     1      12.256  12.728  18.545  0.00  0.00    +0.000 C 
ATOM     22  C   UNL     1      11.804  14.144  18.865  0.00  0.00    +0.000 C 
ATOM     23  C   UNL     1      10.294  14.011  18.936  0.00  0.00    +0.000 C 
ATOM     24  N   UNL     1       9.940  12.935  17.992  0.00  0.00    +0.000 NA
ATOM     25  C   UNL     1      11.169  12.253  17.582  0.00  0.00    +0.000 C 
ENDBRANCH  19  24
ENDBRANCH  18  19
ENDBRANCH  17  18
ENDBRANCH  11  17
ENDBRANCH   1  14
BRANCH  10  26
ATOM     26  C   UNL     1       3.989   5.476  18.540  0.00  0.00    +0.000 A 
ATOM     27  C   UNL     1       3.611   6.619  17.792  0.00  0.00    +0.000 A 
ATOM     28  C   UNL     1       2.771   7.609  18.306  0.00  0.00    +0.000 A 
ATOM     29  C   UNL     1       2.193   7.438  19.554  0.00  0.00    +0.000 A 
ATOM     30  C   UNL     1       2.415   6.250  20.242  0.00  0.00    +0.000 A 
ATOM     31  C   UNL     1       3.276   5.268  19.728  0.00  0.00    +0.000 A 
ENDBRANCH  10  26
BRANCH   5  32
ATOM     32  O   UNL     1       6.544   3.593  11.745  0.00  0.00    +0.000 OA
ATOM     33  H   UNL     1       7.464   3.608  11.430  0.00  0.00    +0.000 HD
ENDBRANCH   5  32
TORSDOF 7
ENDMDL
MODEL 8
REMARK VINA RESULT:      -8.0      0.582      1.029
REMARK  Name = 
REMARK  8 active torsions:
REMARK  status: ('A' for Active; 'I' for Inactive)
REMARK    1  A    between atoms: C_1  and  C_2
REMARK    2  A    between atoms: N_5  and  C_6
REMARK    3  A    between atoms: C_6  and  C_7
REMARK    4  A    between atoms: C_7  and  O_8
REMARK    5  A    between atoms: O_8  and  C_9
REMARK    6  A    between atoms: C_12  and  C_13
REMARK    7  A    between atoms: C_17  and  O_18
REMARK    8  A    between atoms: C_23  and  C_24
REMARK                            x       y       z     vdW  Elec       q    Type
REMARK                         _______ _______ _______ _____ _____    ______ ____
ROOT
ATOM      1  C   UNL     1      -0.303  10.494  19.822  0.00  0.00    +0.000 C 
ATOM      2  C   UNL     1      -1.489  10.636  18.822  0.00  0.00    +0.000 A 
ATOM      3  C   UNL     1      -2.054   9.560  18.116  0.00  0.00    +0.000 A 
ATOM      4  C   UNL     1      -3.281   9.711  17.431  0.00  0.00    +0.000 A 
ATOM      5  C   UNL     1      -3.967  10.918  17.485  0.00  0.00    +0.000 A 
ATOM      6  C   UNL     1      -3.407  12.004  18.117  0.00  0.00    +0.000 A 
ATOM      7  C   UNL     1      -2.169  11.871  18.737  0.00  0.00    +0.000 A 
ATOM      8  C   UNL     1      -1.518  13.084  19.282  0.00  0.00    +0.000 C 
ATOM      9  C   UNL     1      -1.068  12.766  20.703  0.00  0.00    +0.000 C 
ATOM     10  C   UNL     1       0.169  11.851  20.602  0.00  0.00    +0.000 C 
ENDROOT
BRANCH   1  14
ATOM     11  C   UNL     1       2.622   7.697  18.321  0.00  0.00    +0.000 A 
ATOM     12  C   UNL     1       2.196   7.653  19.654  0.00  0.00    +0.000 A 
ATOM     13  C   UNL     1       1.341   8.622  20.168  0.00  0.00    +0.000 A 
ATOM     14  C   UNL     1       0.869   9.649  19.353  0.00  0.00    +0.000 A 
ATOM     15  C   UNL     1       1.386   9.753  18.044  0.00  0.00    +0.000 A 
ATOM     16  C   UNL     1       2.254   8.787  17.534  0.00  0.00    +0.000 A 
BRANCH  11  17
ATOM     17  O   UNL     1       3.338   6.693  17.697  0.00  0.00    +0.000 OA
BRANCH  17  18
ATOM     18  C   UNL     1       3.296   5.469  18.437  0.00  0.00    +0.000 C 
BRANCH  18  19
ATOM     19  C   UNL     1       2.397   4.387  17.832  0.00  0.00    +0.000 C 
BRANCH  19  24
ATOM     20  C   UNL     1       2.058   3.864  21.454  0.00  0.00    +0.000 C 
ATOM     21  C   UNL     1       2.298   2.541  20.724  0.00  0.00    +0.000 C 
ATOM     22  C   UNL     1       3.773   2.302  20.443  0.00  0.00    +0.000 C 
ATOM     23  C   UNL     1       4.013   3.110  19.180  0.00  0.00    +0.000 C 
ATOM     24  N   UNL     1       2.739   3.088  18.439  0.00  0.00    +0.000 NA
ATOM     25  C   UNL     1       1.699   2.548  19.318  0.00  0.00    +0.000 C 
ENDBRANCH  19  24
ENDBRANCH  18  19
ENDBRANCH  17  18
ENDBRANCH  11  17
ENDBRANCH   1  14
BRANCH  10  26
ATOM     26  C   UNL     1       1.402  12.678  20.129  0.00  0.00    +0.000 A 
ATOM     27  C   UNL     1       2.328  13.267  21.027  0.00  0.00    +0.000 A 
ATOM     28  C   UNL     1       3.322  14.153  20.607  0.00  0.00    +0.000 A 
ATOM     29  C   UNL     1       3.492  14.401  19.253  0.00  0.00    +0.000 A 
ATOM     30  C   UNL     1       2.705  13.710  18.338  0.00  0.00    +0.000 A 
ATOM     31  C   UNL     1       1.695  12.837  18.769  0.00  0.00    +0.000 A 
ENDBRANCH  10  26
BRANCH   5  32
ATOM     32  O   UNL     1      -5.194  11.100  16.928  0.00  0.00    +0.000 OA
ATOM     33  H   UNL     1      -5.737  10.321  17.136  0.00  0.00    +0.000 HD
ENDBRANCH   5  32
TORSDOF 7
ENDMDL
MODEL 9
REMARK VINA RESULT:      -7.9      1.476      2.322
REMARK  Name = 
REMARK  8 active torsions:
REMARK  status: ('A' for Active; 'I' for Inactive)
REMARK    1  A    between atoms: C_1  and  C_2
REMARK    2  A    between atoms: N_5  and  C_6
REMARK    3  A    between atoms: C_6  and  C_7
REMARK    4  A    between atoms: C_7  and  O_8
REMARK    5  A    between atoms: O_8  and  C_9
REMARK    6  A    between atoms: C_12  and  C_13
REMARK    7  A    between atoms: C_17  and  O_18
REMARK    8  A    between atoms: C_23  and  C_24
REMARK                            x       y       z     vdW  Elec       q    Type
REMARK                         _______ _______ _______ _____ _____    ______ ____
ROOT
ATOM      1  C   UNL     1      -0.391  10.508  19.830  0.00  0.00    +0.000 C 
ATOM      2  C   UNL     1      -1.556  10.650  18.806  0.00  0.00    +0.000 A 
ATOM      3  C   UNL     1      -2.133   9.567  18.119  0.00  0.00    +0.000 A 
ATOM      4  C   UNL     1      -3.344   9.726  17.408  0.00  0.00    +0.000 A 
ATOM      5  C   UNL     1      -4.004  10.950  17.416  0.00  0.00    +0.000 A 
ATOM      6  C   UNL     1      -3.430  12.040  18.029  0.00  0.00    +0.000 A 
ATOM      7  C   UNL     1      -2.206  11.896  18.675  0.00  0.00    +0.000 A 
ATOM      8  C   UNL     1      -1.538  13.109  19.198  0.00  0.00    +0.000 C 
ATOM      9  C   UNL     1      -1.119  12.820  20.635  0.00  0.00    +0.000 C 
ATOM     10  C   UNL     1       0.098  11.875  20.581  0.00  0.00    +0.000 C 
ENDROOT
BRANCH   1  14
ATOM     11  C   UNL     1       2.499   7.585  18.513  0.00  0.00    +0.000 A 
ATOM     12  C   UNL     1       2.126   7.678  19.858  0.00  0.00    +0.000 A 
ATOM     13  C   UNL     1       1.283   8.691  20.303  0.00  0.00    +0.000 A 
ATOM     14  C   UNL     1       0.769   9.625  19.405  0.00  0.00    +0.000 A 
ATOM     15  C   UNL     1       1.233   9.594  18.072  0.00  0.00    +0.000 A 
ATOM     16  C   UNL     1       2.090   8.585  17.631  0.00  0.00    +0.000 A 
BRANCH  11  17
ATOM     17  O   UNL     1       3.199   6.525  17.968  0.00  0.00    +0.000 OA
BRANCH  17  18
ATOM     18  C   UNL     1       3.472   5.511  18.940  0.00  0.00    +0.000 C 
BRANCH  18  19
ATOM     19  C   UNL     1       4.957   5.317  19.260  0.00  0.00    +0.000 C 
BRANCH  19  24
ATOM     20  C   UNL     1       5.452   6.028  15.688  0.00  0.00    +0.000 C 
ATOM     21  C   UNL     1       6.135   4.720  16.092  0.00  0.00    +0.000 C 
ATOM     22  C   UNL     1       5.163   3.551  16.114  0.00  0.00    +0.000 C 
ATOM     23  C   UNL     1       4.496   3.690  17.471  0.00  0.00    +0.000 C 
ATOM     24  N   UNL     1       5.509   4.289  18.359  0.00  0.00    +0.000 NA
ATOM     25  C   UNL     1       6.628   4.756  17.538  0.00  0.00    +0.000 C 
ENDBRANCH  19  24
ENDBRANCH  18  19
ENDBRANCH  17  18
ENDBRANCH  11  17
ENDBRANCH   1  14
BRANCH  10  26
ATOM     26  C   UNL     1       1.358  12.662  20.109  0.00  0.00    +0.000 A 
ATOM     27  C   UNL     1       2.230  13.333  21.002  0.00  0.00    +0.000 A 
ATOM     28  C   UNL     1       3.248  14.182  20.563  0.00  0.00    +0.000 A 
ATOM     29  C   UNL     1       3.497  14.307  19.204  0.00  0.00    +0.000 A 
ATOM     30  C   UNL     1       2.765  13.534  18.311  0.00  0.00    +0.000 A 
ATOM     31  C   UNL     1       1.730  12.698  18.759  0.00  0.00    +0.000 A 
ENDBRANCH  10  26
BRANCH   5  32
ATOM     32  O   UNL     1      -5.216  11.144  16.833  0.00  0.00    +0.000 OA
ATOM     33  H   UNL     1      -5.796  11.576  17.483  0.00  0.00    +0.000 HD
ENDBRANCH   5  32
TORSDOF 7
ENDMDL
