MODEL 1
REMARK VINA RESULT:      -8.1      0.000      0.000
REMARK  Name = 
REMARK  6 active torsions:
REMARK  status: ('A' for Active; 'I' for Inactive)
REMARK    1  A    between atoms: C_1  and  N_2
REMARK    2  A    between atoms: C_10  and  N_11
REMARK    3  A    between atoms: N_11  and  S_12
REMARK    4  A    between atoms: S_12  and  C_15
REMARK    5  A    between atoms: C_20  and  O_21
REMARK    6  A    between atoms: O_21  and  C_22
REMARK                            x       y       z     vdW  Elec       q    Type
REMARK                         _______ _______ _______ _____ _____    ______ ____
ROOT
ATOM      1  N   UNL     1       1.783   8.531  19.414  0.00  0.00    +0.000 N 
ATOM      2  H   UNL     1       2.234   8.989  20.208  0.00  0.00    +0.000 HD
ENDROOT
BRANCH   1  12
ATOM      3  C   UNL     1       5.214   3.737  16.247  0.00  0.00    +0.000 C 
ATOM      4  N   UNL     1       4.257   4.018  17.287  0.00  0.00    +0.000 N 
ATOM      5  C   UNL     1       3.653   3.008  18.071  0.00  0.00    +0.000 C 
ATOM      6  O   UNL     1       3.855   1.805  17.982  0.00  0.00    +0.000 OA
ATOM      7  C   UNL     1       2.781   3.766  18.949  0.00  0.00    +0.000 A 
ATOM      8  C   UNL     1       1.922   3.340  19.959  0.00  0.00    +0.000 A 
ATOM      9  C   UNL     1       1.214   4.338  20.653  0.00  0.00    +0.000 A 
ATOM     10  C   UNL     1       1.357   5.702  20.342  0.00  0.00    +0.000 A 
ATOM     11  C   UNL     1       2.213   6.113  19.300  0.00  0.00    +0.000 A 
ATOM     12  C   UNL     1       2.481   7.419  18.841  0.00  0.00    +0.000 A 
ATOM     13  C   UNL     1       3.411   7.626  17.793  0.00  0.00    +0.000 A 
ATOM     14  C   UNL     1       4.100   6.555  17.173  0.00  0.00    +0.000 A 
ATOM     15  C   UNL     1       3.799   5.287  17.646  0.00  0.00    +0.000 A 
ATOM     16  C   UNL     1       2.890   5.112  18.666  0.00  0.00    +0.000 A 
ENDBRANCH   1  12
BRANCH   1  17
ATOM     17  S   UNL     1       1.169   9.712  18.366  0.00  0.00    +0.000 S 
ATOM     18  O   UNL     1       2.228  10.686  18.203  0.00  0.00    +0.000 OA
ATOM     19  O   UNL     1       0.608   9.052  17.204  0.00  0.00    +0.000 OA
BRANCH  17  20
ATOM     20  C   UNL     1      -0.157  10.521  19.247  0.00  0.00    +0.000 A 
ATOM     21  C   UNL     1      -1.247  10.982  18.489  0.00  0.00    +0.000 A 
ATOM     22  C   UNL     1      -2.254  11.736  19.089  0.00  0.00    +0.000 A 
ATOM     23  C   UNL     1      -2.149  12.082  20.430  0.00  0.00    +0.000 A 
ATOM     24  C   UNL     1      -1.054  11.647  21.182  0.00  0.00    +0.000 A 
ATOM     25  C   UNL     1      -0.074  10.813  20.621  0.00  0.00    +0.000 A 
BRANCH  25  26
ATOM     26  O   UNL     1       0.941  10.256  21.343  0.00  0.00    +0.000 OA
BRANCH  26  27
ATOM     27  C   UNL     1       0.631   9.272  22.326  0.00  0.00    +0.000 C 
ATOM     28  F   UNL     1       0.190   9.807  23.486  0.00  0.00    +0.000 F 
ATOM     29  F   UNL     1      -0.360   8.486  21.850  0.00  0.00    +0.000 F 
ATOM     30  F   UNL     1       1.709   8.500  22.574  0.00  0.00    +0.000 F 
ENDBRANCH  26  27
ENDBRANCH  25  26
ENDBRANCH  17  20
ENDBRANCH   1  17
TORSDOF 5
ENDMDL
MODEL 2
REMARK VINA RESULT:      -8.1      3.495      7.640
REMARK  Name = 
REMARK  6 active torsions:
REMARK  status: ('A' for Active; 'I' for Inactive)
REMARK    1  A    between atoms: C_1  and  N_2
REMARK    2  A    between atoms: C_10  and  N_11
REMARK    3  A    between atoms: N_11  and  S_12
REMARK    4  A    between atoms: S_12  and  C_15
REMARK    5  A    between atoms: C_20  and  O_21
REMARK    6  A    between atoms: O_21  and  C_22
REMARK                            x       y       z     vdW  Elec       q    Type
REMARK                         _______ _______ _______ _____ _____    ______ ____
ROOT
ATOM      1  N   UNL     1       2.894   7.282  19.868  0.00  0.00    +0.000 N 
ATOM      2  H   UNL     1       3.212   7.268  20.837  0.00  0.00    +0.000 HD
ENDROOT
BRANCH   1  12
ATOM      3  C   UNL     1      -1.533  11.831  17.748  0.00  0.00    +0.000 C 
ATOM      4  N   UNL     1      -0.985  11.158  18.899  0.00  0.00    +0.000 N 
ATOM      5  C   UNL     1      -1.397  11.437  20.222  0.00  0.00    +0.000 C 
ATOM      6  O   UNL     1      -2.245  12.251  20.560  0.00  0.00    +0.000 OA
ATOM      7  C   UNL     1      -0.573  10.537  21.008  0.00  0.00    +0.000 A 
ATOM      8  C   UNL     1      -0.515  10.333  22.384  0.00  0.00    +0.000 A 
ATOM      9  C   UNL     1       0.390   9.360  22.844  0.00  0.00    +0.000 A 
ATOM     10  C   UNL     1       1.207   8.630  21.961  0.00  0.00    +0.000 A 
ATOM     11  C   UNL     1       1.152   8.868  20.573  0.00  0.00    +0.000 A 
ATOM     12  C   UNL     1       1.889   8.249  19.542  0.00  0.00    +0.000 A 
ATOM     13  C   UNL     1       1.659   8.609  18.191  0.00  0.00    +0.000 A 
ATOM     14  C   UNL     1       0.700   9.583  17.823  0.00  0.00    +0.000 A 
ATOM     15  C   UNL     1       0.006  10.175  18.868  0.00  0.00    +0.000 A 
ATOM     16  C   UNL     1       0.249   9.809  20.173  0.00  0.00    +0.000 A 
ENDBRANCH   1  12
BRANCH   1  17
ATOM     17  S   UNL     1       2.672   5.690  19.330  0.00  0.00    +0.000 S 
ATOM     18  O   UNL     1       3.031   4.842  20.448  0.00  0.00    +0.000 OA
ATOM     19  O   UNL     1       1.356   5.584  18.734  0.00  0.00    +0.000 OA
BRANCH  17  20
ATOM     20  C   UNL     1       3.891   5.420  18.054  0.00  0.00    +0.000 A 
ATOM     21  C   UNL     1       4.274   6.532  17.283  0.00  0.00    +0.000 A 
ATOM     22  C   UNL     1       5.119   6.372  16.187  0.00  0.00    +0.000 A 
ATOM     23  C   UNL     1       5.541   5.100  15.821  0.00  0.00    +0.000 A 
ATOM     24  C   UNL     1       5.142   3.988  16.570  0.00  0.00    +0.000 A 
ATOM     25  C   UNL     1       4.363   4.135  17.728  0.00  0.00    +0.000 A 
BRANCH  25  26
ATOM     26  O   UNL     1       4.058   3.101  18.565  0.00  0.00    +0.000 OA
BRANCH  26  27
ATOM     27  C   UNL     1       3.103   2.131  18.144  0.00  0.00    +0.000 C 
ATOM     28  F   UNL     1       2.332   2.560  17.119  0.00  0.00    +0.000 F 
ATOM     29  F   UNL     1       3.764   1.035  17.712  0.00  0.00    +0.000 F 
ATOM     30  F   UNL     1       2.311   1.774  19.176  0.00  0.00    +0.000 F 
ENDBRANCH  26  27
ENDBRANCH  25  26
ENDBRANCH  17  20
ENDBRANCH   1  17
TORSDOF 5
ENDMDL
MODEL 3
REMARK VINA RESULT:      -8.0      1.091      1.321
REMARK  Name = 
REMARK  6 active torsions:
REMARK  status: ('A' for Active; 'I' for Inactive)
REMARK    1  A    between atoms: C_1  and  N_2
REMARK    2  A    between atoms: C_10  and  N_11
REMARK    3  A    between atoms: N_11  and  S_12
REMARK    4  A    between atoms: S_12  and  C_15
REMARK    5  A    between atoms: C_20  and  O_21
REMARK    6  A    between atoms: O_21  and  C_22
REMARK                            x       y       z     vdW  Elec       q    Type
REMARK                         _______ _______ _______ _____ _____    ______ ____
ROOT
ATOM      1  N   UNL     1       1.857   8.535  19.397  0.00  0.00    +0.000 N 
ATOM      2  H   UNL     1       2.305   8.950  20.215  0.00  0.00    +0.000 HD
ENDROOT
BRANCH   1  12
ATOM      3  C   UNL     1       5.156   3.711  16.137  0.00  0.00    +0.000 C 
ATOM      4  N   UNL     1       4.223   3.999  17.197  0.00  0.00    +0.000 N 
ATOM      5  C   UNL     1       3.618   2.993  17.985  0.00  0.00    +0.000 C 
ATOM      6  O   UNL     1       3.800   1.789  17.886  0.00  0.00    +0.000 OA
ATOM      7  C   UNL     1       2.774   3.759  18.884  0.00  0.00    +0.000 A 
ATOM      8  C   UNL     1       1.927   3.339  19.907  0.00  0.00    +0.000 A 
ATOM      9  C   UNL     1       1.248   4.343  20.621  0.00  0.00    +0.000 A 
ATOM     10  C   UNL     1       1.406   5.707  20.315  0.00  0.00    +0.000 A 
ATOM     11  C   UNL     1       2.248   6.111  19.260  0.00  0.00    +0.000 A 
ATOM     12  C   UNL     1       2.527   7.417  18.805  0.00  0.00    +0.000 A 
ATOM     13  C   UNL     1       3.441   7.616  17.741  0.00  0.00    +0.000 A 
ATOM     14  C   UNL     1       4.102   6.540  17.102  0.00  0.00    +0.000 A 
ATOM     15  C   UNL     1       3.791   5.273  17.572  0.00  0.00    +0.000 A 
ATOM     16  C   UNL     1       2.898   5.105  18.608  0.00  0.00    +0.000 A 
ENDBRANCH   1  12
BRANCH   1  17
ATOM     17  S   UNL     1       1.311   9.771  18.374  0.00  0.00    +0.000 S 
ATOM     18  O   UNL     1       2.448  10.137  17.555  0.00  0.00    +0.000 OA
ATOM     19  O   UNL     1       0.077   9.340  17.748  0.00  0.00    +0.000 OA
BRANCH  17  20
ATOM     20  C   UNL     1       0.950  11.167  19.426  0.00  0.00    +0.000 A 
ATOM     21  C   UNL     1       1.596  12.380  19.130  0.00  0.00    +0.000 A 
ATOM     22  C   UNL     1       1.465  13.474  19.983  0.00  0.00    +0.000 A 
ATOM     23  C   UNL     1       0.739  13.348  21.160  0.00  0.00    +0.000 A 
ATOM     24  C   UNL     1       0.115  12.136  21.471  0.00  0.00    +0.000 A 
ATOM     25  C   UNL     1       0.160  11.049  20.584  0.00  0.00    +0.000 A 
BRANCH  25  26
ATOM     26  O   UNL     1      -0.538   9.892  20.778  0.00  0.00    +0.000 OA
BRANCH  26  27
ATOM     27  C   UNL     1      -0.320   9.145  21.972  0.00  0.00    +0.000 C 
ATOM     28  F   UNL     1      -1.045   9.599  23.018  0.00  0.00    +0.000 F 
ATOM     29  F   UNL     1      -0.696   7.865  21.753  0.00  0.00    +0.000 F 
ATOM     30  F   UNL     1       0.988   9.157  22.300  0.00  0.00    +0.000 F 
ENDBRANCH  26  27
ENDBRANCH  25  26
ENDBRANCH  17  20
ENDBRANCH   1  17
TORSDOF 5
ENDMDL
MODEL 4
REMARK VINA RESULT:      -7.8      2.095      2.791
REMARK  Name = 
REMARK  6 active torsions:
REMARK  status: ('A' for Active; 'I' for Inactive)
REMARK    1  A    between atoms: C_1  and  N_2
REMARK    2  A    between atoms: C_10  and  N_11
REMARK    3  A    between atoms: N_11  and  S_12
REMARK    4  A    between atoms: S_12  and  C_15
REMARK    5  A    between atoms: C_20  and  O_21
REMARK    6  A    between atoms: O_21  and  C_22
REMARK                            x       y       z     vdW  Elec       q    Type
REMARK                         _______ _______ _______ _____ _____    ______ ____
ROOT
ATOM      1  N   UNL     1       1.861   8.530  19.556  0.00  0.00    +0.000 N 
ATOM      2  H   UNL     1       2.384   8.998  20.297  0.00  0.00    +0.000 HD
ENDROOT
BRANCH   1  12
ATOM      3  C   UNL     1       5.086   3.826  16.056  0.00  0.00    +0.000 C 
ATOM      4  N   UNL     1       4.180   4.076  17.148  0.00  0.00    +0.000 N 
ATOM      5  C   UNL     1       3.597   3.043  17.917  0.00  0.00    +0.000 C 
ATOM      6  O   UNL     1       3.779   1.843  17.773  0.00  0.00    +0.000 OA
ATOM      7  C   UNL     1       2.774   3.776  18.862  0.00  0.00    +0.000 A 
ATOM      8  C   UNL     1       1.955   3.320  19.892  0.00  0.00    +0.000 A 
ATOM      9  C   UNL     1       1.292   4.298  20.655  0.00  0.00    +0.000 A 
ATOM     10  C   UNL     1       1.439   5.672  20.391  0.00  0.00    +0.000 A 
ATOM     11  C   UNL     1       2.254   6.113  19.329  0.00  0.00    +0.000 A 
ATOM     12  C   UNL     1       2.518   7.434  18.910  0.00  0.00    +0.000 A 
ATOM     13  C   UNL     1       3.404   7.671  17.831  0.00  0.00    +0.000 A 
ATOM     14  C   UNL     1       4.051   6.618  17.140  0.00  0.00    +0.000 A 
ATOM     15  C   UNL     1       3.755   5.336  17.576  0.00  0.00    +0.000 A 
ATOM     16  C   UNL     1       2.889   5.131  18.627  0.00  0.00    +0.000 A 
ENDBRANCH   1  12
BRANCH   1  17
ATOM     17  S   UNL     1       1.111   9.696  18.581  0.00  0.00    +0.000 S 
ATOM     18  O   UNL     1       2.176  10.543  18.088  0.00  0.00    +0.000 OA
ATOM     19  O   UNL     1       0.232   9.021  17.648  0.00  0.00    +0.000 OA
BRANCH  17  20
ATOM     20  C   UNL     1       0.112  10.693  19.675  0.00  0.00    +0.000 A 
ATOM     21  C   UNL     1       0.410  10.639  21.048  0.00  0.00    +0.000 A 
ATOM     22  C   UNL     1      -0.408  11.285  21.972  0.00  0.00    +0.000 A 
ATOM     23  C   UNL     1      -1.555  11.939  21.540  0.00  0.00    +0.000 A 
ATOM     24  C   UNL     1      -1.869  11.974  20.177  0.00  0.00    +0.000 A 
ATOM     25  C   UNL     1      -1.014  11.405  19.221  0.00  0.00    +0.000 A 
BRANCH  25  26
ATOM     26  O   UNL     1      -1.206  11.525  17.875  0.00  0.00    +0.000 OA
BRANCH  26  27
ATOM     27  C   UNL     1      -2.406  11.015  17.301  0.00  0.00    +0.000 C 
ATOM     28  F   UNL     1      -3.456  11.854  17.441  0.00  0.00    +0.000 F 
ATOM     29  F   UNL     1      -2.209  10.844  15.974  0.00  0.00    +0.000 F 
ATOM     30  F   UNL     1      -2.716   9.821  17.845  0.00  0.00    +0.000 F 
ENDBRANCH  26  27
ENDBRANCH  25  26
ENDBRANCH  17  20
ENDBRANCH   1  17
TORSDOF 5
ENDMDL
MODEL 5
REMARK VINA RESULT:      -7.7      0.955      1.267
REMARK  Name = 
REMARK  6 active torsions:
REMARK  status: ('A' for Active; 'I' for Inactive)
REMARK    1  A    between atoms: C_1  and  N_2
REMARK    2  A    between atoms: C_10  and  N_11
REMARK    3  A    between atoms: N_11  and  S_12
REMARK    4  A    between atoms: S_12  and  C_15
REMARK    5  A    between atoms: C_20  and  O_21
REMARK    6  A    between atoms: O_21  and  C_22
REMARK                            x       y       z     vdW  Elec       q    Type
REMARK                         _______ _______ _______ _____ _____    ______ ____
ROOT
ATOM      1  N   UNL     1       1.176   9.068  19.839  0.00  0.00    +0.000 N 
ATOM      2  H   UNL     1       1.499   9.352  20.765  0.00  0.00    +0.000 HD
ENDROOT
BRANCH   1  12
ATOM      3  C   UNL     1       5.131   5.267  16.005  0.00  0.00    +0.000 C 
ATOM      4  N   UNL     1       4.284   5.295  17.171  0.00  0.00    +0.000 N 
ATOM      5  C   UNL     1       4.031   4.153  17.966  0.00  0.00    +0.000 C 
ATOM      6  O   UNL     1       4.482   3.032  17.787  0.00  0.00    +0.000 OA
ATOM      7  C   UNL     1       3.138   4.670  18.988  0.00  0.00    +0.000 A 
ATOM      8  C   UNL     1       2.539   4.033  20.072  0.00  0.00    +0.000 A 
ATOM      9  C   UNL     1       1.727   4.824  20.904  0.00  0.00    +0.000 A 
ATOM     10  C   UNL     1       1.520   6.193  20.653  0.00  0.00    +0.000 A 
ATOM     11  C   UNL     1       2.115   6.815  19.538  0.00  0.00    +0.000 A 
ATOM     12  C   UNL     1       2.020   8.160  19.122  0.00  0.00    +0.000 A 
ATOM     13  C   UNL     1       2.731   8.600  17.979  0.00  0.00    +0.000 A 
ATOM     14  C   UNL     1       3.551   7.732  17.219  0.00  0.00    +0.000 A 
ATOM     15  C   UNL     1       3.607   6.416  17.655  0.00  0.00    +0.000 A 
ATOM     16  C   UNL     1       2.906   6.012  18.769  0.00  0.00    +0.000 A 
ENDBRANCH   1  12
BRANCH   1  17
ATOM     17  S   UNL     1       0.584  10.425  19.014  0.00  0.00    +0.000 S 
ATOM     18  O   UNL     1       1.682  11.368  18.966  0.00  0.00    +0.000 OA
ATOM     19  O   UNL     1      -0.043   9.981  17.786  0.00  0.00    +0.000 OA
BRANCH  17  20
ATOM     20  C   UNL     1      -0.674  11.137  20.063  0.00  0.00    +0.000 A 
ATOM     21  C   UNL     1      -1.795  11.702  19.431  0.00  0.00    +0.000 A 
ATOM     22  C   UNL     1      -2.751  12.390  20.175  0.00  0.00    +0.000 A 
ATOM     23  C   UNL     1      -2.565  12.567  21.541  0.00  0.00    +0.000 A 
ATOM     24  C   UNL     1      -1.438  12.028  22.170  0.00  0.00    +0.000 A 
ATOM     25  C   UNL     1      -0.509  11.257  21.455  0.00  0.00    +0.000 A 
BRANCH  25  26
ATOM     26  O   UNL     1       0.534  10.601  22.044  0.00  0.00    +0.000 OA
BRANCH  26  27
ATOM     27  C   UNL     1       0.269   9.425  22.805  0.00  0.00    +0.000 C 
ATOM     28  F   UNL     1      -0.709   8.661  22.271  0.00  0.00    +0.000 F 
ATOM     29  F   UNL     1       1.390   8.672  22.836  0.00  0.00    +0.000 F 
ATOM     30  F   UNL     1      -0.063   9.752  24.070  0.00  0.00    +0.000 F 
ENDBRANCH  26  27
ENDBRANCH  25  26
ENDBRANCH  17  20
ENDBRANCH   1  17
TORSDOF 5
ENDMDL
MODEL 6
REMARK VINA RESULT:      -7.6      3.424      7.804
REMARK  Name = 
REMARK  6 active torsions:
REMARK  status: ('A' for Active; 'I' for Inactive)
REMARK    1  A    between atoms: C_1  and  N_2
REMARK    2  A    between atoms: C_10  and  N_11
REMARK    3  A    between atoms: N_11  and  S_12
REMARK    4  A    between atoms: S_12  and  C_15
REMARK    5  A    between atoms: C_20  and  O_21
REMARK    6  A    between atoms: O_21  and  C_22
REMARK                            x       y       z     vdW  Elec       q    Type
REMARK                         _______ _______ _______ _____ _____    ______ ____
ROOT
ATOM      1  N   UNL     1       2.215   7.385  20.442  0.00  0.00    +0.000 N 
ATOM      2  H   UNL     1       1.810   6.842  21.205  0.00  0.00    +0.000 HD
ENDROOT
BRANCH   1  12
ATOM      3  C   UNL     1      -0.705  12.943  18.124  0.00  0.00    +0.000 C 
ATOM      4  N   UNL     1      -0.540  12.080  19.267  0.00  0.00    +0.000 N 
ATOM      5  C   UNL     1      -1.138  12.341  20.521  0.00  0.00    +0.000 C 
ATOM      6  O   UNL     1      -1.855  13.292  20.797  0.00  0.00    +0.000 OA
ATOM      7  C   UNL     1      -0.682  11.224  21.328  0.00  0.00    +0.000 A 
ATOM      8  C   UNL     1      -0.938  10.908  22.660  0.00  0.00    +0.000 A 
ATOM      9  C   UNL     1      -0.354   9.727  23.155  0.00  0.00    +0.000 A 
ATOM     10  C   UNL     1       0.457   8.906  22.350  0.00  0.00    +0.000 A 
ATOM     11  C   UNL     1       0.724   9.256  21.011  0.00  0.00    +0.000 A 
ATOM     12  C   UNL     1       1.509   8.571  20.060  0.00  0.00    +0.000 A 
ATOM     13  C   UNL     1       1.624   9.075  18.741  0.00  0.00    +0.000 A 
ATOM     14  C   UNL     1       0.972  10.261  18.327  0.00  0.00    +0.000 A 
ATOM     15  C   UNL     1       0.220  10.909  19.295  0.00  0.00    +0.000 A 
ATOM     16  C   UNL     1       0.124  10.400  20.571  0.00  0.00    +0.000 A 
ENDBRANCH   1  12
BRANCH   1  17
ATOM     17  S   UNL     1       2.723   6.331  19.216  0.00  0.00    +0.000 S 
ATOM     18  O   UNL     1       1.672   6.347  18.221  0.00  0.00    +0.000 OA
ATOM     19  O   UNL     1       4.079   6.679  18.841  0.00  0.00    +0.000 OA
BRANCH  17  20
ATOM     20  C   UNL     1       2.740   4.698  19.937  0.00  0.00    +0.000 A 
ATOM     21  C   UNL     1       1.900   4.474  21.042  0.00  0.00    +0.000 A 
ATOM     22  C   UNL     1       1.956   3.267  21.736  0.00  0.00    +0.000 A 
ATOM     23  C   UNL     1       2.887   2.303  21.369  0.00  0.00    +0.000 A 
ATOM     24  C   UNL     1       3.741   2.532  20.285  0.00  0.00    +0.000 A 
ATOM     25  C   UNL     1       3.642   3.703  19.518  0.00  0.00    +0.000 A 
BRANCH  25  26
ATOM     26  O   UNL     1       4.359   3.916  18.377  0.00  0.00    +0.000 OA
BRANCH  26  27
ATOM     27  C   UNL     1       3.919   3.314  17.162  0.00  0.00    +0.000 C 
ATOM     28  F   UNL     1       4.055   1.970  17.161  0.00  0.00    +0.000 F 
ATOM     29  F   UNL     1       2.604   3.582  17.001  0.00  0.00    +0.000 F 
ATOM     30  F   UNL     1       4.593   3.830  16.113  0.00  0.00    +0.000 F 
ENDBRANCH  26  27
ENDBRANCH  25  26
ENDBRANCH  17  20
ENDBRANCH   1  17
TORSDOF 5
ENDMDL
MODEL 7
REMARK VINA RESULT:      -7.6      3.341      7.682
REMARK  Name = 
REMARK  6 active torsions:
REMARK  status: ('A' for Active; 'I' for Inactive)
REMARK    1  A    between atoms: C_1  and  N_2
REMARK    2  A    between atoms: C_10  and  N_11
REMARK    3  A    between atoms: N_11  and  S_12
REMARK    4  A    between atoms: S_12  and  C_15
REMARK    5  A    between atoms: C_20  and  O_21
REMARK    6  A    between atoms: O_21  and  C_22
REMARK                            x       y       z     vdW  Elec       q    Type
REMARK                         _______ _______ _______ _____ _____    ______ ____
ROOT
ATOM      1  N   UNL     1       4.101   4.133  19.151  0.00  0.00    +0.000 N 
ATOM      2  H   UNL     1       4.355   3.414  19.829  0.00  0.00    +0.000 HD
ENDROOT
BRANCH   1  12
ATOM      3  C   UNL     1      -0.305   8.482  21.694  0.00  0.00    +0.000 C 
ATOM      4  N   UNL     1       0.681   8.259  20.667  0.00  0.00    +0.000 N 
ATOM      5  C   UNL     1       0.984   9.215  19.670  0.00  0.00    +0.000 C 
ATOM      6  O   UNL     1       0.477  10.321  19.550  0.00  0.00    +0.000 OA
ATOM      7  C   UNL     1       2.002   8.542  18.884  0.00  0.00    +0.000 A 
ATOM      8  C   UNL     1       2.708   8.970  17.762  0.00  0.00    +0.000 A 
ATOM      9  C   UNL     1       3.658   8.079  17.232  0.00  0.00    +0.000 A 
ATOM     10  C   UNL     1       3.883   6.811  17.800  0.00  0.00    +0.000 A 
ATOM     11  C   UNL     1       3.142   6.386  18.920  0.00  0.00    +0.000 A 
ATOM     12  C   UNL     1       3.220   5.162  19.617  0.00  0.00    +0.000 A 
ATOM     13  C   UNL     1       2.404   4.941  20.754  0.00  0.00    +0.000 A 
ATOM     14  C   UNL     1       1.495   5.915  21.232  0.00  0.00    +0.000 A 
ATOM     15  C   UNL     1       1.441   7.098  20.511  0.00  0.00    +0.000 A 
ATOM     16  C   UNL     1       2.244   7.290  19.409  0.00  0.00    +0.000 A 
ENDBRANCH   1  12
BRANCH   1  17
ATOM     17  S   UNL     1       3.753   3.399  17.664  0.00  0.00    +0.000 S 
ATOM     18  O   UNL     1       4.004   1.986  17.852  0.00  0.00    +0.000 OA
ATOM     19  O   UNL     1       2.448   3.849  17.221  0.00  0.00    +0.000 OA
BRANCH  17  20
ATOM     20  C   UNL     1       4.977   4.001  16.512  0.00  0.00    +0.000 A 
ATOM     21  C   UNL     1       4.603   4.082  15.159  0.00  0.00    +0.000 A 
ATOM     22  C   UNL     1       5.544   4.417  14.187  0.00  0.00    +0.000 A 
ATOM     23  C   UNL     1       6.870   4.617  14.551  0.00  0.00    +0.000 A 
ATOM     24  C   UNL     1       7.251   4.513  15.893  0.00  0.00    +0.000 A 
ATOM     25  C   UNL     1       6.304   4.263  16.898  0.00  0.00    +0.000 A 
BRANCH  25  26
ATOM     26  O   UNL     1       6.600   4.283  18.230  0.00  0.00    +0.000 OA
BRANCH  26  27
ATOM     27  C   UNL     1       7.246   5.429  18.778  0.00  0.00    +0.000 C 
ATOM     28  F   UNL     1       7.162   6.514  17.977  0.00  0.00    +0.000 F 
ATOM     29  F   UNL     1       6.640   5.748  19.944  0.00  0.00    +0.000 F 
ATOM     30  F   UNL     1       8.544   5.161  19.029  0.00  0.00    +0.000 F 
ENDBRANCH  26  27
ENDBRANCH  25  26
ENDBRANCH  17  20
ENDBRANCH   1  17
TORSDOF 5
ENDMDL
MODEL 8
REMARK VINA RESULT:      -7.6      3.472      7.775
REMARK  Name = 
REMARK  6 active torsions:
REMARK  status: ('A' for Active; 'I' for Inactive)
REMARK    1  A    between atoms: C_1  and  N_2
REMARK    2  A    between atoms: C_10  and  N_11
REMARK    3  A    between atoms: N_11  and  S_12
REMARK    4  A    between atoms: S_12  and  C_15
REMARK    5  A    between atoms: C_20  and  O_21
REMARK    6  A    between atoms: O_21  and  C_22
REMARK                            x       y       z     vdW  Elec       q    Type
REMARK                         _______ _______ _______ _____ _____    ______ ____
ROOT
ATOM      1  N   UNL     1       3.339   4.515  18.777  0.00  0.00    +0.000 N 
ATOM      2  H   UNL     1       3.055   4.326  17.815  0.00  0.00    +0.000 HD
ENDROOT
BRANCH   1  12
ATOM      3  C   UNL     1      -0.138   9.027  22.291  0.00  0.00    +0.000 C 
ATOM      4  N   UNL     1       0.623   8.792  21.090  0.00  0.00    +0.000 N 
ATOM      5  C   UNL     1       0.825   9.782  20.100  0.00  0.00    +0.000 C 
ATOM      6  O   UNL     1       0.405  10.930  20.128  0.00  0.00    +0.000 OA
ATOM      7  C   UNL     1       1.622   9.082  19.109  0.00  0.00    +0.000 A 
ATOM      8  C   UNL     1       2.150   9.524  17.898  0.00  0.00    +0.000 A 
ATOM      9  C   UNL     1       2.907   8.595  17.161  0.00  0.00    +0.000 A 
ATOM     10  C   UNL     1       3.118   7.281  17.616  0.00  0.00    +0.000 A 
ATOM     11  C   UNL     1       2.556   6.846  18.833  0.00  0.00    +0.000 A 
ATOM     12  C   UNL     1       2.650   5.579  19.445  0.00  0.00    +0.000 A 
ATOM     13  C   UNL     1       2.036   5.351  20.701  0.00  0.00    +0.000 A 
ATOM     14  C   UNL     1       1.316   6.361  21.384  0.00  0.00    +0.000 A 
ATOM     15  C   UNL     1       1.238   7.588  20.742  0.00  0.00    +0.000 A 
ATOM     16  C   UNL     1       1.844   7.785  19.521  0.00  0.00    +0.000 A 
ENDBRANCH   1  12
BRANCH   1  17
ATOM     17  S   UNL     1       5.030   4.474  18.878  0.00  0.00    +0.000 S 
ATOM     18  O   UNL     1       5.413   5.679  19.584  0.00  0.00    +0.000 OA
ATOM     19  O   UNL     1       5.430   3.178  19.389  0.00  0.00    +0.000 OA
BRANCH  17  20
ATOM     20  C   UNL     1       5.634   4.630  17.205  0.00  0.00    +0.000 A 
ATOM     21  C   UNL     1       4.869   4.037  16.186  0.00  0.00    +0.000 A 
ATOM     22  C   UNL     1       5.344   4.005  14.877  0.00  0.00    +0.000 A 
ATOM     23  C   UNL     1       6.604   4.513  14.588  0.00  0.00    +0.000 A 
ATOM     24  C   UNL     1       7.379   5.082  15.603  0.00  0.00    +0.000 A 
ATOM     25  C   UNL     1       6.885   5.204  16.911  0.00  0.00    +0.000 A 
BRANCH  25  26
ATOM     26  O   UNL     1       7.545   5.866  17.905  0.00  0.00    +0.000 OA
BRANCH  26  27
ATOM     27  C   UNL     1       7.674   7.283  17.823  0.00  0.00    +0.000 C 
ATOM     28  F   UNL     1       8.421   7.803  18.822  0.00  0.00    +0.000 F 
ATOM     29  F   UNL     1       8.294   7.592  16.662  0.00  0.00    +0.000 F 
ATOM     30  F   UNL     1       6.458   7.866  17.827  0.00  0.00    +0.000 F 
ENDBRANCH  26  27
ENDBRANCH  25  26
ENDBRANCH  17  20
ENDBRANCH   1  17
TORSDOF 5
ENDMDL
MODEL 9
REMARK VINA RESULT:      -7.5      0.830      2.360
REMARK  Name = 
REMARK  6 active torsions:
REMARK  status: ('A' for Active; 'I' for Inactive)
REMARK    1  A    between atoms: C_1  and  N_2
REMARK    2  A    between atoms: C_10  and  N_11
REMARK    3  A    between atoms: N_11  and  S_12
REMARK    4  A    between atoms: S_12  and  C_15
REMARK    5  A    between atoms: C_20  and  O_21
REMARK    6  A    between atoms: O_21  and  C_22
REMARK                            x       y       z     vdW  Elec       q    Type
REMARK                         _______ _______ _______ _____ _____    ______ ____
ROOT
ATOM      1  N   UNL     1       1.974   8.788  19.674  0.00  0.00    +0.000 N 
ATOM      2  H   UNL     1       2.831   9.268  19.951  0.00  0.00    +0.000 HD
ENDROOT
BRANCH   1  12
ATOM      3  C   UNL     1       2.004   2.098  19.859  0.00  0.00    +0.000 C 
ATOM      4  N   UNL     1       2.537   3.267  19.206  0.00  0.00    +0.000 N 
ATOM      5  C   UNL     1       3.487   3.200  18.161  0.00  0.00    +0.000 C 
ATOM      6  O   UNL     1       3.965   2.181  17.682  0.00  0.00    +0.000 OA
ATOM      7  C   UNL     1       3.715   4.599  17.848  0.00  0.00    +0.000 A 
ATOM      8  C   UNL     1       4.544   5.189  16.897  0.00  0.00    +0.000 A 
ATOM      9  C   UNL     1       4.528   6.594  16.827  0.00  0.00    +0.000 A 
ATOM     10  C   UNL     1       3.721   7.371  17.679  0.00  0.00    +0.000 A 
ATOM     11  C   UNL     1       2.907   6.756  18.651  0.00  0.00    +0.000 A 
ATOM     12  C   UNL     1       2.045   7.360  19.589  0.00  0.00    +0.000 A 
ATOM     13  C   UNL     1       1.276   6.556  20.466  0.00  0.00    +0.000 A 
ATOM     14  C   UNL     1       1.338   5.141  20.442  0.00  0.00    +0.000 A 
ATOM     15  C   UNL     1       2.207   4.589  19.513  0.00  0.00    +0.000 A 
ATOM     16  C   UNL     1       2.943   5.392  18.671  0.00  0.00    +0.000 A 
ENDBRANCH   1  12
BRANCH   1  17
ATOM     17  S   UNL     1       1.255   9.628  18.390  0.00  0.00    +0.000 S 
ATOM     18  O   UNL     1       2.212  10.641  17.995  0.00  0.00    +0.000 OA
ATOM     19  O   UNL     1       0.778   8.666  17.418  0.00  0.00    +0.000 OA
BRANCH  17  20
ATOM     20  C   UNL     1      -0.156  10.479  19.078  0.00  0.00    +0.000 A 
ATOM     21  C   UNL     1      -1.172  10.867  18.187  0.00  0.00    +0.000 A 
ATOM     22  C   UNL     1      -2.238  11.647  18.630  0.00  0.00    +0.000 A 
ATOM     23  C   UNL     1      -2.266  12.092  19.946  0.00  0.00    +0.000 A 
ATOM     24  C   UNL     1      -1.244  11.730  20.830  0.00  0.00    +0.000 A 
ATOM     25  C   UNL     1      -0.208  10.872  20.428  0.00  0.00    +0.000 A 
BRANCH  25  26
ATOM     26  O   UNL     1       0.737  10.385  21.283  0.00  0.00    +0.000 OA
BRANCH  26  27
ATOM     27  C   UNL     1       0.323   9.588  22.390  0.00  0.00    +0.000 C 
ATOM     28  F   UNL     1      -0.601   8.660  22.055  0.00  0.00    +0.000 F 
ATOM     29  F   UNL     1       1.398   8.924  22.868  0.00  0.00    +0.000 F 
ATOM     30  F   UNL     1      -0.170  10.371  23.372  0.00  0.00    +0.000 F 
ENDBRANCH  26  27
ENDBRANCH  25  26
ENDBRANCH  17  20
ENDBRANCH   1  17
TORSDOF 5
ENDMDL
