MODEL 1
REMARK VINA RESULT:      -8.1      0.000      0.000
REMARK  Name = 
REMARK  8 active torsions:
REMARK  status: ('A' for Active; 'I' for Inactive)
REMARK    1  A    between atoms: O_1  and  C_2
REMARK    2  A    between atoms: C_2  and  C_3
REMARK    3  A    between atoms: C_5  and  N_6
REMARK    4  A    between atoms: N_6  and  C_7
REMARK    5  A    between atoms: N_10  and  C_11
REMARK    6  A    between atoms: C_16  and  C_17
REMARK    7  A    between atoms: C_26  and  O_27
REMARK    8  A    between atoms: C_28  and  O_29
REMARK                            x       y       z     vdW  Elec       q    Type
REMARK                         _______ _______ _______ _____ _____    ______ ____
ROOT
ATOM      1  C   UNL     1       2.945   6.707  19.076  0.00  0.00    +0.000 A 
ATOM      2  N   UNL     1       3.885   6.223  18.222  0.00  0.00    +0.000 NA
ATOM      3  C   UNL     1       4.172   6.908  17.103  0.00  0.00    +0.000 A 
ATOM      4  N   UNL     1       5.137   6.470  16.196  0.00  0.00    +0.000 N 
ATOM      5  N   UNL     1       3.578   8.050  16.767  0.00  0.00    +0.000 NA
ATOM      6  C   UNL     1       2.665   8.518  17.632  0.00  0.00    +0.000 A 
ATOM      7  C   UNL     1       2.302   7.917  18.832  0.00  0.00    +0.000 A 
ATOM      8  H   UNL     1       5.330   7.255  15.583  0.00  0.00    +0.000 HD
ENDROOT
BRANCH   7   9
ATOM      9  C   UNL     1       1.252   8.608  19.590  0.00  0.00    +0.000 A 
ATOM     10  N   UNL     1       0.979   8.265  20.835  0.00  0.00    +0.000 NA
ATOM     11  C   UNL     1       0.241   9.242  21.465  0.00  0.00    +0.000 A 
ATOM     12  C   UNL     1      -0.081   9.265  22.840  0.00  0.00    +0.000 A 
ATOM     13  C   UNL     1      -0.765  10.360  23.367  0.00  0.00    +0.000 A 
ATOM     14  C   UNL     1      -1.165  11.401  22.539  0.00  0.00    +0.000 A 
ATOM     15  C   UNL     1      -0.890  11.381  21.164  0.00  0.00    +0.000 A 
ATOM     16  C   UNL     1      -0.160  10.296  20.650  0.00  0.00    +0.000 A 
ATOM     17  S   UNL     1       0.423  10.010  19.049  0.00  0.00    +0.000 S 
ENDBRANCH   7   9
BRANCH   4  18
ATOM     18  C   UNL     1       6.212   5.589  16.612  0.00  0.00    +0.000 C 
ATOM     19  C   UNL     1       6.124   4.120  16.336  0.00  0.00    +0.000 C 
ATOM     20  C   UNL     1       7.095   4.963  15.568  0.00  0.00    +0.000 C 
ENDBRANCH   4  18
BRANCH   1  21
ATOM     21  N   UNL     1       2.647   5.927  20.219  0.00  0.00    +0.000 N 
ATOM     22  H   UNL     1       3.536   5.630  20.625  0.00  0.00    +0.000 HD
BRANCH  21  25
ATOM     23  C   UNL     1       2.768   2.534  20.187  0.00  0.00    +0.000 C 
ATOM     24  C   UNL     1       2.045   3.636  20.973  0.00  0.00    +0.000 C 
ATOM     25  C   UNL     1       1.732   4.790  19.982  0.00  0.00    +0.000 C 
ATOM     26  C   UNL     1       1.978   4.146  18.593  0.00  0.00    +0.000 C 
ATOM     27  C   UNL     1       3.145   3.191  18.861  0.00  0.00    +0.000 C 
BRANCH  26  28
ATOM     28  O   UNL     1       0.830   3.413  18.130  0.00  0.00    +0.000 OA
ATOM     29  H   UNL     1       0.531   3.784  17.282  0.00  0.00    +0.000 HD
ENDBRANCH  26  28
BRANCH  27  30
ATOM     30  O   UNL     1       3.327   2.206  17.850  0.00  0.00    +0.000 OA
ATOM     31  H   UNL     1       4.202   2.360  17.451  0.00  0.00    +0.000 HD
ENDBRANCH  27  30
BRANCH  23  32
ATOM     32  C   UNL     1       3.980   1.972  20.923  0.00  0.00    +0.000 C 
BRANCH  32  33
ATOM     33  O   UNL     1       5.134   1.989  20.092  0.00  0.00    +0.000 OA
ATOM     34  H   UNL     1       5.915   1.891  20.671  0.00  0.00    +0.000 HD
ENDBRANCH  32  33
ENDBRANCH  23  32
ENDBRANCH  21  25
ENDBRANCH   1  21
TORSDOF 8
ENDMDL
MODEL 2
REMARK VINA RESULT:      -7.8      1.565      6.515
REMARK  Name = 
REMARK  8 active torsions:
REMARK  status: ('A' for Active; 'I' for Inactive)
REMARK    1  A    between atoms: O_1  and  C_2
REMARK    2  A    between atoms: C_2  and  C_3
REMARK    3  A    between atoms: C_5  and  N_6
REMARK    4  A    between atoms: N_6  and  C_7
REMARK    5  A    between atoms: N_10  and  C_11
REMARK    6  A    between atoms: C_16  and  C_17
REMARK    7  A    between atoms: C_26  and  O_27
REMARK    8  A    between atoms: C_28  and  O_29
REMARK                            x       y       z     vdW  Elec       q    Type
REMARK                         _______ _______ _______ _____ _____    ______ ____
ROOT
ATOM      1  C   UNL     1       2.374   6.941  19.921  0.00  0.00    +0.000 A 
ATOM      2  N   UNL     1       1.610   7.774  20.675  0.00  0.00    +0.000 NA
ATOM      3  C   UNL     1       1.140   8.908  20.131  0.00  0.00    +0.000 A 
ATOM      4  N   UNL     1       0.337   9.795  20.849  0.00  0.00    +0.000 N 
ATOM      5  N   UNL     1       1.384   9.279  18.877  0.00  0.00    +0.000 NA
ATOM      6  C   UNL     1       2.128   8.434  18.146  0.00  0.00    +0.000 A 
ATOM      7  C   UNL     1       2.647   7.222  18.586  0.00  0.00    +0.000 A 
ATOM      8  H   UNL     1      -0.071  10.427  20.168  0.00  0.00    +0.000 HD
ENDROOT
BRANCH   7   9
ATOM      9  C   UNL     1       3.459   6.491  17.605  0.00  0.00    +0.000 A 
ATOM     10  N   UNL     1       4.601   6.989  17.166  0.00  0.00    +0.000 NA
ATOM     11  C   UNL     1       5.358   6.017  16.552  0.00  0.00    +0.000 A 
ATOM     12  C   UNL     1       6.692   6.174  16.116  0.00  0.00    +0.000 A 
ATOM     13  C   UNL     1       7.374   5.079  15.584  0.00  0.00    +0.000 A 
ATOM     14  C   UNL     1       6.733   3.855  15.444  0.00  0.00    +0.000 A 
ATOM     15  C   UNL     1       5.397   3.687  15.835  0.00  0.00    +0.000 A 
ATOM     16  C   UNL     1       4.732   4.782  16.412  0.00  0.00    +0.000 A 
ATOM     17  S   UNL     1       3.142   4.888  17.080  0.00  0.00    +0.000 S 
ENDBRANCH   7   9
BRANCH   4  18
ATOM     18  C   UNL     1      -0.443   9.347  21.987  0.00  0.00    +0.000 C 
ATOM     19  C   UNL     1       0.129   9.436  23.368  0.00  0.00    +0.000 C 
ATOM     20  C   UNL     1      -0.975  10.363  22.959  0.00  0.00    +0.000 C 
ENDBRANCH   4  18
BRANCH   1  21
ATOM     21  N   UNL     1       2.882   5.781  20.552  0.00  0.00    +0.000 N 
ATOM     22  H   UNL     1       3.598   5.388  19.939  0.00  0.00    +0.000 HD
BRANCH  21  25
ATOM     23  C   UNL     1       2.667   2.422  21.005  0.00  0.00    +0.000 C 
ATOM     24  C   UNL     1       2.499   3.693  21.848  0.00  0.00    +0.000 C 
ATOM     25  C   UNL     1       1.863   4.779  20.938  0.00  0.00    +0.000 C 
ATOM     26  C   UNL     1       1.371   3.973  19.708  0.00  0.00    +0.000 C 
ATOM     27  C   UNL     1       2.435   2.881  19.567  0.00  0.00    +0.000 C 
BRANCH  26  28
ATOM     28  O   UNL     1       0.079   3.382  19.936  0.00  0.00    +0.000 OA
ATOM     29  H   UNL     1      -0.451   3.972  20.499  0.00  0.00    +0.000 HD
ENDBRANCH  26  28
BRANCH  27  30
ATOM     30  O   UNL     1       2.033   1.785  18.752  0.00  0.00    +0.000 OA
ATOM     31  H   UNL     1       1.680   1.098  19.345  0.00  0.00    +0.000 HD
ENDBRANCH  27  30
BRANCH  23  32
ATOM     32  C   UNL     1       4.026   1.756  21.192  0.00  0.00    +0.000 C 
BRANCH  32  33
ATOM     33  O   UNL     1       4.824   1.887  20.021  0.00  0.00    +0.000 OA
ATOM     34  H   UNL     1       4.521   1.211  19.383  0.00  0.00    +0.000 HD
ENDBRANCH  32  33
ENDBRANCH  23  32
ENDBRANCH  21  25
ENDBRANCH   1  21
TORSDOF 8
ENDMDL
MODEL 3
REMARK VINA RESULT:      -7.7      0.991      1.038
REMARK  Name = 
REMARK  8 active torsions:
REMARK  status: ('A' for Active; 'I' for Inactive)
REMARK    1  A    between atoms: O_1  and  C_2
REMARK    2  A    between atoms: C_2  and  C_3
REMARK    3  A    between atoms: C_5  and  N_6
REMARK    4  A    between atoms: N_6  and  C_7
REMARK    5  A    between atoms: N_10  and  C_11
REMARK    6  A    between atoms: C_16  and  C_17
REMARK    7  A    between atoms: C_26  and  O_27
REMARK    8  A    between atoms: C_28  and  O_29
REMARK                            x       y       z     vdW  Elec       q    Type
REMARK                         _______ _______ _______ _____ _____    ______ ____
ROOT
ATOM      1  C   UNL     1       2.765   6.587  18.653  0.00  0.00    +0.000 A 
ATOM      2  N   UNL     1       3.730   6.137  17.809  0.00  0.00    +0.000 NA
ATOM      3  C   UNL     1       4.254   6.977  16.902  0.00  0.00    +0.000 A 
ATOM      4  N   UNL     1       5.258   6.578  16.019  0.00  0.00    +0.000 N 
ATOM      5  N   UNL     1       3.877   8.246  16.770  0.00  0.00    +0.000 NA
ATOM      6  C   UNL     1       2.934   8.674  17.624  0.00  0.00    +0.000 A 
ATOM      7  C   UNL     1       2.337   7.911  18.621  0.00  0.00    +0.000 A 
ATOM      8  H   UNL     1       5.638   7.428  15.615  0.00  0.00    +0.000 HD
ENDROOT
BRANCH   7   9
ATOM      9  C   UNL     1       1.305   8.598  19.407  0.00  0.00    +0.000 A 
ATOM     10  N   UNL     1       1.048   8.236  20.650  0.00  0.00    +0.000 NA
ATOM     11  C   UNL     1       0.330   9.209  21.308  0.00  0.00    +0.000 A 
ATOM     12  C   UNL     1       0.029   9.212  22.688  0.00  0.00    +0.000 A 
ATOM     13  C   UNL     1      -0.636  10.304  23.245  0.00  0.00    +0.000 A 
ATOM     14  C   UNL     1      -1.039  11.363  22.440  0.00  0.00    +0.000 A 
ATOM     15  C   UNL     1      -0.786  11.363  21.061  0.00  0.00    +0.000 A 
ATOM     16  C   UNL     1      -0.074  10.281  20.517  0.00  0.00    +0.000 A 
ATOM     17  S   UNL     1       0.481  10.017  18.902  0.00  0.00    +0.000 S 
ENDBRANCH   7   9
BRANCH   4  18
ATOM     18  C   UNL     1       6.134   5.465  16.332  0.00  0.00    +0.000 C 
ATOM     19  C   UNL     1       5.795   4.088  15.851  0.00  0.00    +0.000 C 
ATOM     20  C   UNL     1       6.939   4.831  15.232  0.00  0.00    +0.000 C 
ENDBRANCH   4  18
BRANCH   1  21
ATOM     21  N   UNL     1       2.213   5.652  19.561  0.00  0.00    +0.000 N 
ATOM     22  H   UNL     1       2.943   5.414  20.234  0.00  0.00    +0.000 HD
BRANCH  21  25
ATOM     23  C   UNL     1       1.969   2.322  20.180  0.00  0.00    +0.000 C 
ATOM     24  C   UNL     1       1.022   3.521  20.034  0.00  0.00    +0.000 C 
ATOM     25  C   UNL     1       1.611   4.452  18.939  0.00  0.00    +0.000 C 
ATOM     26  C   UNL     1       2.688   3.569  18.258  0.00  0.00    +0.000 C 
ATOM     27  C   UNL     1       3.229   2.732  19.421  0.00  0.00    +0.000 C 
BRANCH  26  28
ATOM     28  O   UNL     1       2.121   2.713  17.250  0.00  0.00    +0.000 OA
ATOM     29  H   UNL     1       2.271   3.105  16.372  0.00  0.00    +0.000 HD
ENDBRANCH  26  28
BRANCH  27  30
ATOM     30  O   UNL     1       3.961   1.582  19.012  0.00  0.00    +0.000 OA
ATOM     31  H   UNL     1       4.907   1.784  19.130  0.00  0.00    +0.000 HD
ENDBRANCH  27  30
BRANCH  23  32
ATOM     32  C   UNL     1       2.256   1.962  21.634  0.00  0.00    +0.000 C 
BRANCH  32  33
ATOM     33  O   UNL     1       2.286   3.126  22.451  0.00  0.00    +0.000 OA
ATOM     34  H   UNL     1       3.206   3.457  22.457  0.00  0.00    +0.000 HD
ENDBRANCH  32  33
ENDBRANCH  23  32
ENDBRANCH  21  25
ENDBRANCH   1  21
TORSDOF 8
ENDMDL
MODEL 4
REMARK VINA RESULT:      -7.7      1.672      6.587
REMARK  Name = 
REMARK  8 active torsions:
REMARK  status: ('A' for Active; 'I' for Inactive)
REMARK    1  A    between atoms: O_1  and  C_2
REMARK    2  A    between atoms: C_2  and  C_3
REMARK    3  A    between atoms: C_5  and  N_6
REMARK    4  A    between atoms: N_6  and  C_7
REMARK    5  A    between atoms: N_10  and  C_11
REMARK    6  A    between atoms: C_16  and  C_17
REMARK    7  A    between atoms: C_26  and  O_27
REMARK    8  A    between atoms: C_28  and  O_29
REMARK                            x       y       z     vdW  Elec       q    Type
REMARK                         _______ _______ _______ _____ _____    ______ ____
ROOT
ATOM      1  C   UNL     1       2.792   6.892  19.540  0.00  0.00    +0.000 A 
ATOM      2  N   UNL     1       1.887   7.764  20.055  0.00  0.00    +0.000 NA
ATOM      3  C   UNL     1       1.548   8.854  19.348  0.00  0.00    +0.000 A 
ATOM      4  N   UNL     1       0.614   9.778  19.817  0.00  0.00    +0.000 N 
ATOM      5  N   UNL     1       2.055   9.143  18.153  0.00  0.00    +0.000 NA
ATOM      6  C   UNL     1       2.935   8.259  17.656  0.00  0.00    +0.000 A 
ATOM      7  C   UNL     1       3.344   7.086  18.277  0.00  0.00    +0.000 A 
ATOM      8  H   UNL     1       0.362  10.359  19.024  0.00  0.00    +0.000 HD
ENDROOT
BRANCH   7   9
ATOM      9  C   UNL     1       4.344   6.300  17.544  0.00  0.00    +0.000 A 
ATOM     10  N   UNL     1       3.976   5.322  16.736  0.00  0.00    +0.000 NA
ATOM     11  C   UNL     1       5.006   4.965  15.894  0.00  0.00    +0.000 A 
ATOM     12  C   UNL     1       4.901   4.069  14.808  0.00  0.00    +0.000 A 
ATOM     13  C   UNL     1       6.005   3.859  13.981  0.00  0.00    +0.000 A 
ATOM     14  C   UNL     1       7.211   4.493  14.249  0.00  0.00    +0.000 A 
ATOM     15  C   UNL     1       7.349   5.356  15.346  0.00  0.00    +0.000 A 
ATOM     16  C   UNL     1       6.220   5.598  16.146  0.00  0.00    +0.000 A 
ATOM     17  S   UNL     1       6.021   6.663  17.492  0.00  0.00    +0.000 S 
ENDBRANCH   7   9
BRANCH   4  18
ATOM     18  C   UNL     1      -0.393   9.400  20.791  0.00  0.00    +0.000 C 
ATOM     19  C   UNL     1      -0.009   9.199  22.224  0.00  0.00    +0.000 C 
ATOM     20  C   UNL     1      -0.820  10.396  21.832  0.00  0.00    +0.000 C 
ENDBRANCH   4  18
BRANCH   1  21
ATOM     21  N   UNL     1       3.150   5.782  20.343  0.00  0.00    +0.000 N 
ATOM     22  H   UNL     1       4.001   5.381  19.946  0.00  0.00    +0.000 HD
BRANCH  21  25
ATOM     23  C   UNL     1       2.873   2.409  20.610  0.00  0.00    +0.000 C 
ATOM     24  C   UNL     1       2.578   3.642  21.473  0.00  0.00    +0.000 C 
ATOM     25  C   UNL     1       2.086   4.770  20.525  0.00  0.00    +0.000 C 
ATOM     26  C   UNL     1       1.787   4.021  19.201  0.00  0.00    +0.000 C 
ATOM     27  C   UNL     1       2.862   2.931  19.175  0.00  0.00    +0.000 C 
BRANCH  26  28
ATOM     28  O   UNL     1       0.476   3.428  19.204  0.00  0.00    +0.000 OA
ATOM     29  H   UNL     1      -0.193   4.124  19.321  0.00  0.00    +0.000 HD
ENDBRANCH  26  28
BRANCH  27  30
ATOM     30  O   UNL     1       2.590   1.874  18.261  0.00  0.00    +0.000 OA
ATOM     31  H   UNL     1       3.244   1.937  17.542  0.00  0.00    +0.000 HD
ENDBRANCH  27  30
BRANCH  23  32
ATOM     32  C   UNL     1       4.190   1.728  20.972  0.00  0.00    +0.000 C 
BRANCH  32  33
ATOM     33  O   UNL     1       5.131   1.841  19.911  0.00  0.00    +0.000 OA
ATOM     34  H   UNL     1       5.887   1.262  20.126  0.00  0.00    +0.000 HD
ENDBRANCH  32  33
ENDBRANCH  23  32
ENDBRANCH  21  25
ENDBRANCH   1  21
TORSDOF 8
ENDMDL
MODEL 5
REMARK VINA RESULT:      -7.4      1.345      2.000
REMARK  Name = 
REMARK  8 active torsions:
REMARK  status: ('A' for Active; 'I' for Inactive)
REMARK    1  A    between atoms: O_1  and  C_2
REMARK    2  A    between atoms: C_2  and  C_3
REMARK    3  A    between atoms: C_5  and  N_6
REMARK    4  A    between atoms: N_6  and  C_7
REMARK    5  A    between atoms: N_10  and  C_11
REMARK    6  A    between atoms: C_16  and  C_17
REMARK    7  A    between atoms: C_26  and  O_27
REMARK    8  A    between atoms: C_28  and  O_29
REMARK                            x       y       z     vdW  Elec       q    Type
REMARK                         _______ _______ _______ _____ _____    ______ ____
ROOT
ATOM      1  C   UNL     1       2.762   6.522  19.688  0.00  0.00    +0.000 A 
ATOM      2  N   UNL     1       3.756   5.889  19.011  0.00  0.00    +0.000 NA
ATOM      3  C   UNL     1       4.226   6.429  17.875  0.00  0.00    +0.000 A 
ATOM      4  N   UNL     1       5.255   5.835  17.144  0.00  0.00    +0.000 N 
ATOM      5  N   UNL     1       3.768   7.566  17.357  0.00  0.00    +0.000 NA
ATOM      6  C   UNL     1       2.798   8.182  18.050  0.00  0.00    +0.000 A 
ATOM      7  C   UNL     1       2.249   7.738  19.248  0.00  0.00    +0.000 A 
ATOM      8  H   UNL     1       5.579   6.535  16.486  0.00  0.00    +0.000 HD
ENDROOT
BRANCH   7   9
ATOM      9  C   UNL     1       1.174   8.574  19.797  0.00  0.00    +0.000 A 
ATOM     10  N   UNL     1       0.716   8.371  21.019  0.00  0.00    +0.000 NA
ATOM     11  C   UNL     1      -0.009   9.456  21.459  0.00  0.00    +0.000 A 
ATOM     12  C   UNL     1      -0.500   9.634  22.770  0.00  0.00    +0.000 A 
ATOM     13  C   UNL     1      -1.150  10.821  23.106  0.00  0.00    +0.000 A 
ATOM     14  C   UNL     1      -1.350  11.805  22.147  0.00  0.00    +0.000 A 
ATOM     15  C   UNL     1      -0.905  11.634  20.828  0.00  0.00    +0.000 A 
ATOM     16  C   UNL     1      -0.211  10.454  20.510  0.00  0.00    +0.000 A 
ATOM     17  S   UNL     1       0.544   9.975  19.032  0.00  0.00    +0.000 S 
ENDBRANCH   7   9
BRANCH   4  18
ATOM     18  C   UNL     1       6.200   4.934  17.776  0.00  0.00    +0.000 C 
ATOM     19  C   UNL     1       7.459   4.549  17.061  0.00  0.00    +0.000 C 
ATOM     20  C   UNL     1       7.526   5.469  18.242  0.00  0.00    +0.000 C 
ENDBRANCH   4  18
BRANCH   1  21
ATOM     21  N   UNL     1       2.271   5.890  20.855  0.00  0.00    +0.000 N 
ATOM     22  H   UNL     1       2.559   6.457  21.654  0.00  0.00    +0.000 HD
BRANCH  21  25
ATOM     23  C   UNL     1       2.181   3.021  19.040  0.00  0.00    +0.000 C 
ATOM     24  C   UNL     1       3.243   3.926  19.679  0.00  0.00    +0.000 C 
ATOM     25  C   UNL     1       2.656   4.469  21.010  0.00  0.00    +0.000 C 
ATOM     26  C   UNL     1       1.415   3.571  21.249  0.00  0.00    +0.000 C 
ATOM     27  C   UNL     1       0.905   3.309  19.829  0.00  0.00    +0.000 C 
BRANCH  26  28
ATOM     28  O   UNL     1       1.765   2.331  21.889  0.00  0.00    +0.000 OA
ATOM     29  H   UNL     1       1.171   2.178  22.643  0.00  0.00    +0.000 HD
ENDBRANCH  26  28
BRANCH  27  30
ATOM     30  O   UNL     1       0.001   2.214  19.733  0.00  0.00    +0.000 OA
ATOM     31  H   UNL     1       0.333   1.513  20.322  0.00  0.00    +0.000 HD
ENDBRANCH  27  30
BRANCH  23  32
ATOM     32  C   UNL     1       2.009   3.265  17.545  0.00  0.00    +0.000 C 
BRANCH  32  33
ATOM     33  O   UNL     1       1.241   4.439  17.305  0.00  0.00    +0.000 OA
ATOM     34  H   UNL     1       0.335   4.268  17.628  0.00  0.00    +0.000 HD
ENDBRANCH  32  33
ENDBRANCH  23  32
ENDBRANCH  21  25
ENDBRANCH   1  21
TORSDOF 8
ENDMDL
MODEL 6
REMARK VINA RESULT:      -7.3      1.691      6.532
REMARK  Name = 
REMARK  8 active torsions:
REMARK  status: ('A' for Active; 'I' for Inactive)
REMARK    1  A    between atoms: O_1  and  C_2
REMARK    2  A    between atoms: C_2  and  C_3
REMARK    3  A    between atoms: C_5  and  N_6
REMARK    4  A    between atoms: N_6  and  C_7
REMARK    5  A    between atoms: N_10  and  C_11
REMARK    6  A    between atoms: C_16  and  C_17
REMARK    7  A    between atoms: C_26  and  O_27
REMARK    8  A    between atoms: C_28  and  O_29
REMARK                            x       y       z     vdW  Elec       q    Type
REMARK                         _______ _______ _______ _____ _____    ______ ____
ROOT
ATOM      1  C   UNL     1       2.754   6.900  19.698  0.00  0.00    +0.000 A 
ATOM      2  N   UNL     1       1.868   7.669  20.384  0.00  0.00    +0.000 NA
ATOM      3  C   UNL     1       1.378   8.779  19.810  0.00  0.00    +0.000 A 
ATOM      4  N   UNL     1       0.455   9.601  20.457  0.00  0.00    +0.000 N 
ATOM      5  N   UNL     1       1.716   9.187  18.589  0.00  0.00    +0.000 NA
ATOM      6  C   UNL     1       2.580   8.404  17.924  0.00  0.00    +0.000 A 
ATOM      7  C   UNL     1       3.133   7.220  18.398  0.00  0.00    +0.000 A 
ATOM      8  H   UNL     1       0.073  10.217  19.747  0.00  0.00    +0.000 HD
ENDROOT
BRANCH   7   9
ATOM      9  C   UNL     1       4.081   6.560  17.492  0.00  0.00    +0.000 A 
ATOM     10  N   UNL     1       4.386   5.284  17.644  0.00  0.00    +0.000 NA
ATOM     11  C   UNL     1       4.987   4.783  16.512  0.00  0.00    +0.000 A 
ATOM     12  C   UNL     1       5.293   3.424  16.281  0.00  0.00    +0.000 A 
ATOM     13  C   UNL     1       5.828   3.039  15.051  0.00  0.00    +0.000 A 
ATOM     14  C   UNL     1       6.098   3.991  14.076  0.00  0.00    +0.000 A 
ATOM     15  C   UNL     1       5.839   5.351  14.298  0.00  0.00    +0.000 A 
ATOM     16  C   UNL     1       5.257   5.724  15.522  0.00  0.00    +0.000 A 
ATOM     17  S   UNL     1       4.728   7.274  16.072  0.00  0.00    +0.000 S 
ENDBRANCH   7   9
BRANCH   4  18
ATOM     18  C   UNL     1      -0.399   9.085  21.510  0.00  0.00    +0.000 C 
ATOM     19  C   UNL     1       0.090   9.059  22.925  0.00  0.00    +0.000 C 
ATOM     20  C   UNL     1      -0.973  10.036  22.523  0.00  0.00    +0.000 C 
ENDBRANCH   4  18
BRANCH   1  21
ATOM     21  N   UNL     1       3.274   5.764  20.363  0.00  0.00    +0.000 N 
ATOM     22  H   UNL     1       4.028   5.390  19.785  0.00  0.00    +0.000 HD
BRANCH  21  25
ATOM     23  C   UNL     1       2.803   2.430  19.922  0.00  0.00    +0.000 C 
ATOM     24  C   UNL     1       2.989   3.404  21.093  0.00  0.00    +0.000 C 
ATOM     25  C   UNL     1       2.275   4.731  20.716  0.00  0.00    +0.000 C 
ATOM     26  C   UNL     1       1.411   4.338  19.491  0.00  0.00    +0.000 C 
ATOM     27  C   UNL     1       2.280   3.298  18.779  0.00  0.00    +0.000 C 
BRANCH  26  28
ATOM     28  O   UNL     1       0.156   3.754  19.883  0.00  0.00    +0.000 OA
ATOM     29  H   UNL     1      -0.412   3.652  19.100  0.00  0.00    +0.000 HD
ENDBRANCH  26  28
BRANCH  27  30
ATOM     30  O   UNL     1       1.573   2.504  17.834  0.00  0.00    +0.000 OA
ATOM     31  H   UNL     1       0.630   2.733  17.911  0.00  0.00    +0.000 HD
ENDBRANCH  27  30
BRANCH  23  32
ATOM     32  C   UNL     1       4.085   1.690  19.552  0.00  0.00    +0.000 C 
BRANCH  32  33
ATOM     33  O   UNL     1       3.883   0.857  18.416  0.00  0.00    +0.000 OA
ATOM     34  H   UNL     1       4.738   0.436  18.205  0.00  0.00    +0.000 HD
ENDBRANCH  32  33
ENDBRANCH  23  32
ENDBRANCH  21  25
ENDBRANCH   1  21
TORSDOF 8
ENDMDL
MODEL 7
REMARK VINA RESULT:      -7.3      1.891      2.729
REMARK  Name = 
REMARK  8 active torsions:
REMARK  status: ('A' for Active; 'I' for Inactive)
REMARK    1  A    between atoms: O_1  and  C_2
REMARK    2  A    between atoms: C_2  and  C_3
REMARK    3  A    between atoms: C_5  and  N_6
REMARK    4  A    between atoms: N_6  and  C_7
REMARK    5  A    between atoms: N_10  and  C_11
REMARK    6  A    between atoms: C_16  and  C_17
REMARK    7  A    between atoms: C_26  and  O_27
REMARK    8  A    between atoms: C_28  and  O_29
REMARK                            x       y       z     vdW  Elec       q    Type
REMARK                         _______ _______ _______ _____ _____    ______ ____
ROOT
ATOM      1  C   UNL     1       3.324   5.412  17.163  0.00  0.00    +0.000 A 
ATOM      2  N   UNL     1       4.136   5.004  16.153  0.00  0.00    +0.000 NA
ATOM      3  C   UNL     1       5.214   5.740  15.838  0.00  0.00    +0.000 A 
ATOM      4  N   UNL     1       6.094   5.366  14.822  0.00  0.00    +0.000 N 
ATOM      5  N   UNL     1       5.541   6.870  16.460  0.00  0.00    +0.000 NA
ATOM      6  C   UNL     1       4.733   7.245  17.464  0.00  0.00    +0.000 A 
ATOM      7  C   UNL     1       3.608   6.556  17.901  0.00  0.00    +0.000 A 
ATOM      8  H   UNL     1       6.925   5.936  14.938  0.00  0.00    +0.000 HD
ENDROOT
BRANCH   7   9
ATOM      9  C   UNL     1       2.869   7.190  19.000  0.00  0.00    +0.000 A 
ATOM     10  N   UNL     1       2.442   8.436  18.899  0.00  0.00    +0.000 NA
ATOM     11  C   UNL     1       1.489   8.709  19.854  0.00  0.00    +0.000 A 
ATOM     12  C   UNL     1       0.716   9.889  19.924  0.00  0.00    +0.000 A 
ATOM     13  C   UNL     1      -0.277  10.003  20.896  0.00  0.00    +0.000 A 
ATOM     14  C   UNL     1      -0.477   8.981  21.816  0.00  0.00    +0.000 A 
ATOM     15  C   UNL     1       0.304   7.818  21.789  0.00  0.00    +0.000 A 
ATOM     16  C   UNL     1       1.271   7.691  20.778  0.00  0.00    +0.000 A 
ATOM     17  S   UNL     1       2.320   6.370  20.404  0.00  0.00    +0.000 S 
ENDBRANCH   7   9
BRANCH   4  18
ATOM     18  C   UNL     1       6.213   3.981  14.405  0.00  0.00    +0.000 C 
ATOM     19  C   UNL     1       5.377   3.466  13.274  0.00  0.00    +0.000 C 
ATOM     20  C   UNL     1       6.850   3.664  13.081  0.00  0.00    +0.000 C 
ENDBRANCH   4  18
BRANCH   1  21
ATOM     21  N   UNL     1       2.177   4.625  17.427  0.00  0.00    +0.000 N 
ATOM     22  H   UNL     1       1.741   4.997  18.273  0.00  0.00    +0.000 HD
BRANCH  21  25
ATOM     23  C   UNL     1       2.267   2.208  19.810  0.00  0.00    +0.000 C 
ATOM     24  C   UNL     1       1.453   2.527  18.549  0.00  0.00    +0.000 C 
ATOM     25  C   UNL     1       2.421   3.169  17.518  0.00  0.00    +0.000 C 
ATOM     26  C   UNL     1       3.824   2.867  18.106  0.00  0.00    +0.000 C 
ATOM     27  C   UNL     1       3.586   2.951  19.616  0.00  0.00    +0.000 C 
BRANCH  26  28
ATOM     28  O   UNL     1       4.285   1.552  17.747  0.00  0.00    +0.000 OA
ATOM     29  H   UNL     1       5.215   1.453  18.012  0.00  0.00    +0.000 HD
ENDBRANCH  26  28
BRANCH  27  30
ATOM     30  O   UNL     1       4.615   2.353  20.397  0.00  0.00    +0.000 OA
ATOM     31  H   UNL     1       5.339   3.001  20.467  0.00  0.00    +0.000 HD
ENDBRANCH  27  30
BRANCH  23  32
ATOM     32  C   UNL     1       1.554   2.611  21.097  0.00  0.00    +0.000 C 
BRANCH  32  33
ATOM     33  O   UNL     1       2.485   2.808  22.155  0.00  0.00    +0.000 OA
ATOM     34  H   UNL     1       2.946   3.653  21.987  0.00  0.00    +0.000 HD
ENDBRANCH  32  33
ENDBRANCH  23  32
ENDBRANCH  21  25
ENDBRANCH   1  21
TORSDOF 8
ENDMDL
MODEL 8
REMARK VINA RESULT:      -7.2      2.306      7.303
REMARK  Name = 
REMARK  8 active torsions:
REMARK  status: ('A' for Active; 'I' for Inactive)
REMARK    1  A    between atoms: O_1  and  C_2
REMARK    2  A    between atoms: C_2  and  C_3
REMARK    3  A    between atoms: C_5  and  N_6
REMARK    4  A    between atoms: N_6  and  C_7
REMARK    5  A    between atoms: N_10  and  C_11
REMARK    6  A    between atoms: C_16  and  C_17
REMARK    7  A    between atoms: C_26  and  O_27
REMARK    8  A    between atoms: C_28  and  O_29
REMARK                            x       y       z     vdW  Elec       q    Type
REMARK                         _______ _______ _______ _____ _____    ______ ____
ROOT
ATOM      1  C   UNL     1       4.229   5.920  18.697  0.00  0.00    +0.000 A 
ATOM      2  N   UNL     1       3.382   6.653  19.464  0.00  0.00    +0.000 NA
ATOM      3  C   UNL     1       2.658   7.631  18.896  0.00  0.00    +0.000 A 
ATOM      4  N   UNL     1       1.760   8.408  19.629  0.00  0.00    +0.000 N 
ATOM      5  N   UNL     1       2.724   7.938  17.603  0.00  0.00    +0.000 NA
ATOM      6  C   UNL     1       3.556   7.191  16.860  0.00  0.00    +0.000 A 
ATOM      7  C   UNL     1       4.333   6.137  17.326  0.00  0.00    +0.000 A 
ATOM      8  H   UNL     1       1.184   8.895  18.950  0.00  0.00    +0.000 HD
ENDROOT
BRANCH   7   9
ATOM      9  C   UNL     1       5.189   5.494  16.321  0.00  0.00    +0.000 A 
ATOM     10  N   UNL     1       4.702   4.576  15.506  0.00  0.00    +0.000 NA
ATOM     11  C   UNL     1       5.545   4.370  14.437  0.00  0.00    +0.000 A 
ATOM     12  C   UNL     1       5.252   3.579  13.305  0.00  0.00    +0.000 A 
ATOM     13  C   UNL     1       6.164   3.523  12.251  0.00  0.00    +0.000 A 
ATOM     14  C   UNL     1       7.370   4.206  12.331  0.00  0.00    +0.000 A 
ATOM     15  C   UNL     1       7.699   4.967  13.462  0.00  0.00    +0.000 A 
ATOM     16  C   UNL     1       6.755   5.056  14.499  0.00  0.00    +0.000 A 
ATOM     17  S   UNL     1       6.799   5.970  15.964  0.00  0.00    +0.000 S 
ENDBRANCH   7   9
BRANCH   4  18
ATOM     18  C   UNL     1       1.177   7.917  20.862  0.00  0.00    +0.000 C 
ATOM     19  C   UNL     1       1.207   8.767  22.095  0.00  0.00    +0.000 C 
ATOM     20  C   UNL     1      -0.089   8.543  21.377  0.00  0.00    +0.000 C 
ENDBRANCH   4  18
BRANCH   1  21
ATOM     21  N   UNL     1       5.002   4.930  19.350  0.00  0.00    +0.000 N 
ATOM     22  H   UNL     1       5.983   5.121  19.140  0.00  0.00    +0.000 HD
BRANCH  21  25
ATOM     23  C   UNL     1       2.354   2.855  19.811  0.00  0.00    +0.000 C 
ATOM     24  C   UNL     1       3.127   3.462  18.633  0.00  0.00    +0.000 C 
ATOM     25  C   UNL     1       4.624   3.534  19.043  0.00  0.00    +0.000 C 
ATOM     26  C   UNL     1       4.693   2.638  20.307  0.00  0.00    +0.000 C 
ATOM     27  C   UNL     1       3.339   2.889  20.977  0.00  0.00    +0.000 C 
BRANCH  26  28
ATOM     28  O   UNL     1       4.833   1.246  19.972  0.00  0.00    +0.000 OA
ATOM     29  H   UNL     1       5.227   0.771  20.724  0.00  0.00    +0.000 HD
ENDBRANCH  26  28
BRANCH  27  30
ATOM     30  O   UNL     1       2.989   1.914  21.953  0.00  0.00    +0.000 OA
ATOM     31  H   UNL     1       3.702   1.901  22.617  0.00  0.00    +0.000 HD
ENDBRANCH  27  30
BRANCH  23  32
ATOM     32  C   UNL     1       1.058   3.599  20.121  0.00  0.00    +0.000 C 
BRANCH  32  33
ATOM     33  O   UNL     1      -0.076   2.821  19.756  0.00  0.00    +0.000 OA
ATOM     34  H   UNL     1      -0.456   2.453  20.578  0.00  0.00    +0.000 HD
ENDBRANCH  32  33
ENDBRANCH  23  32
ENDBRANCH  21  25
ENDBRANCH   1  21
TORSDOF 8
ENDMDL
MODEL 9
REMARK VINA RESULT:      -7.2      2.628      4.367
REMARK  Name = 
REMARK  8 active torsions:
REMARK  status: ('A' for Active; 'I' for Inactive)
REMARK    1  A    between atoms: O_1  and  C_2
REMARK    2  A    between atoms: C_2  and  C_3
REMARK    3  A    between atoms: C_5  and  N_6
REMARK    4  A    between atoms: N_6  and  C_7
REMARK    5  A    between atoms: N_10  and  C_11
REMARK    6  A    between atoms: C_16  and  C_17
REMARK    7  A    between atoms: C_26  and  O_27
REMARK    8  A    between atoms: C_28  and  O_29
REMARK                            x       y       z     vdW  Elec       q    Type
REMARK                         _______ _______ _______ _____ _____    ______ ____
ROOT
ATOM      1  C   UNL     1       2.767   5.936  19.063  0.00  0.00    +0.000 A 
ATOM      2  N   UNL     1       2.840   4.580  19.015  0.00  0.00    +0.000 NA
ATOM      3  C   UNL     1       2.089   3.851  19.856  0.00  0.00    +0.000 A 
ATOM      4  N   UNL     1       2.108   2.456  19.845  0.00  0.00    +0.000 N 
ATOM      5  N   UNL     1       1.266   4.382  20.757  0.00  0.00    +0.000 NA
ATOM      6  C   UNL     1       1.198   5.723  20.775  0.00  0.00    +0.000 A 
ATOM      7  C   UNL     1       1.902   6.582  19.940  0.00  0.00    +0.000 A 
ATOM      8  H   UNL     1       1.306   2.154  20.388  0.00  0.00    +0.000 HD
ENDROOT
BRANCH   7   9
ATOM      9  C   UNL     1       1.681   8.014  20.179  0.00  0.00    +0.000 A 
ATOM     10  N   UNL     1       1.653   8.871  19.175  0.00  0.00    +0.000 NA
ATOM     11  C   UNL     1       1.089  10.065  19.562  0.00  0.00    +0.000 A 
ATOM     12  C   UNL     1       0.763  11.134  18.699  0.00  0.00    +0.000 A 
ATOM     13  C   UNL     1       0.116  12.259  19.212  0.00  0.00    +0.000 A 
ATOM     14  C   UNL     1      -0.168  12.346  20.569  0.00  0.00    +0.000 A 
ATOM     15  C   UNL     1       0.182  11.313  21.451  0.00  0.00    +0.000 A 
ATOM     16  C   UNL     1       0.791  10.165  20.919  0.00  0.00    +0.000 A 
ATOM     17  S   UNL     1       1.255   8.693  21.696  0.00  0.00    +0.000 S 
ENDBRANCH   7   9
BRANCH   4  18
ATOM     18  C   UNL     1       2.504   1.721  18.659  0.00  0.00    +0.000 C 
ATOM     19  C   UNL     1       3.577   2.263  17.766  0.00  0.00    +0.000 C 
ATOM     20  C   UNL     1       3.855   1.063  18.618  0.00  0.00    +0.000 C 
ENDBRANCH   4  18
BRANCH   1  21
ATOM     21  N   UNL     1       3.610   6.659  18.186  0.00  0.00    +0.000 N 
ATOM     22  H   UNL     1       3.019   7.297  17.651  0.00  0.00    +0.000 HD
BRANCH  21  25
ATOM     23  C   UNL     1       6.853   5.666  18.020  0.00  0.00    +0.000 C 
ATOM     24  C   UNL     1       5.474   5.012  18.173  0.00  0.00    +0.000 C 
ATOM     25  C   UNL     1       4.470   5.829  17.314  0.00  0.00    +0.000 C 
ATOM     26  C   UNL     1       5.390   6.708  16.427  0.00  0.00    +0.000 C 
ATOM     27  C   UNL     1       6.571   7.011  17.354  0.00  0.00    +0.000 C 
BRANCH  26  28
ATOM     28  O   UNL     1       5.843   6.001  15.258  0.00  0.00    +0.000 OA
ATOM     29  H   UNL     1       6.718   6.335  14.998  0.00  0.00    +0.000 HD
ENDBRANCH  26  28
BRANCH  27  30
ATOM     30  O   UNL     1       7.729   7.485  16.677  0.00  0.00    +0.000 OA
ATOM     31  H   UNL     1       8.366   7.767  17.356  0.00  0.00    +0.000 HD
ENDBRANCH  27  30
BRANCH  23  32
ATOM     32  C   UNL     1       7.593   5.817  19.345  0.00  0.00    +0.000 C 
BRANCH  32  33
ATOM     33  O   UNL     1       8.527   6.889  19.289  0.00  0.00    +0.000 OA
ATOM     34  H   UNL     1       9.215   6.714  19.960  0.00  0.00    +0.000 HD
ENDBRANCH  32  33
ENDBRANCH  23  32
ENDBRANCH  21  25
ENDBRANCH   1  21
TORSDOF 8
ENDMDL
