MODEL 1
REMARK VINA RESULT:      -7.7      0.000      0.000
REMARK  Name = 
REMARK  12 active torsions:
REMARK  status: ('A' for Active; 'I' for Inactive)
REMARK    1  A    between atoms: C_1  and  C_2
REMARK    2  A    between atoms: C_2  and  N_3
REMARK    3  A    between atoms: N_3  and  C_4
REMARK    4  A    between atoms: N_3  and  C_6
REMARK    5  A    between atoms: C_4  and  C_5
REMARK    6  A    between atoms: C_6  and  C_7
REMARK    7  A    between atoms: C_7  and  N_8
REMARK    8  A    between atoms: N_8  and  C_22
REMARK    9  A    between atoms: C_9  and  C_11
REMARK   10  A    between atoms: C_14  and  N_15
REMARK   11  A    between atoms: N_15  and  S_16
REMARK   12  A    between atoms: S_16  and  C_17
REMARK                            x       y       z     vdW  Elec       q    Type
REMARK                         _______ _______ _______ _____ _____    ______ ____
ROOT
ATOM      1  N   UNL     1       3.631   5.344  18.133  0.00  0.00    +0.000 N 
ATOM      2  C   UNL     1       3.483   6.700  17.879  0.00  0.00    +0.000 C 
ATOM      3  O   UNL     1       4.255   7.234  17.098  0.00  0.00    +0.000 OA
ENDROOT
BRANCH   2   4
ATOM      4  C   UNL     1       2.431   7.620  18.512  0.00  0.00    +0.000 A 
ATOM      5  C   UNL     1       2.058   7.618  19.878  0.00  0.00    +0.000 A 
ATOM      6  C   UNL     1       1.105   8.500  20.381  0.00  0.00    +0.000 A 
ATOM      7  C   UNL     1       0.501   9.440  19.556  0.00  0.00    +0.000 A 
ATOM      8  C   UNL     1       0.855   9.490  18.203  0.00  0.00    +0.000 A 
ATOM      9  C   UNL     1       1.803   8.590  17.687  0.00  0.00    +0.000 A 
BRANCH   7  10
ATOM     10  N   UNL     1      -0.459  10.326  20.105  0.00  0.00    +0.000 N 
ATOM     11  H   UNL     1      -1.435   9.997  20.065  0.00  0.00    +0.000 HD
BRANCH  10  12
ATOM     12  S   UNL     1      -0.138  11.011  21.690  0.00  0.00    +0.000 S 
ATOM     13  C   UNL     1      -0.334   9.919  23.134  0.00  0.00    +0.000 C 
ATOM     14  O   UNL     1       1.239  11.681  21.581  0.00  0.00    +0.000 OA
ATOM     15  O   UNL     1      -1.076  12.226  21.764  0.00  0.00    +0.000 OA
ENDBRANCH  10  12
ENDBRANCH   7  10
ENDBRANCH   2   4
BRANCH   1  16
ATOM     16  C   UNL     1       2.739   4.620  18.961  0.00  0.00    +0.000 A 
ATOM     17  C   UNL     1       1.581   4.043  18.415  0.00  0.00    +0.000 A 
ATOM     18  C   UNL     1       0.680   3.366  19.242  0.00  0.00    +0.000 A 
ATOM     19  C   UNL     1       0.921   3.277  20.618  0.00  0.00    +0.000 A 
ATOM     20  C   UNL     1       2.073   3.847  21.167  0.00  0.00    +0.000 A 
ATOM     21  C   UNL     1       2.990   4.505  20.341  0.00  0.00    +0.000 A 
ENDBRANCH   1  16
BRANCH   1  22
ATOM     22  C   UNL     1       4.768   4.586  17.592  0.00  0.00    +0.000 C 
BRANCH  22  23
ATOM     23  C   UNL     1       6.069   4.749  18.425  0.00  0.00    +0.000 C 
BRANCH  23  24
ATOM     24  N   UNL     1       7.202   5.399  17.709  0.00  0.00    +0.000 NA
BRANCH  24  26
ATOM     25  C   UNL     1       7.136   4.406  15.371  0.00  0.00    +0.000 C 
ATOM     26  C   UNL     1       6.890   5.622  16.272  0.00  0.00    +0.000 C 
ENDBRANCH  24  26
BRANCH  24  27
ATOM     27  C   UNL     1       7.636   6.639  18.420  0.00  0.00    +0.000 C 
ATOM     28  C   UNL     1       7.688   7.901  17.538  0.00  0.00    +0.000 C 
ENDBRANCH  24  27
ENDBRANCH  23  24
ENDBRANCH  22  23
ENDBRANCH   1  22
TORSDOF 9
ENDMDL
MODEL 2
REMARK VINA RESULT:      -7.7      0.906      1.686
REMARK  Name = 
REMARK  12 active torsions:
REMARK  status: ('A' for Active; 'I' for Inactive)
REMARK    1  A    between atoms: C_1  and  C_2
REMARK    2  A    between atoms: C_2  and  N_3
REMARK    3  A    between atoms: N_3  and  C_4
REMARK    4  A    between atoms: N_3  and  C_6
REMARK    5  A    between atoms: C_4  and  C_5
REMARK    6  A    between atoms: C_6  and  C_7
REMARK    7  A    between atoms: C_7  and  N_8
REMARK    8  A    between atoms: N_8  and  C_22
REMARK    9  A    between atoms: C_9  and  C_11
REMARK   10  A    between atoms: C_14  and  N_15
REMARK   11  A    between atoms: N_15  and  S_16
REMARK   12  A    between atoms: S_16  and  C_17
REMARK                            x       y       z     vdW  Elec       q    Type
REMARK                         _______ _______ _______ _____ _____    ______ ____
ROOT
ATOM      1  N   UNL     1       3.472   5.167  18.109  0.00  0.00    +0.000 N 
ATOM      2  C   UNL     1       3.362   6.529  17.869  0.00  0.00    +0.000 C 
ATOM      3  O   UNL     1       4.061   7.025  16.999  0.00  0.00    +0.000 OA
ENDROOT
BRANCH   2   4
ATOM      4  C   UNL     1       2.440   7.498  18.619  0.00  0.00    +0.000 A 
ATOM      5  C   UNL     1       2.156   7.450  20.005  0.00  0.00    +0.000 A 
ATOM      6  C   UNL     1       1.321   8.381  20.618  0.00  0.00    +0.000 A 
ATOM      7  C   UNL     1       0.754   9.417  19.886  0.00  0.00    +0.000 A 
ATOM      8  C   UNL     1       1.025   9.514  18.517  0.00  0.00    +0.000 A 
ATOM      9  C   UNL     1       1.853   8.567  17.891  0.00  0.00    +0.000 A 
BRANCH   7  10
ATOM     10  N   UNL     1      -0.085  10.351  20.545  0.00  0.00    +0.000 N 
ATOM     11  H   UNL     1      -0.376  10.085  21.496  0.00  0.00    +0.000 HD
BRANCH  10  12
ATOM     12  S   UNL     1       0.393  12.041  20.531  0.00  0.00    +0.000 S 
ATOM     13  C   UNL     1       0.311  12.925  18.941  0.00  0.00    +0.000 C 
ATOM     14  O   UNL     1      -0.394  12.704  21.669  0.00  0.00    +0.000 OA
ATOM     15  O   UNL     1       1.820  12.026  21.100  0.00  0.00    +0.000 OA
ENDBRANCH  10  12
ENDBRANCH   7  10
ENDBRANCH   2   4
BRANCH   1  16
ATOM     16  C   UNL     1       2.650   4.486  19.041  0.00  0.00    +0.000 A 
ATOM     17  C   UNL     1       3.080   4.314  20.367  0.00  0.00    +0.000 A 
ATOM     18  C   UNL     1       2.288   3.604  21.272  0.00  0.00    +0.000 A 
ATOM     19  C   UNL     1       1.072   3.050  20.857  0.00  0.00    +0.000 A 
ATOM     20  C   UNL     1       0.636   3.221  19.540  0.00  0.00    +0.000 A 
ATOM     21  C   UNL     1       1.414   3.950  18.635  0.00  0.00    +0.000 A 
ENDBRANCH   1  16
BRANCH   1  22
ATOM     22  C   UNL     1       4.497   4.354  17.439  0.00  0.00    +0.000 C 
BRANCH  22  23
ATOM     23  C   UNL     1       5.921   4.554  18.025  0.00  0.00    +0.000 C 
BRANCH  23  24
ATOM     24  N   UNL     1       7.008   4.692  17.016  0.00  0.00    +0.000 NA
BRANCH  24  26
ATOM     25  C   UNL     1       6.938   4.899  14.484  0.00  0.00    +0.000 C 
ATOM     26  C   UNL     1       6.646   4.047  15.725  0.00  0.00    +0.000 C 
ENDBRANCH  24  26
BRANCH  24  27
ATOM     27  C   UNL     1       7.415   6.122  16.869  0.00  0.00    +0.000 C 
ATOM     28  C   UNL     1       7.609   6.875  18.199  0.00  0.00    +0.000 C 
ENDBRANCH  24  27
ENDBRANCH  23  24
ENDBRANCH  22  23
ENDBRANCH   1  22
TORSDOF 9
ENDMDL
MODEL 3
REMARK VINA RESULT:      -7.6      0.962      1.133
REMARK  Name = 
REMARK  12 active torsions:
REMARK  status: ('A' for Active; 'I' for Inactive)
REMARK    1  A    between atoms: C_1  and  C_2
REMARK    2  A    between atoms: C_2  and  N_3
REMARK    3  A    between atoms: N_3  and  C_4
REMARK    4  A    between atoms: N_3  and  C_6
REMARK    5  A    between atoms: C_4  and  C_5
REMARK    6  A    between atoms: C_6  and  C_7
REMARK    7  A    between atoms: C_7  and  N_8
REMARK    8  A    between atoms: N_8  and  C_22
REMARK    9  A    between atoms: C_9  and  C_11
REMARK   10  A    between atoms: C_14  and  N_15
REMARK   11  A    between atoms: N_15  and  S_16
REMARK   12  A    between atoms: S_16  and  C_17
REMARK                            x       y       z     vdW  Elec       q    Type
REMARK                         _______ _______ _______ _____ _____    ______ ____
ROOT
ATOM      1  N   UNL     1       3.491   5.348  18.097  0.00  0.00    +0.000 N 
ATOM      2  C   UNL     1       3.351   6.716  17.910  0.00  0.00    +0.000 C 
ATOM      3  O   UNL     1       4.049   7.263  17.071  0.00  0.00    +0.000 OA
ENDROOT
BRANCH   2   4
ATOM      4  C   UNL     1       2.397   7.632  18.686  0.00  0.00    +0.000 A 
ATOM      5  C   UNL     1       2.090   7.516  20.064  0.00  0.00    +0.000 A 
ATOM      6  C   UNL     1       1.226   8.402  20.702  0.00  0.00    +0.000 A 
ATOM      7  C   UNL     1       0.649   9.457  20.006  0.00  0.00    +0.000 A 
ATOM      8  C   UNL     1       0.940   9.620  18.647  0.00  0.00    +0.000 A 
ATOM      9  C   UNL     1       1.798   8.719  17.995  0.00  0.00    +0.000 A 
BRANCH   7  10
ATOM     10  N   UNL     1      -0.220  10.343  20.690  0.00  0.00    +0.000 N 
ATOM     11  H   UNL     1      -0.336  10.156  21.697  0.00  0.00    +0.000 HD
BRANCH  10  12
ATOM     12  S   UNL     1      -0.005  12.068  20.438  0.00  0.00    +0.000 S 
ATOM     13  C   UNL     1       1.697  12.716  20.465  0.00  0.00    +0.000 C 
ATOM     14  O   UNL     1      -0.793  12.403  19.164  0.00  0.00    +0.000 OA
ATOM     15  O   UNL     1      -0.875  12.712  21.527  0.00  0.00    +0.000 OA
ENDBRANCH  10  12
ENDBRANCH   7  10
ENDBRANCH   2   4
BRANCH   1  16
ATOM     16  C   UNL     1       2.674   4.611  18.989  0.00  0.00    +0.000 A 
ATOM     17  C   UNL     1       1.486   4.017  18.531  0.00  0.00    +0.000 A 
ATOM     18  C   UNL     1       0.660   3.328  19.422  0.00  0.00    +0.000 A 
ATOM     19  C   UNL     1       1.004   3.242  20.775  0.00  0.00    +0.000 A 
ATOM     20  C   UNL     1       2.187   3.828  21.237  0.00  0.00    +0.000 A 
ATOM     21  C   UNL     1       3.029   4.499  20.346  0.00  0.00    +0.000 A 
ENDBRANCH   1  16
BRANCH   1  22
ATOM     22  C   UNL     1       4.544   4.588  17.409  0.00  0.00    +0.000 C 
BRANCH  22  23
ATOM     23  C   UNL     1       5.890   4.561  18.184  0.00  0.00    +0.000 C 
BRANCH  23  24
ATOM     24  N   UNL     1       7.036   5.207  17.486  0.00  0.00    +0.000 NA
BRANCH  24  26
ATOM     25  C   UNL     1       7.133   4.610  15.017  0.00  0.00    +0.000 C 
ATOM     26  C   UNL     1       6.682   5.602  16.095  0.00  0.00    +0.000 C 
ENDBRANCH  24  26
BRANCH  24  27
ATOM     27  C   UNL     1       7.585   6.333  18.299  0.00  0.00    +0.000 C 
ATOM     28  C   UNL     1       7.633   7.690  17.570  0.00  0.00    +0.000 C 
ENDBRANCH  24  27
ENDBRANCH  23  24
ENDBRANCH  22  23
ENDBRANCH   1  22
TORSDOF 9
ENDMDL
MODEL 4
REMARK VINA RESULT:      -7.5      0.971      1.876
REMARK  Name = 
REMARK  12 active torsions:
REMARK  status: ('A' for Active; 'I' for Inactive)
REMARK    1  A    between atoms: C_1  and  C_2
REMARK    2  A    between atoms: C_2  and  N_3
REMARK    3  A    between atoms: N_3  and  C_4
REMARK    4  A    between atoms: N_3  and  C_6
REMARK    5  A    between atoms: C_4  and  C_5
REMARK    6  A    between atoms: C_6  and  C_7
REMARK    7  A    between atoms: C_7  and  N_8
REMARK    8  A    between atoms: N_8  and  C_22
REMARK    9  A    between atoms: C_9  and  C_11
REMARK   10  A    between atoms: C_14  and  N_15
REMARK   11  A    between atoms: N_15  and  S_16
REMARK   12  A    between atoms: S_16  and  C_17
REMARK                            x       y       z     vdW  Elec       q    Type
REMARK                         _______ _______ _______ _____ _____    ______ ____
ROOT
ATOM      1  N   UNL     1       3.357   5.193  17.989  0.00  0.00    +0.000 N 
ATOM      2  C   UNL     1       3.212   6.566  17.852  0.00  0.00    +0.000 C 
ATOM      3  O   UNL     1       3.811   7.127  16.948  0.00  0.00    +0.000 OA
ENDROOT
BRANCH   2   4
ATOM      4  C   UNL     1       2.369   7.471  18.758  0.00  0.00    +0.000 A 
ATOM      5  C   UNL     1       2.152   7.270  20.143  0.00  0.00    +0.000 A 
ATOM      6  C   UNL     1       1.387   8.151  20.903  0.00  0.00    +0.000 A 
ATOM      7  C   UNL     1       0.825   9.283  20.327  0.00  0.00    +0.000 A 
ATOM      8  C   UNL     1       1.030   9.531  18.965  0.00  0.00    +0.000 A 
ATOM      9  C   UNL     1       1.788   8.636  18.190  0.00  0.00    +0.000 A 
BRANCH   7  10
ATOM     10  N   UNL     1       0.058  10.161  21.133  0.00  0.00    +0.000 N 
ATOM     11  H   UNL     1       0.053   9.943  22.140  0.00  0.00    +0.000 HD
BRANCH  10  12
ATOM     12  S   UNL     1       0.281  11.890  20.912  0.00  0.00    +0.000 S 
ATOM     13  C   UNL     1      -0.430  12.645  19.415  0.00  0.00    +0.000 C 
ATOM     14  O   UNL     1      -0.171  12.538  22.228  0.00  0.00    +0.000 OA
ATOM     15  O   UNL     1       1.804  12.077  20.974  0.00  0.00    +0.000 OA
ENDBRANCH  10  12
ENDBRANCH   7  10
ENDBRANCH   2   4
BRANCH   1  16
ATOM     16  C   UNL     1       2.644   4.441  18.955  0.00  0.00    +0.000 A 
ATOM     17  C   UNL     1       1.370   3.932  18.653  0.00  0.00    +0.000 A 
ATOM     18  C   UNL     1       0.651   3.229  19.623  0.00  0.00    +0.000 A 
ATOM     19  C   UNL     1       1.189   3.045  20.901  0.00  0.00    +0.000 A 
ATOM     20  C   UNL     1       2.458   3.547  21.207  0.00  0.00    +0.000 A 
ATOM     21  C   UNL     1       3.193   4.231  20.234  0.00  0.00    +0.000 A 
ENDBRANCH   1  16
BRANCH   1  22
ATOM     22  C   UNL     1       4.311   4.440  17.162  0.00  0.00    +0.000 C 
BRANCH  22  23
ATOM     23  C   UNL     1       5.790   4.637  17.594  0.00  0.00    +0.000 C 
BRANCH  23  24
ATOM     24  N   UNL     1       6.591   5.538  16.718  0.00  0.00    +0.000 NA
BRANCH  24  26
ATOM     25  C   UNL     1       7.735   5.967  18.946  0.00  0.00    +0.000 C 
ATOM     26  C   UNL     1       7.469   6.440  17.513  0.00  0.00    +0.000 C 
ENDBRANCH  24  26
BRANCH  24  27
ATOM     27  C   UNL     1       7.330   4.752  15.685  0.00  0.00    +0.000 C 
ATOM     28  C   UNL     1       6.512   4.422  14.422  0.00  0.00    +0.000 C 
ENDBRANCH  24  27
ENDBRANCH  23  24
ENDBRANCH  22  23
ENDBRANCH   1  22
TORSDOF 9
ENDMDL
MODEL 5
REMARK VINA RESULT:      -7.5      1.375      2.009
REMARK  Name = 
REMARK  12 active torsions:
REMARK  status: ('A' for Active; 'I' for Inactive)
REMARK    1  A    between atoms: C_1  and  C_2
REMARK    2  A    between atoms: C_2  and  N_3
REMARK    3  A    between atoms: N_3  and  C_4
REMARK    4  A    between atoms: N_3  and  C_6
REMARK    5  A    between atoms: C_4  and  C_5
REMARK    6  A    between atoms: C_6  and  C_7
REMARK    7  A    between atoms: C_7  and  N_8
REMARK    8  A    between atoms: N_8  and  C_22
REMARK    9  A    between atoms: C_9  and  C_11
REMARK   10  A    between atoms: C_14  and  N_15
REMARK   11  A    between atoms: N_15  and  S_16
REMARK   12  A    between atoms: S_16  and  C_17
REMARK                            x       y       z     vdW  Elec       q    Type
REMARK                         _______ _______ _______ _____ _____    ______ ____
ROOT
ATOM      1  N   UNL     1       3.738   5.217  18.497  0.00  0.00    +0.000 N 
ATOM      2  C   UNL     1       3.640   6.562  18.173  0.00  0.00    +0.000 C 
ATOM      3  O   UNL     1       4.479   7.044  17.429  0.00  0.00    +0.000 OA
ENDROOT
BRANCH   2   4
ATOM      4  C   UNL     1       2.566   7.530  18.684  0.00  0.00    +0.000 A 
ATOM      5  C   UNL     1       2.102   7.607  20.020  0.00  0.00    +0.000 A 
ATOM      6  C   UNL     1       1.135   8.529  20.411  0.00  0.00    +0.000 A 
ATOM      7  C   UNL     1       0.605   9.433  19.499  0.00  0.00    +0.000 A 
ATOM      8  C   UNL     1       1.049   9.405  18.172  0.00  0.00    +0.000 A 
ATOM      9  C   UNL     1       2.012   8.465  17.769  0.00  0.00    +0.000 A 
BRANCH   7  10
ATOM     10  N   UNL     1      -0.373  10.362  19.934  0.00  0.00    +0.000 N 
ATOM     11  H   UNL     1      -0.734  10.207  20.887  0.00  0.00    +0.000 HD
BRANCH  10  12
ATOM     12  S   UNL     1      -0.044  12.072  19.706  0.00  0.00    +0.000 S 
ATOM     13  C   UNL     1       1.689  12.619  19.822  0.00  0.00    +0.000 C 
ATOM     14  O   UNL     1      -0.746  12.459  18.397  0.00  0.00    +0.000 OA
ATOM     15  O   UNL     1      -0.929  12.762  20.755  0.00  0.00    +0.000 OA
ENDBRANCH  10  12
ENDBRANCH   7  10
ENDBRANCH   2   4
BRANCH   1  16
ATOM     16  C   UNL     1       2.771   4.549  19.288  0.00  0.00    +0.000 A 
ATOM     17  C   UNL     1       2.984   4.375  20.665  0.00  0.00    +0.000 A 
ATOM     18  C   UNL     1       2.050   3.678  21.435  0.00  0.00    +0.000 A 
ATOM     19  C   UNL     1       0.908   3.137  20.834  0.00  0.00    +0.000 A 
ATOM     20  C   UNL     1       0.688   3.309  19.464  0.00  0.00    +0.000 A 
ATOM     21  C   UNL     1       1.608   4.026  18.692  0.00  0.00    +0.000 A 
ENDBRANCH   1  16
BRANCH   1  22
ATOM     22  C   UNL     1       4.894   4.413  18.076  0.00  0.00    +0.000 C 
BRANCH  22  23
ATOM     23  C   UNL     1       4.719   3.771  16.673  0.00  0.00    +0.000 C 
BRANCH  23  24
ATOM     24  N   UNL     1       5.919   3.835  15.792  0.00  0.00    +0.000 NA
BRANCH  24  26
ATOM     25  C   UNL     1       6.097   3.701  13.261  0.00  0.00    +0.000 C 
ATOM     26  C   UNL     1       5.610   4.480  14.488  0.00  0.00    +0.000 C 
ENDBRANCH  24  26
BRANCH  24  27
ATOM     27  C   UNL     1       7.068   4.466  16.508  0.00  0.00    +0.000 C 
ATOM     28  C   UNL     1       7.322   5.941  16.141  0.00  0.00    +0.000 C 
ENDBRANCH  24  27
ENDBRANCH  23  24
ENDBRANCH  22  23
ENDBRANCH   1  22
TORSDOF 9
ENDMDL
MODEL 6
REMARK VINA RESULT:      -7.5      1.238      1.679
REMARK  Name = 
REMARK  12 active torsions:
REMARK  status: ('A' for Active; 'I' for Inactive)
REMARK    1  A    between atoms: C_1  and  C_2
REMARK    2  A    between atoms: C_2  and  N_3
REMARK    3  A    between atoms: N_3  and  C_4
REMARK    4  A    between atoms: N_3  and  C_6
REMARK    5  A    between atoms: C_4  and  C_5
REMARK    6  A    between atoms: C_6  and  C_7
REMARK    7  A    between atoms: C_7  and  N_8
REMARK    8  A    between atoms: N_8  and  C_22
REMARK    9  A    between atoms: C_9  and  C_11
REMARK   10  A    between atoms: C_14  and  N_15
REMARK   11  A    between atoms: N_15  and  S_16
REMARK   12  A    between atoms: S_16  and  C_17
REMARK                            x       y       z     vdW  Elec       q    Type
REMARK                         _______ _______ _______ _____ _____    ______ ____
ROOT
ATOM      1  N   UNL     1       3.791   5.146  18.457  0.00  0.00    +0.000 N 
ATOM      2  C   UNL     1       3.695   6.497  18.159  0.00  0.00    +0.000 C 
ATOM      3  O   UNL     1       4.549   6.997  17.443  0.00  0.00    +0.000 OA
ENDROOT
BRANCH   2   4
ATOM      4  C   UNL     1       2.607   7.451  18.666  0.00  0.00    +0.000 A 
ATOM      5  C   UNL     1       2.105   7.490  19.990  0.00  0.00    +0.000 A 
ATOM      6  C   UNL     1       1.127   8.401  20.379  0.00  0.00    +0.000 A 
ATOM      7  C   UNL     1       0.625   9.332  19.479  0.00  0.00    +0.000 A 
ATOM      8  C   UNL     1       1.108   9.343  18.166  0.00  0.00    +0.000 A 
ATOM      9  C   UNL     1       2.082   8.414  17.763  0.00  0.00    +0.000 A 
BRANCH   7  10
ATOM     10  N   UNL     1      -0.364  10.250  19.912  0.00  0.00    +0.000 N 
ATOM     11  H   UNL     1      -1.136   9.840  20.458  0.00  0.00    +0.000 HD
BRANCH  10  12
ATOM     12  S   UNL     1       0.170  11.735  20.683  0.00  0.00    +0.000 S 
ATOM     13  C   UNL     1       1.616  12.581  19.969  0.00  0.00    +0.000 C 
ATOM     14  O   UNL     1      -1.084  12.613  20.807  0.00  0.00    +0.000 OA
ATOM     15  O   UNL     1       0.415  11.326  22.144  0.00  0.00    +0.000 OA
ENDBRANCH  10  12
ENDBRANCH   7  10
ENDBRANCH   2   4
BRANCH   1  16
ATOM     16  C   UNL     1       2.809   4.459  19.213  0.00  0.00    +0.000 A 
ATOM     17  C   UNL     1       1.666   3.942  18.581  0.00  0.00    +0.000 A 
ATOM     18  C   UNL     1       0.678   3.304  19.335  0.00  0.00    +0.000 A 
ATOM     19  C   UNL     1       0.817   3.193  20.723  0.00  0.00    +0.000 A 
ATOM     20  C   UNL     1       1.954   3.702  21.358  0.00  0.00    +0.000 A 
ATOM     21  C   UNL     1       2.956   4.321  20.606  0.00  0.00    +0.000 A 
ENDBRANCH   1  16
BRANCH   1  22
ATOM     22  C   UNL     1       4.958   4.353  18.045  0.00  0.00    +0.000 C 
BRANCH  22  23
ATOM     23  C   UNL     1       4.786   3.680  16.656  0.00  0.00    +0.000 C 
BRANCH  23  24
ATOM     24  N   UNL     1       5.962   3.789  15.749  0.00  0.00    +0.000 NA
BRANCH  24  26
ATOM     25  C   UNL     1       6.127   3.681  13.215  0.00  0.00    +0.000 C 
ATOM     26  C   UNL     1       5.600   4.420  14.451  0.00  0.00    +0.000 C 
ENDBRANCH  24  26
BRANCH  24  27
ATOM     27  C   UNL     1       7.102   4.466  16.438  0.00  0.00    +0.000 C 
ATOM     28  C   UNL     1       7.342   5.924  16.002  0.00  0.00    +0.000 C 
ENDBRANCH  24  27
ENDBRANCH  23  24
ENDBRANCH  22  23
ENDBRANCH   1  22
TORSDOF 9
ENDMDL
MODEL 7
REMARK VINA RESULT:      -7.5      1.126      1.324
REMARK  Name = 
REMARK  12 active torsions:
REMARK  status: ('A' for Active; 'I' for Inactive)
REMARK    1  A    between atoms: C_1  and  C_2
REMARK    2  A    between atoms: C_2  and  N_3
REMARK    3  A    between atoms: N_3  and  C_4
REMARK    4  A    between atoms: N_3  and  C_6
REMARK    5  A    between atoms: C_4  and  C_5
REMARK    6  A    between atoms: C_6  and  C_7
REMARK    7  A    between atoms: C_7  and  N_8
REMARK    8  A    between atoms: N_8  and  C_22
REMARK    9  A    between atoms: C_9  and  C_11
REMARK   10  A    between atoms: C_14  and  N_15
REMARK   11  A    between atoms: N_15  and  S_16
REMARK   12  A    between atoms: S_16  and  C_17
REMARK                            x       y       z     vdW  Elec       q    Type
REMARK                         _______ _______ _______ _____ _____    ______ ____
ROOT
ATOM      1  N   UNL     1       3.549   5.073  17.833  0.00  0.00    +0.000 N 
ATOM      2  C   UNL     1       3.470   6.447  17.663  0.00  0.00    +0.000 C 
ATOM      3  O   UNL     1       4.157   6.967  16.798  0.00  0.00    +0.000 OA
ENDROOT
BRANCH   2   4
ATOM      4  C   UNL     1       2.597   7.402  18.487  0.00  0.00    +0.000 A 
ATOM      5  C   UNL     1       2.353   7.293  19.878  0.00  0.00    +0.000 A 
ATOM      6  C   UNL     1       1.562   8.214  20.560  0.00  0.00    +0.000 A 
ATOM      7  C   UNL     1       1.001   9.298  19.897  0.00  0.00    +0.000 A 
ATOM      8  C   UNL     1       1.233   9.455  18.526  0.00  0.00    +0.000 A 
ATOM      9  C   UNL     1       2.017   8.519  17.830  0.00  0.00    +0.000 A 
BRANCH   7  10
ATOM     10  N   UNL     1       0.208  10.220  20.625  0.00  0.00    +0.000 N 
ATOM     11  H   UNL     1      -0.612  10.589  20.121  0.00  0.00    +0.000 HD
BRANCH  10  12
ATOM     12  S   UNL     1      -0.258   9.792  22.264  0.00  0.00    +0.000 S 
ATOM     13  C   UNL     1      -1.329  10.958  23.165  0.00  0.00    +0.000 C 
ATOM     14  O   UNL     1      -0.806   8.360  22.179  0.00  0.00    +0.000 OA
ATOM     15  O   UNL     1       1.081   9.576  22.984  0.00  0.00    +0.000 OA
ENDBRANCH  10  12
ENDBRANCH   7  10
ENDBRANCH   2   4
BRANCH   1  16
ATOM     16  C   UNL     1       2.736   4.368  18.755  0.00  0.00    +0.000 A 
ATOM     17  C   UNL     1       1.469   3.902  18.366  0.00  0.00    +0.000 A 
ATOM     18  C   UNL     1       0.652   3.247  19.290  0.00  0.00    +0.000 A 
ATOM     19  C   UNL     1       1.085   3.067  20.608  0.00  0.00    +0.000 A 
ATOM     20  C   UNL     1       2.346   3.526  21.001  0.00  0.00    +0.000 A 
ATOM     21  C   UNL     1       3.178   4.163  20.075  0.00  0.00    +0.000 A 
ENDBRANCH   1  16
BRANCH   1  22
ATOM     22  C   UNL     1       4.531   4.268  17.093  0.00  0.00    +0.000 C 
BRANCH  22  23
ATOM     23  C   UNL     1       5.933   4.239  17.763  0.00  0.00    +0.000 C 
BRANCH  23  24
ATOM     24  N   UNL     1       7.015   4.918  16.998  0.00  0.00    +0.000 NA
BRANCH  24  26
ATOM     25  C   UNL     1       6.625   4.129  14.614  0.00  0.00    +0.000 C 
ATOM     26  C   UNL     1       6.573   5.281  15.624  0.00  0.00    +0.000 C 
ENDBRANCH  24  26
BRANCH  24  27
ATOM     27  C   UNL     1       7.562   6.075  17.768  0.00  0.00    +0.000 C 
ATOM     28  C   UNL     1       7.742   5.816  19.276  0.00  0.00    +0.000 C 
ENDBRANCH  24  27
ENDBRANCH  23  24
ENDBRANCH  22  23
ENDBRANCH   1  22
TORSDOF 9
ENDMDL
MODEL 8
REMARK VINA RESULT:      -7.5      1.046      1.931
REMARK  Name = 
REMARK  12 active torsions:
REMARK  status: ('A' for Active; 'I' for Inactive)
REMARK    1  A    between atoms: C_1  and  C_2
REMARK    2  A    between atoms: C_2  and  N_3
REMARK    3  A    between atoms: N_3  and  C_4
REMARK    4  A    between atoms: N_3  and  C_6
REMARK    5  A    between atoms: C_4  and  C_5
REMARK    6  A    between atoms: C_6  and  C_7
REMARK    7  A    between atoms: C_7  and  N_8
REMARK    8  A    between atoms: N_8  and  C_22
REMARK    9  A    between atoms: C_9  and  C_11
REMARK   10  A    between atoms: C_14  and  N_15
REMARK   11  A    between atoms: N_15  and  S_16
REMARK   12  A    between atoms: S_16  and  C_17
REMARK                            x       y       z     vdW  Elec       q    Type
REMARK                         _______ _______ _______ _____ _____    ______ ____
ROOT
ATOM      1  N   UNL     1       3.601   5.669  18.182  0.00  0.00    +0.000 N 
ATOM      2  C   UNL     1       3.412   7.034  18.015  0.00  0.00    +0.000 C 
ATOM      3  O   UNL     1       4.180   7.642  17.286  0.00  0.00    +0.000 OA
ENDROOT
BRANCH   2   4
ATOM      4  C   UNL     1       2.320   7.875  18.685  0.00  0.00    +0.000 A 
ATOM      5  C   UNL     1       1.965   7.815  20.055  0.00  0.00    +0.000 A 
ATOM      6  C   UNL     1       0.972   8.629  20.594  0.00  0.00    +0.000 A 
ATOM      7  C   UNL     1       0.306   9.556  19.804  0.00  0.00    +0.000 A 
ATOM      8  C   UNL     1       0.639   9.663  18.449  0.00  0.00    +0.000 A 
ATOM      9  C   UNL     1       1.629   8.833  17.896  0.00  0.00    +0.000 A 
BRANCH   7  10
ATOM     10  N   UNL     1      -0.693  10.373  20.388  0.00  0.00    +0.000 N 
ATOM     11  H   UNL     1      -1.409   9.870  20.934  0.00  0.00    +0.000 HD
BRANCH  10  12
ATOM     12  S   UNL     1      -0.179  11.799  21.275  0.00  0.00    +0.000 S 
ATOM     13  C   UNL     1       1.362  12.611  20.742  0.00  0.00    +0.000 C 
ATOM     14  O   UNL     1      -1.403  12.725  21.319  0.00  0.00    +0.000 OA
ATOM     15  O   UNL     1      -0.094  11.318  22.732  0.00  0.00    +0.000 OA
ENDBRANCH  10  12
ENDBRANCH   7  10
ENDBRANCH   2   4
BRANCH   1  16
ATOM     16  C   UNL     1       2.718   4.864  18.944  0.00  0.00    +0.000 A 
ATOM     17  C   UNL     1       1.644   4.210  18.319  0.00  0.00    +0.000 A 
ATOM     18  C   UNL     1       0.749   3.452  19.079  0.00  0.00    +0.000 A 
ATOM     19  C   UNL     1       0.912   3.356  20.466  0.00  0.00    +0.000 A 
ATOM     20  C   UNL     1       1.982   4.002  21.093  0.00  0.00    +0.000 A 
ATOM     21  C   UNL     1       2.893   4.743  20.335  0.00  0.00    +0.000 A 
ENDBRANCH   1  16
BRANCH   1  22
ATOM     22  C   UNL     1       4.771   4.985  17.615  0.00  0.00    +0.000 C 
BRANCH  22  23
ATOM     23  C   UNL     1       5.061   5.380  16.141  0.00  0.00    +0.000 C 
BRANCH  23  24
ATOM     24  N   UNL     1       6.475   5.747  15.849  0.00  0.00    +0.000 NA
BRANCH  24  26
ATOM     25  C   UNL     1       7.553   7.353  17.498  0.00  0.00    +0.000 C 
ATOM     26  C   UNL     1       7.272   5.900  17.096  0.00  0.00    +0.000 C 
ENDBRANCH  24  26
BRANCH  24  27
ATOM     27  C   UNL     1       7.079   4.792  14.874  0.00  0.00    +0.000 C 
ATOM     28  C   UNL     1       6.061   3.945  14.086  0.00  0.00    +0.000 C 
ENDBRANCH  24  27
ENDBRANCH  23  24
ENDBRANCH  22  23
ENDBRANCH   1  22
TORSDOF 9
ENDMDL
MODEL 9
REMARK VINA RESULT:      -7.4      0.932      2.205
REMARK  Name = 
REMARK  12 active torsions:
REMARK  status: ('A' for Active; 'I' for Inactive)
REMARK    1  A    between atoms: C_1  and  C_2
REMARK    2  A    between atoms: C_2  and  N_3
REMARK    3  A    between atoms: N_3  and  C_4
REMARK    4  A    between atoms: N_3  and  C_6
REMARK    5  A    between atoms: C_4  and  C_5
REMARK    6  A    between atoms: C_6  and  C_7
REMARK    7  A    between atoms: C_7  and  N_8
REMARK    8  A    between atoms: N_8  and  C_22
REMARK    9  A    between atoms: C_9  and  C_11
REMARK   10  A    between atoms: C_14  and  N_15
REMARK   11  A    between atoms: N_15  and  S_16
REMARK   12  A    between atoms: S_16  and  C_17
REMARK                            x       y       z     vdW  Elec       q    Type
REMARK                         _______ _______ _______ _____ _____    ______ ____
ROOT
ATOM      1  N   UNL     1       3.310   5.463  18.166  0.00  0.00    +0.000 N 
ATOM      2  C   UNL     1       3.157   6.834  18.019  0.00  0.00    +0.000 C 
ATOM      3  O   UNL     1       3.811   7.404  17.160  0.00  0.00    +0.000 OA
ENDROOT
BRANCH   2   4
ATOM      4  C   UNL     1       2.239   7.728  18.862  0.00  0.00    +0.000 A 
ATOM      5  C   UNL     1       1.484   8.820  18.370  0.00  0.00    +0.000 A 
ATOM      6  C   UNL     1       0.656   9.574  19.198  0.00  0.00    +0.000 A 
ATOM      7  C   UNL     1       0.521   9.260  20.545  0.00  0.00    +0.000 A 
ATOM      8  C   UNL     1       1.234   8.176  21.068  0.00  0.00    +0.000 A 
ATOM      9  C   UNL     1       2.084   7.423  20.240  0.00  0.00    +0.000 A 
BRANCH   7  10
ATOM     10  N   UNL     1      -0.336  10.044  21.356  0.00  0.00    +0.000 N 
ATOM     11  H   UNL     1      -0.482   9.690  22.312  0.00  0.00    +0.000 HD
BRANCH  10  12
ATOM     12  S   UNL     1      -0.062  11.778  21.410  0.00  0.00    +0.000 S 
ATOM     13  C   UNL     1      -0.811  12.791  20.094  0.00  0.00    +0.000 C 
ATOM     14  O   UNL     1      -0.432  12.213  22.835  0.00  0.00    +0.000 OA
ATOM     15  O   UNL     1       1.469  11.910  21.426  0.00  0.00    +0.000 OA
ENDBRANCH  10  12
ENDBRANCH   7  10
ENDBRANCH   2   4
BRANCH   1  16
ATOM     16  C   UNL     1       2.540   4.702  19.080  0.00  0.00    +0.000 A 
ATOM     17  C   UNL     1       2.969   4.552  20.409  0.00  0.00    +0.000 A 
ATOM     18  C   UNL     1       2.231   3.764  21.297  0.00  0.00    +0.000 A 
ATOM     19  C   UNL     1       1.073   3.111  20.860  0.00  0.00    +0.000 A 
ATOM     20  C   UNL     1       0.640   3.260  19.539  0.00  0.00    +0.000 A 
ATOM     21  C   UNL     1       1.361   4.065  18.652  0.00  0.00    +0.000 A 
ENDBRANCH   1  16
BRANCH   1  22
ATOM     22  C   UNL     1       4.330   4.723  17.410  0.00  0.00    +0.000 C 
BRANCH  22  23
ATOM     23  C   UNL     1       5.749   4.817  18.035  0.00  0.00    +0.000 C 
BRANCH  23  24
ATOM     24  N   UNL     1       6.734   5.618  17.255  0.00  0.00    +0.000 NA
BRANCH  24  26
ATOM     25  C   UNL     1       7.793   7.894  17.651  0.00  0.00    +0.000 C 
ATOM     26  C   UNL     1       7.587   6.456  18.141  0.00  0.00    +0.000 C 
ENDBRANCH  24  26
BRANCH  24  27
ATOM     27  C   UNL     1       7.518   4.741  16.335  0.00  0.00    +0.000 C 
ATOM     28  C   UNL     1       6.948   4.633  14.908  0.00  0.00    +0.000 C 
ENDBRANCH  24  27
ENDBRANCH  23  24
ENDBRANCH  22  23
ENDBRANCH   1  22
TORSDOF 9
ENDMDL
