MODEL 1
REMARK VINA RESULT:      -7.6      0.000      0.000
REMARK  Name = 
REMARK  11 active torsions:
REMARK  status: ('A' for Active; 'I' for Inactive)
REMARK    1  A    between atoms: C_1  and  O_2
REMARK    2  A    between atoms: O_2  and  C_3
REMARK    3  A    between atoms: C_6  and  C_7
REMARK    4  A    between atoms: N_9  and  N_10
REMARK    5  A    between atoms: C_11  and  C_12
REMARK    6  A    between atoms: C_17  and  O_18
REMARK    7  A    between atoms: O_18  and  C_19
REMARK    8  A    between atoms: N_21  and  C_22
REMARK    9  A    between atoms: N_21  and  C_23
REMARK   10  A    between atoms: C_25  and  O_26
REMARK   11  A    between atoms: O_26  and  C_27
REMARK                            x       y       z     vdW  Elec       q    Type
REMARK                         _______ _______ _______ _____ _____    ______ ____
ROOT
ATOM      1  C   UNL     1       1.764   9.085  18.544  0.00  0.00    +0.000 C 
ATOM      2  O   UNL     1       1.785   9.682  17.471  0.00  0.00    +0.000 OA
ATOM      3  N   UNL     1       2.366   7.850  18.775  0.00  0.00    +0.000 N 
ATOM      4  H   UNL     1       2.354   7.397  19.675  0.00  0.00    +0.000 HD
ENDROOT
BRANCH   1   8
ATOM      5  C   UNL     1      -0.147  10.780  22.025  0.00  0.00    +0.000 A 
ATOM      6  C   UNL     1       0.046   9.399  21.898  0.00  0.00    +0.000 A 
ATOM      7  C   UNL     1       0.641   8.866  20.752  0.00  0.00    +0.000 A 
ATOM      8  C   UNL     1       1.016   9.696  19.687  0.00  0.00    +0.000 A 
ATOM      9  C   UNL     1       0.701  11.057  19.776  0.00  0.00    +0.000 A 
ATOM     10  C   UNL     1       0.117  11.610  20.929  0.00  0.00    +0.000 A 
BRANCH   5  12
ATOM     11  C   UNL     1      -1.987  11.616  23.229  0.00  0.00    +0.000 C 
ATOM     12  O   UNL     1      -0.588  11.315  23.206  0.00  0.00    +0.000 OA
ENDBRANCH   5  12
BRANCH  10  13
ATOM     13  O   UNL     1      -0.066  12.960  20.796  0.00  0.00    +0.000 OA
ATOM     14  C   UNL     1       0.941  13.844  21.257  0.00  0.00    +0.000 C 
ENDBRANCH  10  13
ENDBRANCH   1   8
BRANCH   3  15
ATOM     15  N   UNL     1       3.116   7.282  17.787  0.00  0.00    +0.000 NA
ATOM     16  C   UNL     1       3.556   6.082  17.998  0.00  0.00    +0.000 C 
BRANCH  16  17
ATOM     17  C   UNL     1       4.455   5.442  17.013  0.00  0.00    +0.000 A 
ATOM     18  C   UNL     1       5.088   6.270  16.074  0.00  0.00    +0.000 A 
ATOM     19  C   UNL     1       5.997   5.738  15.156  0.00  0.00    +0.000 A 
ATOM     20  C   UNL     1       6.278   4.378  15.168  0.00  0.00    +0.000 A 
ATOM     21  C   UNL     1       5.658   3.543  16.097  0.00  0.00    +0.000 A 
ATOM     22  C   UNL     1       4.737   4.069  17.015  0.00  0.00    +0.000 A 
BRANCH  22  23
ATOM     23  O   UNL     1       4.207   3.224  18.010  0.00  0.00    +0.000 OA
BRANCH  23  24
ATOM     24  C   UNL     1       2.831   2.966  17.972  0.00  0.00    +0.000 C 
ATOM     25  O   UNL     1       2.202   2.778  16.940  0.00  0.00    +0.000 OA
ATOM     26  N   UNL     1       2.258   2.918  19.240  0.00  0.00    +0.000 N 
ATOM     27  C   UNL     1       3.042   2.915  20.463  0.00  0.00    +0.000 C 
ATOM     28  C   UNL     1       0.853   2.577  19.377  0.00  0.00    +0.000 C 
ENDBRANCH  23  24
ENDBRANCH  22  23
ENDBRANCH  16  17
ENDBRANCH   3  15
TORSDOF 7
ENDMDL
MODEL 2
REMARK VINA RESULT:      -7.6      2.568      3.084
REMARK  Name = 
REMARK  11 active torsions:
REMARK  status: ('A' for Active; 'I' for Inactive)
REMARK    1  A    between atoms: C_1  and  O_2
REMARK    2  A    between atoms: O_2  and  C_3
REMARK    3  A    between atoms: C_6  and  C_7
REMARK    4  A    between atoms: N_9  and  N_10
REMARK    5  A    between atoms: C_11  and  C_12
REMARK    6  A    between atoms: C_17  and  O_18
REMARK    7  A    between atoms: O_18  and  C_19
REMARK    8  A    between atoms: N_21  and  C_22
REMARK    9  A    between atoms: N_21  and  C_23
REMARK   10  A    between atoms: C_25  and  O_26
REMARK   11  A    between atoms: O_26  and  C_27
REMARK                            x       y       z     vdW  Elec       q    Type
REMARK                         _______ _______ _______ _____ _____    ______ ____
ROOT
ATOM      1  C   UNL     1       1.388   9.819  18.086  0.00  0.00    +0.000 C 
ATOM      2  O   UNL     1       2.268  10.675  18.050  0.00  0.00    +0.000 OA
ATOM      3  N   UNL     1       1.601   8.457  17.880  0.00  0.00    +0.000 N 
ATOM      4  H   UNL     1       0.863   7.774  17.941  0.00  0.00    +0.000 HD
ENDROOT
BRANCH   1   8
ATOM      5  C   UNL     1      -2.589  11.362  18.747  0.00  0.00    +0.000 A 
ATOM      6  C   UNL     1      -1.556  11.588  19.666  0.00  0.00    +0.000 A 
ATOM      7  C   UNL     1      -0.283  11.056  19.450  0.00  0.00    +0.000 A 
ATOM      8  C   UNL     1      -0.023  10.251  18.333  0.00  0.00    +0.000 A 
ATOM      9  C   UNL     1      -1.095   9.931  17.492  0.00  0.00    +0.000 A 
ATOM     10  C   UNL     1      -2.379  10.470  17.689  0.00  0.00    +0.000 A 
BRANCH   5  12
ATOM     11  C   UNL     1      -3.945  12.715  20.113  0.00  0.00    +0.000 C 
ATOM     12  O   UNL     1      -3.791  12.005  18.880  0.00  0.00    +0.000 OA
ENDBRANCH   5  12
BRANCH  10  13
ATOM     13  O   UNL     1      -3.252  10.043  16.726  0.00  0.00    +0.000 OA
ATOM     14  C   UNL     1      -3.380  10.787  15.527  0.00  0.00    +0.000 C 
ENDBRANCH  10  13
ENDBRANCH   1   8
BRANCH   3  15
ATOM     15  N   UNL     1       2.876   8.001  17.717  0.00  0.00    +0.000 NA
ATOM     16  C   UNL     1       3.100   6.758  18.004  0.00  0.00    +0.000 C 
BRANCH  16  17
ATOM     17  C   UNL     1       4.477   6.222  17.944  0.00  0.00    +0.000 A 
ATOM     18  C   UNL     1       5.414   6.919  17.166  0.00  0.00    +0.000 A 
ATOM     19  C   UNL     1       6.746   6.502  17.115  0.00  0.00    +0.000 A 
ATOM     20  C   UNL     1       7.151   5.386  17.837  0.00  0.00    +0.000 A 
ATOM     21  C   UNL     1       6.231   4.685  18.616  0.00  0.00    +0.000 A 
ATOM     22  C   UNL     1       4.889   5.093  18.663  0.00  0.00    +0.000 A 
BRANCH  22  23
ATOM     23  O   UNL     1       4.006   4.431  19.540  0.00  0.00    +0.000 OA
BRANCH  23  24
ATOM     24  C   UNL     1       3.187   3.433  18.999  0.00  0.00    +0.000 C 
ATOM     25  O   UNL     1       3.592   2.548  18.258  0.00  0.00    +0.000 OA
ATOM     26  N   UNL     1       1.864   3.538  19.419  0.00  0.00    +0.000 N 
ATOM     27  C   UNL     1       1.436   4.446  20.469  0.00  0.00    +0.000 C 
ATOM     28  C   UNL     1       0.903   2.527  19.012  0.00  0.00    +0.000 C 
ENDBRANCH  23  24
ENDBRANCH  22  23
ENDBRANCH  16  17
ENDBRANCH   3  15
TORSDOF 7
ENDMDL
MODEL 3
REMARK VINA RESULT:      -7.6      0.698      1.110
REMARK  Name = 
REMARK  11 active torsions:
REMARK  status: ('A' for Active; 'I' for Inactive)
REMARK    1  A    between atoms: C_1  and  O_2
REMARK    2  A    between atoms: O_2  and  C_3
REMARK    3  A    between atoms: C_6  and  C_7
REMARK    4  A    between atoms: N_9  and  N_10
REMARK    5  A    between atoms: C_11  and  C_12
REMARK    6  A    between atoms: C_17  and  O_18
REMARK    7  A    between atoms: O_18  and  C_19
REMARK    8  A    between atoms: N_21  and  C_22
REMARK    9  A    between atoms: N_21  and  C_23
REMARK   10  A    between atoms: C_25  and  O_26
REMARK   11  A    between atoms: O_26  and  C_27
REMARK                            x       y       z     vdW  Elec       q    Type
REMARK                         _______ _______ _______ _____ _____    ______ ____
ROOT
ATOM      1  C   UNL     1       1.761   8.798  18.603  0.00  0.00    +0.000 C 
ATOM      2  O   UNL     1       1.933   9.364  17.527  0.00  0.00    +0.000 OA
ATOM      3  N   UNL     1       2.166   7.495  18.884  0.00  0.00    +0.000 N 
ATOM      4  H   UNL     1       2.034   7.065  19.786  0.00  0.00    +0.000 HD
ENDROOT
BRANCH   1   8
ATOM      5  C   UNL     1      -0.091  10.830  21.932  0.00  0.00    +0.000 A 
ATOM      6  C   UNL     1      -0.023   9.432  21.876  0.00  0.00    +0.000 A 
ATOM      7  C   UNL     1       0.554   8.791  20.777  0.00  0.00    +0.000 A 
ATOM      8  C   UNL     1       1.037   9.530  19.689  0.00  0.00    +0.000 A 
ATOM      9  C   UNL     1       0.848  10.917  19.703  0.00  0.00    +0.000 A 
ATOM     10  C   UNL     1       0.282  11.577  20.809  0.00  0.00    +0.000 A 
BRANCH   5  12
ATOM     11  C   UNL     1      -1.935  11.648  23.143  0.00  0.00    +0.000 C 
ATOM     12  O   UNL     1      -0.518  11.461  23.071  0.00  0.00    +0.000 OA
ENDBRANCH   5  12
BRANCH  10  13
ATOM     13  O   UNL     1       0.230  12.930  20.607  0.00  0.00    +0.000 OA
ATOM     14  C   UNL     1       1.417  13.695  20.729  0.00  0.00    +0.000 C 
ENDBRANCH  10  13
ENDBRANCH   1   8
BRANCH   3  15
ATOM     15  N   UNL     1       2.887   6.808  17.953  0.00  0.00    +0.000 NA
ATOM     16  C   UNL     1       3.998   6.270  18.346  0.00  0.00    +0.000 C 
BRANCH  16  17
ATOM     17  C   UNL     1       4.878   5.594  17.369  0.00  0.00    +0.000 A 
ATOM     18  C   UNL     1       5.954   6.327  16.844  0.00  0.00    +0.000 A 
ATOM     19  C   UNL     1       6.859   5.728  15.964  0.00  0.00    +0.000 A 
ATOM     20  C   UNL     1       6.696   4.397  15.601  0.00  0.00    +0.000 A 
ATOM     21  C   UNL     1       5.632   3.657  16.115  0.00  0.00    +0.000 A 
ATOM     22  C   UNL     1       4.713   4.254  16.992  0.00  0.00    +0.000 A 
BRANCH  22  23
ATOM     23  O   UNL     1       3.712   3.455  17.579  0.00  0.00    +0.000 OA
BRANCH  23  24
ATOM     24  C   UNL     1       3.867   3.113  18.927  0.00  0.00    +0.000 C 
ATOM     25  O   UNL     1       4.951   2.906  19.456  0.00  0.00    +0.000 OA
ATOM     26  N   UNL     1       2.656   3.062  19.611  0.00  0.00    +0.000 N 
ATOM     27  C   UNL     1       1.404   3.527  19.040  0.00  0.00    +0.000 C 
ATOM     28  C   UNL     1       2.653   2.802  21.040  0.00  0.00    +0.000 C 
ENDBRANCH  23  24
ENDBRANCH  22  23
ENDBRANCH  16  17
ENDBRANCH   3  15
TORSDOF 7
ENDMDL
MODEL 4
REMARK VINA RESULT:      -7.6      2.423      9.140
REMARK  Name = 
REMARK  11 active torsions:
REMARK  status: ('A' for Active; 'I' for Inactive)
REMARK    1  A    between atoms: C_1  and  O_2
REMARK    2  A    between atoms: O_2  and  C_3
REMARK    3  A    between atoms: C_6  and  C_7
REMARK    4  A    between atoms: N_9  and  N_10
REMARK    5  A    between atoms: C_11  and  C_12
REMARK    6  A    between atoms: C_17  and  O_18
REMARK    7  A    between atoms: O_18  and  C_19
REMARK    8  A    between atoms: N_21  and  C_22
REMARK    9  A    between atoms: N_21  and  C_23
REMARK   10  A    between atoms: C_25  and  O_26
REMARK   11  A    between atoms: O_26  and  C_27
REMARK                            x       y       z     vdW  Elec       q    Type
REMARK                         _______ _______ _______ _____ _____    ______ ____
ROOT
ATOM      1  C   UNL     1       2.935   5.658  19.711  0.00  0.00    +0.000 C 
ATOM      2  O   UNL     1       2.499   4.952  20.615  0.00  0.00    +0.000 OA
ATOM      3  N   UNL     1       2.555   6.980  19.487  0.00  0.00    +0.000 N 
ATOM      4  H   UNL     1       2.950   7.544  18.751  0.00  0.00    +0.000 HD
ENDROOT
BRANCH   1   8
ATOM      5  C   UNL     1       5.690   4.176  16.736  0.00  0.00    +0.000 A 
ATOM      6  C   UNL     1       4.305   4.034  16.583  0.00  0.00    +0.000 A 
ATOM      7  C   UNL     1       3.430   4.494  17.570  0.00  0.00    +0.000 A 
ATOM      8  C   UNL     1       3.919   5.067  18.751  0.00  0.00    +0.000 A 
ATOM      9  C   UNL     1       5.305   5.086  18.945  0.00  0.00    +0.000 A 
ATOM     10  C   UNL     1       6.198   4.640  17.955  0.00  0.00    +0.000 A 
BRANCH   5  12
ATOM     11  C   UNL     1       6.915   4.981  14.896  0.00  0.00    +0.000 C 
ATOM     12  O   UNL     1       6.539   3.863  15.707  0.00  0.00    +0.000 OA
ENDBRANCH   5  12
BRANCH  10  13
ATOM     13  O   UNL     1       7.499   4.786  18.355  0.00  0.00    +0.000 OA
ATOM     14  C   UNL     1       7.812   5.732  19.364  0.00  0.00    +0.000 C 
ENDBRANCH  10  13
ENDBRANCH   1   8
BRANCH   3  15
ATOM     15  N   UNL     1       1.712   7.588  20.370  0.00  0.00    +0.000 NA
ATOM     16  C   UNL     1       1.302   8.779  20.069  0.00  0.00    +0.000 C 
BRANCH  16  17
ATOM     17  C   UNL     1       0.465   9.535  21.026  0.00  0.00    +0.000 A 
ATOM     18  C   UNL     1       0.397   9.065  22.346  0.00  0.00    +0.000 A 
ATOM     19  C   UNL     1      -0.325   9.767  23.314  0.00  0.00    +0.000 A 
ATOM     20  C   UNL     1      -0.985  10.940  22.971  0.00  0.00    +0.000 A 
ATOM     21  C   UNL     1      -0.925  11.420  21.664  0.00  0.00    +0.000 A 
ATOM     22  C   UNL     1      -0.210  10.715  20.684  0.00  0.00    +0.000 A 
BRANCH  22  23
ATOM     23  O   UNL     1      -0.077  11.278  19.399  0.00  0.00    +0.000 OA
BRANCH  23  24
ATOM     24  C   UNL     1      -1.214  11.866  18.831  0.00  0.00    +0.000 C 
ATOM     25  O   UNL     1      -1.576  13.011  19.066  0.00  0.00    +0.000 OA
ATOM     26  N   UNL     1      -1.874  11.018  17.947  0.00  0.00    +0.000 N 
ATOM     27  C   UNL     1      -1.319   9.752  17.501  0.00  0.00    +0.000 C 
ATOM     28  C   UNL     1      -3.026  11.510  17.211  0.00  0.00    +0.000 C 
ENDBRANCH  23  24
ENDBRANCH  22  23
ENDBRANCH  16  17
ENDBRANCH   3  15
TORSDOF 7
ENDMDL
MODEL 5
REMARK VINA RESULT:      -7.6      2.367      9.543
REMARK  Name = 
REMARK  11 active torsions:
REMARK  status: ('A' for Active; 'I' for Inactive)
REMARK    1  A    between atoms: C_1  and  O_2
REMARK    2  A    between atoms: O_2  and  C_3
REMARK    3  A    between atoms: C_6  and  C_7
REMARK    4  A    between atoms: N_9  and  N_10
REMARK    5  A    between atoms: C_11  and  C_12
REMARK    6  A    between atoms: C_17  and  O_18
REMARK    7  A    between atoms: O_18  and  C_19
REMARK    8  A    between atoms: N_21  and  C_22
REMARK    9  A    between atoms: N_21  and  C_23
REMARK   10  A    between atoms: C_25  and  O_26
REMARK   11  A    between atoms: O_26  and  C_27
REMARK                            x       y       z     vdW  Elec       q    Type
REMARK                         _______ _______ _______ _____ _____    ______ ____
ROOT
ATOM      1  C   UNL     1       2.467   5.982  19.993  0.00  0.00    +0.000 C 
ATOM      2  O   UNL     1       1.825   5.296  20.783  0.00  0.00    +0.000 OA
ATOM      3  N   UNL     1       2.318   7.358  19.838  0.00  0.00    +0.000 N 
ATOM      4  H   UNL     1       2.878   7.899  19.198  0.00  0.00    +0.000 HD
ENDROOT
BRANCH   1   8
ATOM      5  C   UNL     1       5.288   4.263  17.213  0.00  0.00    +0.000 A 
ATOM      6  C   UNL     1       3.912   4.255  16.955  0.00  0.00    +0.000 A 
ATOM      7  C   UNL     1       3.011   4.790  17.879  0.00  0.00    +0.000 A 
ATOM      8  C   UNL     1       3.461   5.306  19.102  0.00  0.00    +0.000 A 
ATOM      9  C   UNL     1       4.824   5.191  19.399  0.00  0.00    +0.000 A 
ATOM     10  C   UNL     1       5.744   4.669  18.473  0.00  0.00    +0.000 A 
BRANCH   5  12
ATOM     11  C   UNL     1       6.219   4.742  15.106  0.00  0.00    +0.000 C 
ATOM     12  O   UNL     1       6.180   3.879  16.247  0.00  0.00    +0.000 OA
ENDBRANCH   5  12
BRANCH  10  13
ATOM     13  O   UNL     1       7.019   4.689  18.972  0.00  0.00    +0.000 OA
ATOM     14  C   UNL     1       7.759   5.897  18.936  0.00  0.00    +0.000 C 
ENDBRANCH  10  13
ENDBRANCH   1   8
BRANCH   3  15
ATOM     15  N   UNL     1       1.474   8.033  20.670  0.00  0.00    +0.000 NA
ATOM     16  C   UNL     1       1.143   9.236  20.324  0.00  0.00    +0.000 C 
BRANCH  16  17
ATOM     17  C   UNL     1       0.310  10.061  21.227  0.00  0.00    +0.000 A 
ATOM     18  C   UNL     1      -0.267   9.430  22.339  0.00  0.00    +0.000 A 
ATOM     19  C   UNL     1      -1.013  10.164  23.265  0.00  0.00    +0.000 A 
ATOM     20  C   UNL     1      -1.190  11.530  23.085  0.00  0.00    +0.000 A 
ATOM     21  C   UNL     1      -0.621  12.171  21.985  0.00  0.00    +0.000 A 
ATOM     22  C   UNL     1       0.121  11.438  21.046  0.00  0.00    +0.000 A 
BRANCH  22  23
ATOM     23  O   UNL     1       0.773  12.127  20.004  0.00  0.00    +0.000 OA
BRANCH  23  24
ATOM     24  C   UNL     1       1.577  13.218  20.355  0.00  0.00    +0.000 C 
ATOM     25  O   UNL     1       2.572  13.130  21.061  0.00  0.00    +0.000 OA
ATOM     26  N   UNL     1       1.139  14.413  19.790  0.00  0.00    +0.000 N 
ATOM     27  C   UNL     1       0.099  14.475  18.778  0.00  0.00    +0.000 C 
ATOM     28  C   UNL     1       1.915  15.624  19.990  0.00  0.00    +0.000 C 
ENDBRANCH  23  24
ENDBRANCH  22  23
ENDBRANCH  16  17
ENDBRANCH   3  15
TORSDOF 7
ENDMDL
MODEL 6
REMARK VINA RESULT:      -7.5      2.364      9.365
REMARK  Name = 
REMARK  11 active torsions:
REMARK  status: ('A' for Active; 'I' for Inactive)
REMARK    1  A    between atoms: C_1  and  O_2
REMARK    2  A    between atoms: O_2  and  C_3
REMARK    3  A    between atoms: C_6  and  C_7
REMARK    4  A    between atoms: N_9  and  N_10
REMARK    5  A    between atoms: C_11  and  C_12
REMARK    6  A    between atoms: C_17  and  O_18
REMARK    7  A    between atoms: O_18  and  C_19
REMARK    8  A    between atoms: N_21  and  C_22
REMARK    9  A    between atoms: N_21  and  C_23
REMARK   10  A    between atoms: C_25  and  O_26
REMARK   11  A    between atoms: O_26  and  C_27
REMARK                            x       y       z     vdW  Elec       q    Type
REMARK                         _______ _______ _______ _____ _____    ______ ____
ROOT
ATOM      1  C   UNL     1       3.500   6.067  19.010  0.00  0.00    +0.000 C 
ATOM      2  O   UNL     1       3.335   5.335  19.982  0.00  0.00    +0.000 OA
ATOM      3  N   UNL     1       2.814   7.259  18.791  0.00  0.00    +0.000 N 
ATOM      4  H   UNL     1       2.990   7.852  17.995  0.00  0.00    +0.000 HD
ENDROOT
BRANCH   1   8
ATOM      5  C   UNL     1       6.115   4.947  15.762  0.00  0.00    +0.000 A 
ATOM      6  C   UNL     1       4.968   4.202  16.066  0.00  0.00    +0.000 A 
ATOM      7  C   UNL     1       4.149   4.563  17.138  0.00  0.00    +0.000 A 
ATOM      8  C   UNL     1       4.480   5.649  17.959  0.00  0.00    +0.000 A 
ATOM      9  C   UNL     1       5.694   6.304  17.720  0.00  0.00    +0.000 A 
ATOM     10  C   UNL     1       6.521   5.962  16.635  0.00  0.00    +0.000 A 
BRANCH   5  12
ATOM     11  C   UNL     1       6.158   3.844  13.684  0.00  0.00    +0.000 C 
ATOM     12  O   UNL     1       6.832   4.686  14.624  0.00  0.00    +0.000 OA
ENDBRANCH   5  12
BRANCH  10  13
ATOM     13  O   UNL     1       7.632   6.760  16.585  0.00  0.00    +0.000 OA
ATOM     14  C   UNL     1       7.753   7.838  17.497  0.00  0.00    +0.000 C 
ENDBRANCH  10  13
ENDBRANCH   1   8
BRANCH   3  15
ATOM     15  N   UNL     1       1.959   7.719  19.749  0.00  0.00    +0.000 NA
ATOM     16  C   UNL     1       1.562   8.947  19.644  0.00  0.00    +0.000 C 
BRANCH  16  17
ATOM     17  C   UNL     1       0.712   9.541  20.699  0.00  0.00    +0.000 A 
ATOM     18  C   UNL     1       0.164   8.676  21.658  0.00  0.00    +0.000 A 
ATOM     19  C   UNL     1      -0.597   9.180  22.716  0.00  0.00    +0.000 A 
ATOM     20  C   UNL     1      -0.816  10.547  22.823  0.00  0.00    +0.000 A 
ATOM     21  C   UNL     1      -0.277  11.418  21.878  0.00  0.00    +0.000 A 
ATOM     22  C   UNL     1       0.480  10.919  20.807  0.00  0.00    +0.000 A 
BRANCH  22  23
ATOM     23  O   UNL     1       1.101  11.829  19.928  0.00  0.00    +0.000 OA
BRANCH  23  24
ATOM     24  C   UNL     1       0.276  12.714  19.225  0.00  0.00    +0.000 C 
ATOM     25  O   UNL     1      -0.653  12.357  18.512  0.00  0.00    +0.000 OA
ATOM     26  N   UNL     1       0.607  14.048  19.445  0.00  0.00    +0.000 N 
ATOM     27  C   UNL     1       1.556  14.471  20.460  0.00  0.00    +0.000 C 
ATOM     28  C   UNL     1      -0.209  15.093  18.852  0.00  0.00    +0.000 C 
ENDBRANCH  23  24
ENDBRANCH  22  23
ENDBRANCH  16  17
ENDBRANCH   3  15
TORSDOF 7
ENDMDL
MODEL 7
REMARK VINA RESULT:      -7.5      1.264      1.698
REMARK  Name = 
REMARK  11 active torsions:
REMARK  status: ('A' for Active; 'I' for Inactive)
REMARK    1  A    between atoms: C_1  and  O_2
REMARK    2  A    between atoms: O_2  and  C_3
REMARK    3  A    between atoms: C_6  and  C_7
REMARK    4  A    between atoms: N_9  and  N_10
REMARK    5  A    between atoms: C_11  and  C_12
REMARK    6  A    between atoms: C_17  and  O_18
REMARK    7  A    between atoms: O_18  and  C_19
REMARK    8  A    between atoms: N_21  and  C_22
REMARK    9  A    between atoms: N_21  and  C_23
REMARK   10  A    between atoms: C_25  and  O_26
REMARK   11  A    between atoms: O_26  and  C_27
REMARK                            x       y       z     vdW  Elec       q    Type
REMARK                         _______ _______ _______ _____ _____    ______ ____
ROOT
ATOM      1  C   UNL     1       1.716   9.149  18.452  0.00  0.00    +0.000 C 
ATOM      2  O   UNL     1       1.957   9.737  17.402  0.00  0.00    +0.000 OA
ATOM      3  N   UNL     1       2.275   7.928  18.822  0.00  0.00    +0.000 N 
ATOM      4  H   UNL     1       2.077   7.481  19.704  0.00  0.00    +0.000 HD
ENDROOT
BRANCH   1   8
ATOM      5  C   UNL     1      -0.894  11.056  21.314  0.00  0.00    +0.000 A 
ATOM      6  C   UNL     1       0.039  10.089  21.709  0.00  0.00    +0.000 A 
ATOM      7  C   UNL     1       0.855   9.462  20.765  0.00  0.00    +0.000 A 
ATOM      8  C   UNL     1       0.729   9.754  19.400  0.00  0.00    +0.000 A 
ATOM      9  C   UNL     1      -0.294  10.627  19.010  0.00  0.00    +0.000 A 
ATOM     10  C   UNL     1      -1.113  11.278  19.950  0.00  0.00    +0.000 A 
BRANCH   5  12
ATOM     11  C   UNL     1      -0.927  12.976  22.674  0.00  0.00    +0.000 C 
ATOM     12  O   UNL     1      -1.586  11.778  22.251  0.00  0.00    +0.000 OA
ENDBRANCH   5  12
BRANCH  10  13
ATOM     13  O   UNL     1      -2.014  12.106  19.336  0.00  0.00    +0.000 OA
ATOM     14  C   UNL     1      -2.935  11.561  18.407  0.00  0.00    +0.000 C 
ENDBRANCH  10  13
ENDBRANCH   1   8
BRANCH   3  15
ATOM     15  N   UNL     1       3.229   7.366  18.026  0.00  0.00    +0.000 NA
ATOM     16  C   UNL     1       3.171   6.084  17.851  0.00  0.00    +0.000 C 
BRANCH  16  17
ATOM     17  C   UNL     1       4.229   5.395  17.080  0.00  0.00    +0.000 A 
ATOM     18  C   UNL     1       5.177   6.191  16.419  0.00  0.00    +0.000 A 
ATOM     19  C   UNL     1       6.238   5.604  15.726  0.00  0.00    +0.000 A 
ATOM     20  C   UNL     1       6.358   4.221  15.685  0.00  0.00    +0.000 A 
ATOM     21  C   UNL     1       5.425   3.418  16.338  0.00  0.00    +0.000 A 
ATOM     22  C   UNL     1       4.351   4.000  17.028  0.00  0.00    +0.000 A 
BRANCH  22  23
ATOM     23  O   UNL     1       3.485   3.170  17.767  0.00  0.00    +0.000 OA
BRANCH  23  24
ATOM     24  C   UNL     1       3.753   3.008  19.132  0.00  0.00    +0.000 C 
ATOM     25  O   UNL     1       4.878   3.036  19.612  0.00  0.00    +0.000 OA
ATOM     26  N   UNL     1       2.598   2.841  19.890  0.00  0.00    +0.000 N 
ATOM     27  C   UNL     1       1.263   3.034  19.352  0.00  0.00    +0.000 C 
ATOM     28  C   UNL     1       2.701   2.743  21.336  0.00  0.00    +0.000 C 
ENDBRANCH  23  24
ENDBRANCH  22  23
ENDBRANCH  16  17
ENDBRANCH   3  15
TORSDOF 7
ENDMDL
MODEL 8
REMARK VINA RESULT:      -7.5      2.339      9.476
REMARK  Name = 
REMARK  11 active torsions:
REMARK  status: ('A' for Active; 'I' for Inactive)
REMARK    1  A    between atoms: C_1  and  O_2
REMARK    2  A    between atoms: O_2  and  C_3
REMARK    3  A    between atoms: C_6  and  C_7
REMARK    4  A    between atoms: N_9  and  N_10
REMARK    5  A    between atoms: C_11  and  C_12
REMARK    6  A    between atoms: C_17  and  O_18
REMARK    7  A    between atoms: O_18  and  C_19
REMARK    8  A    between atoms: N_21  and  C_22
REMARK    9  A    between atoms: N_21  and  C_23
REMARK   10  A    between atoms: C_25  and  O_26
REMARK   11  A    between atoms: O_26  and  C_27
REMARK                            x       y       z     vdW  Elec       q    Type
REMARK                         _______ _______ _______ _____ _____    ______ ____
ROOT
ATOM      1  C   UNL     1       2.538   5.854  19.878  0.00  0.00    +0.000 C 
ATOM      2  O   UNL     1       1.857   5.158  20.626  0.00  0.00    +0.000 OA
ATOM      3  N   UNL     1       2.433   7.239  19.774  0.00  0.00    +0.000 N 
ATOM      4  H   UNL     1       3.025   7.787  19.169  0.00  0.00    +0.000 HD
ENDROOT
BRANCH   1   8
ATOM      5  C   UNL     1       5.350   4.141  17.086  0.00  0.00    +0.000 A 
ATOM      6  C   UNL     1       3.969   4.076  16.863  0.00  0.00    +0.000 A 
ATOM      7  C   UNL     1       3.073   4.610  17.792  0.00  0.00    +0.000 A 
ATOM      8  C   UNL     1       3.533   5.183  18.985  0.00  0.00    +0.000 A 
ATOM      9  C   UNL     1       4.907   5.127  19.250  0.00  0.00    +0.000 A 
ATOM     10  C   UNL     1       5.822   4.607  18.319  0.00  0.00    +0.000 A 
BRANCH   5  12
ATOM     11  C   UNL     1       6.436   4.732  15.084  0.00  0.00    +0.000 C 
ATOM     12  O   UNL     1       6.231   3.755  16.110  0.00  0.00    +0.000 OA
ENDBRANCH   5  12
BRANCH  10  13
ATOM     13  O   UNL     1       7.107   4.688  18.783  0.00  0.00    +0.000 OA
ATOM     14  C   UNL     1       7.775   5.938  18.757  0.00  0.00    +0.000 C 
ENDBRANCH  10  13
ENDBRANCH   1   8
BRANCH   3  15
ATOM     15  N   UNL     1       1.589   7.907  20.612  0.00  0.00    +0.000 NA
ATOM     16  C   UNL     1       1.237   9.103  20.264  0.00  0.00    +0.000 C 
BRANCH  16  17
ATOM     17  C   UNL     1       0.403   9.921  21.171  0.00  0.00    +0.000 A 
ATOM     18  C   UNL     1      -0.140   9.292  22.301  0.00  0.00    +0.000 A 
ATOM     19  C   UNL     1      -0.885  10.021  23.231  0.00  0.00    +0.000 A 
ATOM     20  C   UNL     1      -1.095  11.381  23.038  0.00  0.00    +0.000 A 
ATOM     21  C   UNL     1      -0.561  12.019  21.921  0.00  0.00    +0.000 A 
ATOM     22  C   UNL     1       0.181  11.291  20.977  0.00  0.00    +0.000 A 
BRANCH  22  23
ATOM     23  O   UNL     1       0.798  11.981  19.915  0.00  0.00    +0.000 OA
BRANCH  23  24
ATOM     24  C   UNL     1       0.032  12.933  19.231  0.00  0.00    +0.000 C 
ATOM     25  O   UNL     1      -1.002  12.671  18.632  0.00  0.00    +0.000 OA
ATOM     26  N   UNL     1       0.559  14.218  19.330  0.00  0.00    +0.000 N 
ATOM     27  C   UNL     1       1.652  14.559  20.224  0.00  0.00    +0.000 C 
ATOM     28  C   UNL     1      -0.164  15.333  18.744  0.00  0.00    +0.000 C 
ENDBRANCH  23  24
ENDBRANCH  22  23
ENDBRANCH  16  17
ENDBRANCH   3  15
TORSDOF 7
ENDMDL
MODEL 9
REMARK VINA RESULT:      -7.5      2.179      4.049
REMARK  Name = 
REMARK  11 active torsions:
REMARK  status: ('A' for Active; 'I' for Inactive)
REMARK    1  A    between atoms: C_1  and  O_2
REMARK    2  A    between atoms: O_2  and  C_3
REMARK    3  A    between atoms: C_6  and  C_7
REMARK    4  A    between atoms: N_9  and  N_10
REMARK    5  A    between atoms: C_11  and  C_12
REMARK    6  A    between atoms: C_17  and  O_18
REMARK    7  A    between atoms: O_18  and  C_19
REMARK    8  A    between atoms: N_21  and  C_22
REMARK    9  A    between atoms: N_21  and  C_23
REMARK   10  A    between atoms: C_25  and  O_26
REMARK   11  A    between atoms: O_26  and  C_27
REMARK                            x       y       z     vdW  Elec       q    Type
REMARK                         _______ _______ _______ _____ _____    ______ ____
ROOT
ATOM      1  C   UNL     1       0.152   8.801  21.543  0.00  0.00    +0.000 C 
ATOM      2  O   UNL     1      -0.807   8.115  21.883  0.00  0.00    +0.000 OA
ATOM      3  N   UNL     1       1.392   8.293  21.160  0.00  0.00    +0.000 N 
ATOM      4  H   UNL     1       2.154   8.881  20.861  0.00  0.00    +0.000 HD
ENDROOT
BRANCH   1   8
ATOM      5  C   UNL     1      -0.112  13.096  21.897  0.00  0.00    +0.000 A 
ATOM      6  C   UNL     1      -0.900  12.248  22.687  0.00  0.00    +0.000 A 
ATOM      7  C   UNL     1      -0.822  10.862  22.538  0.00  0.00    +0.000 A 
ATOM      8  C   UNL     1       0.012  10.291  21.568  0.00  0.00    +0.000 A 
ATOM      9  C   UNL     1       0.696  11.153  20.703  0.00  0.00    +0.000 A 
ATOM     10  C   UNL     1       0.639  12.550  20.849  0.00  0.00    +0.000 A 
BRANCH   5  12
ATOM     11  C   UNL     1      -1.046  15.201  21.414  0.00  0.00    +0.000 C 
ATOM     12  O   UNL     1      -0.076  14.443  22.144  0.00  0.00    +0.000 OA
ENDBRANCH   5  12
BRANCH  10  13
ATOM     13  O   UNL     1       1.413  13.181  19.913  0.00  0.00    +0.000 OA
ATOM     14  C   UNL     1       2.723  13.594  20.261  0.00  0.00    +0.000 C 
ENDBRANCH  10  13
ENDBRANCH   1   8
BRANCH   3  15
ATOM     15  N   UNL     1       1.553   6.942  21.056  0.00  0.00    +0.000 NA
ATOM     16  C   UNL     1       2.040   6.490  19.945  0.00  0.00    +0.000 C 
BRANCH  16  17
ATOM     17  C   UNL     1       2.151   5.032  19.726  0.00  0.00    +0.000 A 
ATOM     18  C   UNL     1       1.204   4.206  20.349  0.00  0.00    +0.000 A 
ATOM     19  C   UNL     1       1.214   2.825  20.134  0.00  0.00    +0.000 A 
ATOM     20  C   UNL     1       2.170   2.261  19.299  0.00  0.00    +0.000 A 
ATOM     21  C   UNL     1       3.117   3.070  18.673  0.00  0.00    +0.000 A 
ATOM     22  C   UNL     1       3.119   4.456  18.892  0.00  0.00    +0.000 A 
BRANCH  22  23
ATOM     23  O   UNL     1       4.018   5.260  18.164  0.00  0.00    +0.000 OA
BRANCH  23  24
ATOM     24  C   UNL     1       5.376   5.175  18.496  0.00  0.00    +0.000 C 
ATOM     25  O   UNL     1       5.816   5.387  19.618  0.00  0.00    +0.000 OA
ATOM     26  N   UNL     1       6.170   4.795  17.419  0.00  0.00    +0.000 N 
ATOM     27  C   UNL     1       5.622   4.327  16.158  0.00  0.00    +0.000 C 
ATOM     28  C   UNL     1       7.592   4.580  17.620  0.00  0.00    +0.000 C 
ENDBRANCH  23  24
ENDBRANCH  22  23
ENDBRANCH  16  17
ENDBRANCH   3  15
TORSDOF 7
ENDMDL
