MODEL 1
REMARK VINA RESULT:      -7.8      0.000      0.000
REMARK  Name = 
REMARK  4 active torsions:
REMARK  status: ('A' for Active; 'I' for Inactive)
REMARK    1  A    between atoms: C_1  and  C_2
REMARK    2  A    between atoms: C_6  and  C_7
REMARK    3  A    between atoms: N_11  and  C_12
REMARK    4  A    between atoms: C_12  and  C_13
REMARK                            x       y       z     vdW  Elec       q    Type
REMARK                         _______ _______ _______ _____ _____    ______ ____
ROOT
ATOM      1  C   UNL     1       4.634   4.531  17.456  0.00  0.00    +0.000 A 
ATOM      2  N   UNL     1       4.808   4.121  16.189  0.00  0.00    +0.000 NA
ATOM      3  C   UNL     1       5.775   4.816  15.436  0.00  0.00    +0.000 A 
ATOM      4  C   UNL     1       6.355   4.172  14.287  0.00  0.00    +0.000 A 
ATOM      5  N   UNL     1       4.652   6.061  17.662  0.00  0.00    +0.000 N 
ENDROOT
BRANCH   1  11
ATOM      6  C   UNL     1       1.668   3.618  18.265  0.00  0.00    +0.000 C 
ATOM      7  C   UNL     1       2.958   3.249  18.884  0.00  0.00    +0.000 A 
ATOM      8  N   UNL     1       3.004   2.485  20.032  0.00  0.00    +0.000 NA
ATOM      9  C   UNL     1       4.279   2.344  20.304  0.00  0.00    +0.000 A 
ATOM     10  N   UNL     1       5.061   2.923  19.338  0.00  0.00    +0.000 N 
ATOM     11  C   UNL     1       4.234   3.623  18.493  0.00  0.00    +0.000 A 
ATOM     12  H   UNL     1       6.069   2.950  19.348  0.00  0.00    +0.000 HD
ENDBRANCH   1  11
BRANCH   5  13
ATOM     13  C   UNL     1       3.471   6.797  17.302  0.00  0.00    +0.000 C 
BRANCH  13  14
ATOM     14  C   UNL     1       2.648   7.486  18.416  0.00  0.00    +0.000 A 
ATOM     15  C   UNL     1       2.412   7.045  19.786  0.00  0.00    +0.000 A 
ATOM     16  C   UNL     1       1.500   7.721  20.619  0.00  0.00    +0.000 A 
ATOM     17  C   UNL     1       0.988   8.919  20.149  0.00  0.00    +0.000 A 
ATOM     18  C   UNL     1       1.512   9.483  18.973  0.00  0.00    +0.000 A 
ATOM     19  C   UNL     1       2.278   8.747  18.108  0.00  0.00    +0.000 A 
ATOM     20  C   UNL     1       1.217  10.881  18.563  0.00  0.00    +0.000 C 
ATOM     21  C   UNL     1       0.348  11.559  19.595  0.00  0.00    +0.000 C 
ATOM     22  C   UNL     1      -0.685  10.548  20.055  0.00  0.00    +0.000 C 
ATOM     23  O   UNL     1      -0.041   9.516  20.829  0.00  0.00    +0.000 OA
ENDBRANCH  13  14
ENDBRANCH   5  13
TORSDOF 3
ENDMDL
MODEL 2
REMARK VINA RESULT:      -7.8      1.509      3.736
REMARK  Name = 
REMARK  4 active torsions:
REMARK  status: ('A' for Active; 'I' for Inactive)
REMARK    1  A    between atoms: C_1  and  C_2
REMARK    2  A    between atoms: C_6  and  C_7
REMARK    3  A    between atoms: N_11  and  C_12
REMARK    4  A    between atoms: C_12  and  C_13
REMARK                            x       y       z     vdW  Elec       q    Type
REMARK                         _______ _______ _______ _____ _____    ______ ____
ROOT
ATOM      1  C   UNL     1       4.504   4.451  17.187  0.00  0.00    +0.000 A 
ATOM      2  N   UNL     1       4.468   3.381  17.997  0.00  0.00    +0.000 NA
ATOM      3  C   UNL     1       3.192   2.862  18.289  0.00  0.00    +0.000 A 
ATOM      4  C   UNL     1       3.082   1.494  18.727  0.00  0.00    +0.000 A 
ATOM      5  N   UNL     1       3.407   5.507  17.441  0.00  0.00    +0.000 N 
ENDROOT
BRANCH   1  11
ATOM      6  C   UNL     1       7.187   6.102  17.785  0.00  0.00    +0.000 C 
ATOM      7  C   UNL     1       6.760   5.439  16.535  0.00  0.00    +0.000 A 
ATOM      8  N   UNL     1       7.497   5.561  15.376  0.00  0.00    +0.000 NA
ATOM      9  C   UNL     1       6.851   4.861  14.477  0.00  0.00    +0.000 A 
ATOM     10  N   UNL     1       5.764   4.229  15.025  0.00  0.00    +0.000 N 
ATOM     11  C   UNL     1       5.613   4.694  16.310  0.00  0.00    +0.000 A 
ATOM     12  H   UNL     1       5.114   3.648  14.518  0.00  0.00    +0.000 HD
ENDBRANCH   1  11
BRANCH   5  13
ATOM     13  C   UNL     1       3.581   6.396  18.557  0.00  0.00    +0.000 C 
BRANCH  13  14
ATOM     14  C   UNL     1       2.611   7.588  18.725  0.00  0.00    +0.000 A 
ATOM     15  C   UNL     1       2.077   8.485  17.706  0.00  0.00    +0.000 A 
ATOM     16  C   UNL     1       1.328   9.623  18.061  0.00  0.00    +0.000 A 
ATOM     17  C   UNL     1       0.964   9.747  19.392  0.00  0.00    +0.000 A 
ATOM     18  C   UNL     1       1.200   8.680  20.276  0.00  0.00    +0.000 A 
ATOM     19  C   UNL     1       2.054   7.659  19.953  0.00  0.00    +0.000 A 
ATOM     20  C   UNL     1       0.596   8.624  21.633  0.00  0.00    +0.000 C 
ATOM     21  C   UNL     1      -0.299   9.820  21.858  0.00  0.00    +0.000 C 
ATOM     22  C   UNL     1       0.396  11.028  21.261  0.00  0.00    +0.000 C 
ATOM     23  O   UNL     1       0.405  10.920  19.824  0.00  0.00    +0.000 OA
ENDBRANCH  13  14
ENDBRANCH   5  13
TORSDOF 3
ENDMDL
MODEL 3
REMARK VINA RESULT:      -7.7      1.588      3.388
REMARK  Name = 
REMARK  4 active torsions:
REMARK  status: ('A' for Active; 'I' for Inactive)
REMARK    1  A    between atoms: C_1  and  C_2
REMARK    2  A    between atoms: C_6  and  C_7
REMARK    3  A    between atoms: N_11  and  C_12
REMARK    4  A    between atoms: C_12  and  C_13
REMARK                            x       y       z     vdW  Elec       q    Type
REMARK                         _______ _______ _______ _____ _____    ______ ____
ROOT
ATOM      1  C   UNL     1       4.155   4.483  18.122  0.00  0.00    +0.000 A 
ATOM      2  N   UNL     1       3.660   3.381  18.707  0.00  0.00    +0.000 NA
ATOM      3  C   UNL     1       2.314   3.077  18.427  0.00  0.00    +0.000 A 
ATOM      4  C   UNL     1       1.856   1.723  18.602  0.00  0.00    +0.000 A 
ATOM      5  N   UNL     1       3.201   5.696  18.088  0.00  0.00    +0.000 N 
ENDROOT
BRANCH   1  11
ATOM      6  C   UNL     1       5.457   4.512  15.192  0.00  0.00    +0.000 C 
ATOM      7  C   UNL     1       6.126   4.560  16.509  0.00  0.00    +0.000 A 
ATOM      8  N   UNL     1       7.501   4.522  16.612  0.00  0.00    +0.000 NA
ATOM      9  C   UNL     1       7.755   4.584  17.896  0.00  0.00    +0.000 A 
ATOM     10  N   UNL     1       6.603   4.736  18.624  0.00  0.00    +0.000 N 
ATOM     11  C   UNL     1       5.541   4.588  17.765  0.00  0.00    +0.000 A 
ATOM     12  H   UNL     1       6.557   4.792  19.630  0.00  0.00    +0.000 HD
ENDBRANCH   1  11
BRANCH   5  13
ATOM     13  C   UNL     1       3.044   6.457  19.297  0.00  0.00    +0.000 C 
BRANCH  13  14
ATOM     14  C   UNL     1       2.209   7.758  19.262  0.00  0.00    +0.000 A 
ATOM     15  C   UNL     1       1.837   8.577  18.114  0.00  0.00    +0.000 A 
ATOM     16  C   UNL     1       1.207   9.823  18.285  0.00  0.00    +0.000 A 
ATOM     17  C   UNL     1       0.789  10.147  19.565  0.00  0.00    +0.000 A 
ATOM     18  C   UNL     1       0.852   9.177  20.581  0.00  0.00    +0.000 A 
ATOM     19  C   UNL     1       1.600   8.038  20.434  0.00  0.00    +0.000 A 
ATOM     20  C   UNL     1       0.174   9.352  21.891  0.00  0.00    +0.000 C 
ATOM     21  C   UNL     1      -0.588  10.655  21.917  0.00  0.00    +0.000 C 
ATOM     22  C   UNL     1       0.273  11.700  21.233  0.00  0.00    +0.000 C 
ATOM     23  O   UNL     1       0.346  11.418  19.822  0.00  0.00    +0.000 OA
ENDBRANCH  13  14
ENDBRANCH   5  13
TORSDOF 3
ENDMDL
MODEL 4
REMARK VINA RESULT:      -7.7      3.543      5.714
REMARK  Name = 
REMARK  4 active torsions:
REMARK  status: ('A' for Active; 'I' for Inactive)
REMARK    1  A    between atoms: C_1  and  C_2
REMARK    2  A    between atoms: C_6  and  C_7
REMARK    3  A    between atoms: N_11  and  C_12
REMARK    4  A    between atoms: C_12  and  C_13
REMARK                            x       y       z     vdW  Elec       q    Type
REMARK                         _______ _______ _______ _____ _____    ______ ____
ROOT
ATOM      1  C   UNL     1       7.326   6.355  17.310  0.00  0.00    +0.000 A 
ATOM      2  N   UNL     1       7.229   7.690  17.405  0.00  0.00    +0.000 NA
ATOM      3  C   UNL     1       8.249   8.340  18.128  0.00  0.00    +0.000 A 
ATOM      4  C   UNL     1       8.490   9.738  17.884  0.00  0.00    +0.000 A 
ATOM      5  N   UNL     1       7.781   5.634  18.597  0.00  0.00    +0.000 N 
ENDROOT
BRANCH   1  11
ATOM      6  C   UNL     1       4.617   6.875  15.674  0.00  0.00    +0.000 C 
ATOM      7  C   UNL     1       5.639   5.825  15.476  0.00  0.00    +0.000 A 
ATOM      8  N   UNL     1       5.457   4.821  14.548  0.00  0.00    +0.000 NA
ATOM      9  C   UNL     1       6.532   4.076  14.628  0.00  0.00    +0.000 A 
ATOM     10  N   UNL     1       7.435   4.598  15.518  0.00  0.00    +0.000 N 
ATOM     11  C   UNL     1       6.824   5.642  16.170  0.00  0.00    +0.000 A 
ATOM     12  H   UNL     1       8.324   4.184  15.751  0.00  0.00    +0.000 HD
ENDBRANCH   1  11
BRANCH   5  13
ATOM     13  C   UNL     1       6.808   5.450  19.639  0.00  0.00    +0.000 C 
BRANCH  13  14
ATOM     14  C   UNL     1       5.328   5.222  19.251  0.00  0.00    +0.000 A 
ATOM     15  C   UNL     1       4.270   6.207  19.057  0.00  0.00    +0.000 A 
ATOM     16  C   UNL     1       2.935   5.808  18.862  0.00  0.00    +0.000 A 
ATOM     17  C   UNL     1       2.702   4.456  18.676  0.00  0.00    +0.000 A 
ATOM     18  C   UNL     1       3.791   3.581  18.520  0.00  0.00    +0.000 A 
ATOM     19  C   UNL     1       5.064   3.957  18.861  0.00  0.00    +0.000 A 
ATOM     20  C   UNL     1       3.626   2.183  18.044  0.00  0.00    +0.000 C 
ATOM     21  C   UNL     1       2.175   1.904  17.730  0.00  0.00    +0.000 C 
ATOM     22  C   UNL     1       1.340   2.562  18.813  0.00  0.00    +0.000 C 
ATOM     23  O   UNL     1       1.412   3.995  18.674  0.00  0.00    +0.000 OA
ENDBRANCH  13  14
ENDBRANCH   5  13
TORSDOF 3
ENDMDL
MODEL 5
REMARK VINA RESULT:      -7.6      1.526      3.523
REMARK  Name = 
REMARK  4 active torsions:
REMARK  status: ('A' for Active; 'I' for Inactive)
REMARK    1  A    between atoms: C_1  and  C_2
REMARK    2  A    between atoms: C_6  and  C_7
REMARK    3  A    between atoms: N_11  and  C_12
REMARK    4  A    between atoms: C_12  and  C_13
REMARK                            x       y       z     vdW  Elec       q    Type
REMARK                         _______ _______ _______ _____ _____    ______ ____
ROOT
ATOM      1  C   UNL     1       3.839   4.508  17.715  0.00  0.00    +0.000 A 
ATOM      2  N   UNL     1       3.293   3.514  18.432  0.00  0.00    +0.000 NA
ATOM      3  C   UNL     1       1.893   3.381  18.350  0.00  0.00    +0.000 A 
ATOM      4  C   UNL     1       1.296   2.112  18.674  0.00  0.00    +0.000 A 
ATOM      5  N   UNL     1       3.052   5.836  17.723  0.00  0.00    +0.000 N 
ENDROOT
BRANCH   1  11
ATOM      6  C   UNL     1       6.612   5.369  19.077  0.00  0.00    +0.000 C 
ATOM      7  C   UNL     1       6.369   4.811  17.730  0.00  0.00    +0.000 A 
ATOM      8  N   UNL     1       7.393   4.689  16.814  0.00  0.00    +0.000 NA
ATOM      9  C   UNL     1       6.843   4.167  15.745  0.00  0.00    +0.000 A 
ATOM     10  N   UNL     1       5.519   3.879  15.957  0.00  0.00    +0.000 N 
ATOM     11  C   UNL     1       5.165   4.407  17.175  0.00  0.00    +0.000 A 
ATOM     12  H   UNL     1       4.895   3.486  15.269  0.00  0.00    +0.000 HD
ENDBRANCH   1  11
BRANCH   5  13
ATOM     13  C   UNL     1       3.161   6.670  18.888  0.00  0.00    +0.000 C 
BRANCH  13  14
ATOM     14  C   UNL     1       2.208   7.879  19.038  0.00  0.00    +0.000 A 
ATOM     15  C   UNL     1       1.636   8.728  17.999  0.00  0.00    +0.000 A 
ATOM     16  C   UNL     1       0.913   9.890  18.328  0.00  0.00    +0.000 A 
ATOM     17  C   UNL     1       0.609  10.085  19.665  0.00  0.00    +0.000 A 
ATOM     18  C   UNL     1       0.876   9.063  20.592  0.00  0.00    +0.000 A 
ATOM     19  C   UNL     1       1.707   8.018  20.284  0.00  0.00    +0.000 A 
ATOM     20  C   UNL     1       0.332   9.082  21.975  0.00  0.00    +0.000 C 
ATOM     21  C   UNL     1      -0.542  10.297  22.178  0.00  0.00    +0.000 C 
ATOM     22  C   UNL     1       0.135  11.466  21.489  0.00  0.00    +0.000 C 
ATOM     23  O   UNL     1       0.080  11.285  20.060  0.00  0.00    +0.000 OA
ENDBRANCH  13  14
ENDBRANCH   5  13
TORSDOF 3
ENDMDL
MODEL 6
REMARK VINA RESULT:      -7.5      1.750      3.752
REMARK  Name = 
REMARK  4 active torsions:
REMARK  status: ('A' for Active; 'I' for Inactive)
REMARK    1  A    between atoms: C_1  and  C_2
REMARK    2  A    between atoms: C_6  and  C_7
REMARK    3  A    between atoms: N_11  and  C_12
REMARK    4  A    between atoms: C_12  and  C_13
REMARK                            x       y       z     vdW  Elec       q    Type
REMARK                         _______ _______ _______ _____ _____    ______ ____
ROOT
ATOM      1  C   UNL     1       4.082   5.265  18.269  0.00  0.00    +0.000 A 
ATOM      2  N   UNL     1       3.908   4.988  19.571  0.00  0.00    +0.000 NA
ATOM      3  C   UNL     1       2.577   4.827  20.002  0.00  0.00    +0.000 A 
ATOM      4  C   UNL     1       2.322   4.083  21.208  0.00  0.00    +0.000 A 
ATOM      5  N   UNL     1       3.071   6.265  17.668  0.00  0.00    +0.000 N 
ENDROOT
BRANCH   1  11
ATOM      6  C   UNL     1       7.157   5.676  19.080  0.00  0.00    +0.000 C 
ATOM      7  C   UNL     1       6.589   5.044  17.871  0.00  0.00    +0.000 A 
ATOM      8  N   UNL     1       7.401   4.621  16.839  0.00  0.00    +0.000 NA
ATOM      9  C   UNL     1       6.589   4.115  15.943  0.00  0.00    +0.000 A 
ATOM     10  N   UNL     1       5.291   4.127  16.385  0.00  0.00    +0.000 N 
ATOM     11  C   UNL     1       5.254   4.840  17.559  0.00  0.00    +0.000 A 
ATOM     12  H   UNL     1       4.496   3.802  15.856  0.00  0.00    +0.000 HD
ENDBRANCH   1  11
BRANCH   5  13
ATOM     13  C   UNL     1       3.264   7.661  17.952  0.00  0.00    +0.000 C 
BRANCH  13  14
ATOM     14  C   UNL     1       2.082   8.483  18.516  0.00  0.00    +0.000 A 
ATOM     15  C   UNL     1       1.070   9.246  17.795  0.00  0.00    +0.000 A 
ATOM     16  C   UNL     1       0.157  10.069  18.480  0.00  0.00    +0.000 A 
ATOM     17  C   UNL     1       0.139   9.976  19.862  0.00  0.00    +0.000 A 
ATOM     18  C   UNL     1       0.887   8.970  20.498  0.00  0.00    +0.000 A 
ATOM     19  C   UNL     1       1.873   8.287  19.836  0.00  0.00    +0.000 A 
ATOM     20  C   UNL     1       0.704   8.630  21.933  0.00  0.00    +0.000 C 
ATOM     21  C   UNL     1      -0.395   9.473  22.536  0.00  0.00    +0.000 C 
ATOM     22  C   UNL     1      -0.246  10.878  21.983  0.00  0.00    +0.000 C 
ATOM     23  O   UNL     1      -0.588  10.886  20.583  0.00  0.00    +0.000 OA
ENDBRANCH  13  14
ENDBRANCH   5  13
TORSDOF 3
ENDMDL
MODEL 7
REMARK VINA RESULT:      -7.4      1.449      2.414
REMARK  Name = 
REMARK  4 active torsions:
REMARK  status: ('A' for Active; 'I' for Inactive)
REMARK    1  A    between atoms: C_1  and  C_2
REMARK    2  A    between atoms: C_6  and  C_7
REMARK    3  A    between atoms: N_11  and  C_12
REMARK    4  A    between atoms: C_12  and  C_13
REMARK                            x       y       z     vdW  Elec       q    Type
REMARK                         _______ _______ _______ _____ _____    ______ ____
ROOT
ATOM      1  C   UNL     1       3.972   4.810  18.343  0.00  0.00    +0.000 A 
ATOM      2  N   UNL     1       4.944   4.534  17.459  0.00  0.00    +0.000 NA
ATOM      3  C   UNL     1       6.186   5.160  17.681  0.00  0.00    +0.000 A 
ATOM      4  C   UNL     1       7.370   4.578  17.105  0.00  0.00    +0.000 A 
ATOM      5  N   UNL     1       3.894   6.284  18.797  0.00  0.00    +0.000 N 
ENDROOT
BRANCH   1  11
ATOM      6  C   UNL     1       4.219   2.145  20.108  0.00  0.00    +0.000 C 
ATOM      7  C   UNL     1       3.045   2.678  19.384  0.00  0.00    +0.000 A 
ATOM      8  N   UNL     1       1.867   1.965  19.315  0.00  0.00    +0.000 NA
ATOM      9  C   UNL     1       1.049   2.713  18.615  0.00  0.00    +0.000 A 
ATOM     10  N   UNL     1       1.627   3.914  18.292  0.00  0.00    +0.000 N 
ATOM     11  C   UNL     1       2.949   3.856  18.660  0.00  0.00    +0.000 A 
ATOM     12  H   UNL     1       1.188   4.639  17.745  0.00  0.00    +0.000 HD
ENDBRANCH   1  11
BRANCH   5  13
ATOM     13  C   UNL     1       3.290   7.228  17.897  0.00  0.00    +0.000 C 
BRANCH  13  14
ATOM     14  C   UNL     1       2.200   8.185  18.435  0.00  0.00    +0.000 A 
ATOM     15  C   UNL     1       1.312   9.071  17.691  0.00  0.00    +0.000 A 
ATOM     16  C   UNL     1       0.485   9.996  18.357  0.00  0.00    +0.000 A 
ATOM     17  C   UNL     1       0.413   9.896  19.737  0.00  0.00    +0.000 A 
ATOM     18  C   UNL     1       1.012   8.801  20.384  0.00  0.00    +0.000 A 
ATOM     19  C   UNL     1       1.928   8.007  19.745  0.00  0.00    +0.000 A 
ATOM     20  C   UNL     1       0.744   8.477  21.809  0.00  0.00    +0.000 C 
ATOM     21  C   UNL     1      -0.262   9.444  22.388  0.00  0.00    +0.000 C 
ATOM     22  C   UNL     1       0.075  10.824  21.855  0.00  0.00    +0.000 C 
ATOM     23  O   UNL     1      -0.220  10.883  20.445  0.00  0.00    +0.000 OA
ENDBRANCH  13  14
ENDBRANCH   5  13
TORSDOF 3
ENDMDL
MODEL 8
REMARK VINA RESULT:      -7.4      1.527      2.171
REMARK  Name = 
REMARK  4 active torsions:
REMARK  status: ('A' for Active; 'I' for Inactive)
REMARK    1  A    between atoms: C_1  and  C_2
REMARK    2  A    between atoms: C_6  and  C_7
REMARK    3  A    between atoms: N_11  and  C_12
REMARK    4  A    between atoms: C_12  and  C_13
REMARK                            x       y       z     vdW  Elec       q    Type
REMARK                         _______ _______ _______ _____ _____    ______ ____
ROOT
ATOM      1  C   UNL     1       4.224   4.752  18.811  0.00  0.00    +0.000 A 
ATOM      2  N   UNL     1       5.191   4.414  17.944  0.00  0.00    +0.000 NA
ATOM      3  C   UNL     1       6.397   5.137  18.040  0.00  0.00    +0.000 A 
ATOM      4  C   UNL     1       7.602   4.552  17.513  0.00  0.00    +0.000 A 
ATOM      5  N   UNL     1       4.063   6.267  19.061  0.00  0.00    +0.000 N 
ENDROOT
BRANCH   1  11
ATOM      6  C   UNL     1       1.331   4.062  17.613  0.00  0.00    +0.000 C 
ATOM      7  C   UNL     1       2.001   3.509  18.810  0.00  0.00    +0.000 A 
ATOM      8  N   UNL     1       1.345   2.637  19.654  0.00  0.00    +0.000 NA
ATOM      9  C   UNL     1       2.211   2.346  20.593  0.00  0.00    +0.000 A 
ATOM     10  N   UNL     1       3.425   2.936  20.351  0.00  0.00    +0.000 N 
ATOM     11  C   UNL     1       3.270   3.792  19.287  0.00  0.00    +0.000 A 
ATOM     12  H   UNL     1       4.234   2.862  20.949  0.00  0.00    +0.000 HD
ENDBRANCH   1  11
BRANCH   5  13
ATOM     13  C   UNL     1       3.382   7.040  18.059  0.00  0.00    +0.000 C 
BRANCH  13  14
ATOM     14  C   UNL     1       2.308   8.062  18.502  0.00  0.00    +0.000 A 
ATOM     15  C   UNL     1       1.506   8.962  17.681  0.00  0.00    +0.000 A 
ATOM     16  C   UNL     1       0.687   9.944  18.269  0.00  0.00    +0.000 A 
ATOM     17  C   UNL     1       0.532   9.894  19.644  0.00  0.00    +0.000 A 
ATOM     18  C   UNL     1       1.042   8.797  20.359  0.00  0.00    +0.000 A 
ATOM     19  C   UNL     1       1.955   7.942  19.800  0.00  0.00    +0.000 A 
ATOM     20  C   UNL     1       0.679   8.533  21.776  0.00  0.00    +0.000 C 
ATOM     21  C   UNL     1      -0.312   9.564  22.264  0.00  0.00    +0.000 C 
ATOM     22  C   UNL     1       0.118  10.908  21.709  0.00  0.00    +0.000 C 
ATOM     23  O   UNL     1      -0.093  10.932  20.283  0.00  0.00    +0.000 OA
ENDBRANCH  13  14
ENDBRANCH   5  13
TORSDOF 3
ENDMDL
MODEL 9
REMARK VINA RESULT:      -7.4      1.489      3.753
REMARK  Name = 
REMARK  4 active torsions:
REMARK  status: ('A' for Active; 'I' for Inactive)
REMARK    1  A    between atoms: C_1  and  C_2
REMARK    2  A    between atoms: C_6  and  C_7
REMARK    3  A    between atoms: N_11  and  C_12
REMARK    4  A    between atoms: C_12  and  C_13
REMARK                            x       y       z     vdW  Elec       q    Type
REMARK                         _______ _______ _______ _____ _____    ______ ____
ROOT
ATOM      1  C   UNL     1       4.843   4.354  18.340  0.00  0.00    +0.000 A 
ATOM      2  N   UNL     1       5.286   3.517  19.291  0.00  0.00    +0.000 NA
ATOM      3  C   UNL     1       4.327   2.658  19.863  0.00  0.00    +0.000 A 
ATOM      4  C   UNL     1       4.773   1.450  20.506  0.00  0.00    +0.000 A 
ATOM      5  N   UNL     1       3.467   4.997  18.617  0.00  0.00    +0.000 N 
ENDROOT
BRANCH   1  11
ATOM      6  C   UNL     1       7.530   6.096  18.502  0.00  0.00    +0.000 C 
ATOM      7  C   UNL     1       6.828   5.574  17.310  0.00  0.00    +0.000 A 
ATOM      8  N   UNL     1       7.248   5.900  16.037  0.00  0.00    +0.000 NA
ATOM      9  C   UNL     1       6.422   5.280  15.230  0.00  0.00    +0.000 A 
ATOM     10  N   UNL     1       5.530   4.507  15.929  0.00  0.00    +0.000 N 
ATOM     11  C   UNL     1       5.688   4.788  17.264  0.00  0.00    +0.000 A 
ATOM     12  H   UNL     1       4.795   3.955  15.515  0.00  0.00    +0.000 HD
ENDBRANCH   1  11
BRANCH   5  13
ATOM     13  C   UNL     1       3.417   6.091  19.548  0.00  0.00    +0.000 C 
BRANCH  13  14
ATOM     14  C   UNL     1       2.572   7.338  19.195  0.00  0.00    +0.000 A 
ATOM     15  C   UNL     1       2.303   7.921  17.885  0.00  0.00    +0.000 A 
ATOM     16  C   UNL     1       1.641   9.158  17.764  0.00  0.00    +0.000 A 
ATOM     17  C   UNL     1       1.096   9.696  18.917  0.00  0.00    +0.000 A 
ATOM     18  C   UNL     1       1.073   8.930  20.096  0.00  0.00    +0.000 A 
ATOM     19  C   UNL     1       1.847   7.807  20.233  0.00  0.00    +0.000 A 
ATOM     20  C   UNL     1       0.268   9.320  21.282  0.00  0.00    +0.000 C 
ATOM     21  C   UNL     1      -0.511  10.582  20.996  0.00  0.00    +0.000 C 
ATOM     22  C   UNL     1       0.399  11.510  20.214  0.00  0.00    +0.000 C 
ATOM     23  O   UNL     1       0.614  10.978  18.892  0.00  0.00    +0.000 OA
ENDBRANCH  13  14
ENDBRANCH   5  13
TORSDOF 3
ENDMDL
