MODEL 1
REMARK VINA RESULT:      -7.8      0.000      0.000
REMARK  Name = 
REMARK  4 active torsions:
REMARK  status: ('A' for Active; 'I' for Inactive)
REMARK    1  A    between atoms: C_1  and  C_2
REMARK    2  A    between atoms: C_8  and  N_9
REMARK    3  A    between atoms: N_12  and  C_13
REMARK    4  A    between atoms: C_13  and  C_14
REMARK                            x       y       z     vdW  Elec       q    Type
REMARK                         _______ _______ _______ _____ _____    ______ ____
ROOT
ATOM      1  N   UNL     1       6.716   7.622  16.849  0.00  0.00    +0.000 N 
ATOM      2  C   UNL     1       7.675   7.951  17.794  0.00  0.00    +0.000 C 
ATOM      3  O   UNL     1       8.204   7.181  18.588  0.00  0.00    +0.000 OA
ATOM      4  N   UNL     1       8.044   9.283  17.791  0.00  0.00    +0.000 N 
ATOM      5  H   UNL     1       6.490   8.336  16.176  0.00  0.00    +0.000 HD
ATOM      6  H   UNL     1       7.347   9.965  17.530  0.00  0.00    +0.000 HD
ENDROOT
BRANCH   1  14
ATOM      7  C   UNL     1       3.979   7.114  17.783  0.00  0.00    +0.000 C 
ATOM      8  C   UNL     1       4.815   6.046  17.126  0.00  0.00    +0.000 A 
ATOM      9  C   UNL     1       4.293   4.740  16.931  0.00  0.00    +0.000 A 
ATOM     10 CL   UNL     1       2.702   4.277  17.438  0.00  0.00    +0.000 Cl
ATOM     11  C   UNL     1       5.044   3.735  16.315  0.00  0.00    +0.000 A 
ATOM     12  C   UNL     1       6.326   4.007  15.880  0.00  0.00    +0.000 A 
ATOM     13  C   UNL     1       6.859   5.280  16.068  0.00  0.00    +0.000 A 
ATOM     14  C   UNL     1       6.135   6.323  16.678  0.00  0.00    +0.000 A 
ENDBRANCH   1  14
BRANCH   4  15
ATOM     15  C   UNL     1       8.970   9.650  18.851  0.00  0.00    +0.000 C 
BRANCH  15  16
ATOM     16  C   UNL     1       9.603  11.008  18.730  0.00  0.00    +0.000 A 
ATOM     17  C   UNL     1      10.819  11.279  19.378  0.00  0.00    +0.000 A 
ATOM     18  C   UNL     1      11.474  12.494  19.169  0.00  0.00    +0.000 A 
ATOM     19  C   UNL     1      10.913  13.438  18.319  0.00  0.00    +0.000 A 
ATOM     20  F   UNL     1      11.552  14.596  18.108  0.00  0.00    +0.000 F 
ATOM     21  C   UNL     1       9.706  13.193  17.675  0.00  0.00    +0.000 A 
ATOM     22  C   UNL     1       9.048  11.980  17.883  0.00  0.00    +0.000 A 
ENDBRANCH  15  16
ENDBRANCH   4  15
TORSDOF 3
ENDMDL
MODEL 2
REMARK VINA RESULT:      -7.7      0.211      1.100
REMARK  Name = 
REMARK  4 active torsions:
REMARK  status: ('A' for Active; 'I' for Inactive)
REMARK    1  A    between atoms: C_1  and  C_2
REMARK    2  A    between atoms: C_8  and  N_9
REMARK    3  A    between atoms: N_12  and  C_13
REMARK    4  A    between atoms: C_13  and  C_14
REMARK                            x       y       z     vdW  Elec       q    Type
REMARK                         _______ _______ _______ _____ _____    ______ ____
ROOT
ATOM      1  N   UNL     1       6.803   7.583  16.820  0.00  0.00    +0.000 N 
ATOM      2  C   UNL     1       7.712   7.925  17.808  0.00  0.00    +0.000 C 
ATOM      3  O   UNL     1       8.219   7.161  18.622  0.00  0.00    +0.000 OA
ATOM      4  N   UNL     1       8.058   9.263  17.827  0.00  0.00    +0.000 N 
ATOM      5  H   UNL     1       6.595   8.296  16.141  0.00  0.00    +0.000 HD
ATOM      6  H   UNL     1       7.361   9.934  17.537  0.00  0.00    +0.000 HD
ENDROOT
BRANCH   1  14
ATOM      7  C   UNL     1       4.094   6.977  17.776  0.00  0.00    +0.000 C 
ATOM      8  C   UNL     1       4.947   5.950  17.077  0.00  0.00    +0.000 A 
ATOM      9  C   UNL     1       4.457   4.638  16.850  0.00  0.00    +0.000 A 
ATOM     10 CL   UNL     1       2.886   4.119  17.365  0.00  0.00    +0.000 Cl
ATOM     11  C   UNL     1       5.224   3.670  16.195  0.00  0.00    +0.000 A 
ATOM     12  C   UNL     1       6.493   3.989  15.752  0.00  0.00    +0.000 A 
ATOM     13  C   UNL     1       6.996   5.269  15.970  0.00  0.00    +0.000 A 
ATOM     14  C   UNL     1       6.253   6.274  16.619  0.00  0.00    +0.000 A 
ENDBRANCH   1  14
BRANCH   4  15
ATOM     15  C   UNL     1       8.928   9.642  18.928  0.00  0.00    +0.000 C 
BRANCH  15  16
ATOM     16  C   UNL     1       9.666  10.942  18.765  0.00  0.00    +0.000 A 
ATOM     17  C   UNL     1       9.175  11.928  17.894  0.00  0.00    +0.000 A 
ATOM     18  C   UNL     1       9.784  13.182  17.833  0.00  0.00    +0.000 A 
ATOM     19  C   UNL     1      10.887  13.449  18.635  0.00  0.00    +0.000 A 
ATOM     20  F   UNL     1      11.459  14.659  18.585  0.00  0.00    +0.000 F 
ATOM     21  C   UNL     1      11.395  12.484  19.496  0.00  0.00    +0.000 A 
ATOM     22  C   UNL     1      10.788  11.228  19.559  0.00  0.00    +0.000 A 
ENDBRANCH  15  16
ENDBRANCH   4  15
TORSDOF 3
ENDMDL
MODEL 3
REMARK VINA RESULT:      -7.1      6.958      9.713
REMARK  Name = 
REMARK  4 active torsions:
REMARK  status: ('A' for Active; 'I' for Inactive)
REMARK    1  A    between atoms: C_1  and  C_2
REMARK    2  A    between atoms: C_8  and  N_9
REMARK    3  A    between atoms: N_12  and  C_13
REMARK    4  A    between atoms: C_13  and  C_14
REMARK                            x       y       z     vdW  Elec       q    Type
REMARK                         _______ _______ _______ _____ _____    ______ ____
ROOT
ATOM      1  N   UNL     1       0.864   9.908  17.830  0.00  0.00    +0.000 N 
ATOM      2  C   UNL     1       1.636   8.911  18.407  0.00  0.00    +0.000 C 
ATOM      3  O   UNL     1       1.603   8.556  19.580  0.00  0.00    +0.000 OA
ATOM      4  N   UNL     1       2.499   8.280  17.531  0.00  0.00    +0.000 N 
ATOM      5  H   UNL     1       0.905   9.978  16.828  0.00  0.00    +0.000 HD
ATOM      6  H   UNL     1       2.875   8.821  16.767  0.00  0.00    +0.000 HD
ENDROOT
BRANCH   1  14
ATOM      7  C   UNL     1      -1.963   9.906  17.039  0.00  0.00    +0.000 C 
ATOM      8  C   UNL     1      -1.445  10.763  18.166  0.00  0.00    +0.000 A 
ATOM      9  C   UNL     1      -2.324  11.605  18.895  0.00  0.00    +0.000 A 
ATOM     10 CL   UNL     1      -4.017  11.727  18.543  0.00  0.00    +0.000 Cl
ATOM     11  C   UNL     1      -1.871  12.400  19.951  0.00  0.00    +0.000 A 
ATOM     12  C   UNL     1      -0.536  12.374  20.304  0.00  0.00    +0.000 A 
ATOM     13  C   UNL     1       0.345  11.559  19.596  0.00  0.00    +0.000 A 
ATOM     14  C   UNL     1      -0.071  10.738  18.531  0.00  0.00    +0.000 A 
ENDBRANCH   1  14
BRANCH   4  15
ATOM     15  C   UNL     1       3.383   7.309  18.156  0.00  0.00    +0.000 C 
BRANCH  15  16
ATOM     16  C   UNL     1       3.117   5.867  17.823  0.00  0.00    +0.000 A 
ATOM     17  C   UNL     1       4.138   5.069  17.281  0.00  0.00    +0.000 A 
ATOM     18  C   UNL     1       3.935   3.701  17.086  0.00  0.00    +0.000 A 
ATOM     19  C   UNL     1       2.714   3.133  17.426  0.00  0.00    +0.000 A 
ATOM     20  F   UNL     1       2.528   1.819  17.253  0.00  0.00    +0.000 F 
ATOM     21  C   UNL     1       1.688   3.908  17.954  0.00  0.00    +0.000 A 
ATOM     22  C   UNL     1       1.886   5.276  18.149  0.00  0.00    +0.000 A 
ENDBRANCH  15  16
ENDBRANCH   4  15
TORSDOF 3
ENDMDL
MODEL 4
REMARK VINA RESULT:      -7.0      6.606      8.421
REMARK  Name = 
REMARK  4 active torsions:
REMARK  status: ('A' for Active; 'I' for Inactive)
REMARK    1  A    between atoms: C_1  and  C_2
REMARK    2  A    between atoms: C_8  and  N_9
REMARK    3  A    between atoms: N_12  and  C_13
REMARK    4  A    between atoms: C_13  and  C_14
REMARK                            x       y       z     vdW  Elec       q    Type
REMARK                         _______ _______ _______ _____ _____    ______ ____
ROOT
ATOM      1  N   UNL     1       2.812   7.040  17.925  0.00  0.00    +0.000 N 
ATOM      2  C   UNL     1       2.169   7.886  18.815  0.00  0.00    +0.000 C 
ATOM      3  O   UNL     1       2.119   7.756  20.033  0.00  0.00    +0.000 OA
ATOM      4  N   UNL     1       1.553   8.973  18.223  0.00  0.00    +0.000 N 
ATOM      5  H   UNL     1       2.885   7.365  16.976  0.00  0.00    +0.000 HD
ATOM      6  H   UNL     1       1.183   8.856  17.292  0.00  0.00    +0.000 HD
ENDROOT
BRANCH   1  14
ATOM      7  C   UNL     1       1.425   4.468  17.641  0.00  0.00    +0.000 C 
ATOM      8  C   UNL     1       2.836   4.566  18.159  0.00  0.00    +0.000 A 
ATOM      9  C   UNL     1       3.553   3.397  18.527  0.00  0.00    +0.000 A 
ATOM     10 CL   UNL     1       2.871   1.807  18.430  0.00  0.00    +0.000 Cl
ATOM     11  C   UNL     1       4.866   3.460  19.000  0.00  0.00    +0.000 A 
ATOM     12  C   UNL     1       5.494   4.685  19.117  0.00  0.00    +0.000 A 
ATOM     13  C   UNL     1       4.806   5.844  18.768  0.00  0.00    +0.000 A 
ATOM     14  C   UNL     1       3.485   5.825  18.280  0.00  0.00    +0.000 A 
ENDBRANCH   1  14
BRANCH   4  15
ATOM     15  C   UNL     1       0.789   9.802  19.142  0.00  0.00    +0.000 C 
BRANCH  15  16
ATOM     16  C   UNL     1      -0.545  10.280  18.642  0.00  0.00    +0.000 A 
ATOM     17  C   UNL     1      -1.195  11.351  19.279  0.00  0.00    +0.000 A 
ATOM     18  C   UNL     1      -2.371  11.880  18.745  0.00  0.00    +0.000 A 
ATOM     19  C   UNL     1      -2.901  11.338  17.582  0.00  0.00    +0.000 A 
ATOM     20  F   UNL     1      -4.021  11.858  17.063  0.00  0.00    +0.000 F 
ATOM     21  C   UNL     1      -2.279  10.273  16.942  0.00  0.00    +0.000 A 
ATOM     22  C   UNL     1      -1.104   9.740  17.473  0.00  0.00    +0.000 A 
ENDBRANCH  15  16
ENDBRANCH   4  15
TORSDOF 3
ENDMDL
MODEL 5
REMARK VINA RESULT:      -7.0      7.709     10.238
REMARK  Name = 
REMARK  4 active torsions:
REMARK  status: ('A' for Active; 'I' for Inactive)
REMARK    1  A    between atoms: C_1  and  C_2
REMARK    2  A    between atoms: C_8  and  N_9
REMARK    3  A    between atoms: N_12  and  C_13
REMARK    4  A    between atoms: C_13  and  C_14
REMARK                            x       y       z     vdW  Elec       q    Type
REMARK                         _______ _______ _______ _____ _____    ______ ____
ROOT
ATOM      1  N   UNL     1       0.606   9.381  20.114  0.00  0.00    +0.000 N 
ATOM      2  C   UNL     1       1.521   8.509  19.545  0.00  0.00    +0.000 C 
ATOM      3  O   UNL     1       1.884   8.501  18.373  0.00  0.00    +0.000 OA
ATOM      4  N   UNL     1       2.056   7.589  20.427  0.00  0.00    +0.000 N 
ATOM      5  H   UNL     1       0.527   9.351  21.116  0.00  0.00    +0.000 HD
ATOM      6  H   UNL     1       1.474   7.273  21.189  0.00  0.00    +0.000 HD
ENDROOT
BRANCH   1  14
ATOM      7  C   UNL     1       1.424  12.191  20.347  0.00  0.00    +0.000 C 
ATOM      8  C   UNL     1       0.249  11.764  19.505  0.00  0.00    +0.000 A 
ATOM      9  C   UNL     1      -0.507  12.723  18.782  0.00  0.00    +0.000 A 
ATOM     10 CL   UNL     1      -0.161  14.420  18.826  0.00  0.00    +0.000 Cl
ATOM     11  C   UNL     1      -1.594  12.352  17.986  0.00  0.00    +0.000 A 
ATOM     12  C   UNL     1      -1.950  11.020  17.892  0.00  0.00    +0.000 A 
ATOM     13  C   UNL     1      -1.225  10.064  18.598  0.00  0.00    +0.000 A 
ATOM     14  C   UNL     1      -0.120  10.395  19.406  0.00  0.00    +0.000 A 
ENDBRANCH   1  14
BRANCH   4  15
ATOM     15  C   UNL     1       2.933   6.607  19.809  0.00  0.00    +0.000 C 
BRANCH  15  16
ATOM     16  C   UNL     1       2.312   5.275  19.497  0.00  0.00    +0.000 A 
ATOM     17  C   UNL     1       1.639   4.557  20.500  0.00  0.00    +0.000 A 
ATOM     18  C   UNL     1       0.955   3.382  20.188  0.00  0.00    +0.000 A 
ATOM     19  C   UNL     1       0.946   2.920  18.878  0.00  0.00    +0.000 A 
ATOM     20  F   UNL     1       0.275   1.800  18.579  0.00  0.00    +0.000 F 
ATOM     21  C   UNL     1       1.613   3.609  17.873  0.00  0.00    +0.000 A 
ATOM     22  C   UNL     1       2.300   4.784  18.182  0.00  0.00    +0.000 A 
ENDBRANCH  15  16
ENDBRANCH   4  15
TORSDOF 3
ENDMDL
MODEL 6
REMARK VINA RESULT:      -7.0      7.520     10.123
REMARK  Name = 
REMARK  4 active torsions:
REMARK  status: ('A' for Active; 'I' for Inactive)
REMARK    1  A    between atoms: C_1  and  C_2
REMARK    2  A    between atoms: C_8  and  N_9
REMARK    3  A    between atoms: N_12  and  C_13
REMARK    4  A    between atoms: C_13  and  C_14
REMARK                            x       y       z     vdW  Elec       q    Type
REMARK                         _______ _______ _______ _____ _____    ______ ____
ROOT
ATOM      1  N   UNL     1       1.082   9.824  18.118  0.00  0.00    +0.000 N 
ATOM      2  C   UNL     1       1.592   8.790  18.889  0.00  0.00    +0.000 C 
ATOM      3  O   UNL     1       1.334   8.568  20.066  0.00  0.00    +0.000 OA
ATOM      4  N   UNL     1       2.460   7.952  18.214  0.00  0.00    +0.000 N 
ATOM      5  H   UNL     1       1.277   9.782  17.133  0.00  0.00    +0.000 HD
ATOM      6  H   UNL     1       3.024   8.351  17.479  0.00  0.00    +0.000 HD
ENDROOT
BRANCH   1  14
ATOM      7  C   UNL     1      -1.766   9.741  17.408  0.00  0.00    +0.000 C 
ATOM      8  C   UNL     1      -1.182  10.839  18.259  0.00  0.00    +0.000 A 
ATOM      9  C   UNL     1      -2.006  11.882  18.757  0.00  0.00    +0.000 A 
ATOM     10 CL   UNL     1      -3.703  11.983  18.416  0.00  0.00    +0.000 Cl
ATOM     11  C   UNL     1      -1.492  12.906  19.557  0.00  0.00    +0.000 A 
ATOM     12  C   UNL     1      -0.149  12.913  19.879  0.00  0.00    +0.000 A 
ATOM     13  C   UNL     1       0.679  11.903  19.395  0.00  0.00    +0.000 A 
ATOM     14  C   UNL     1       0.200  10.850  18.592  0.00  0.00    +0.000 A 
ENDBRANCH   1  14
BRANCH   4  15
ATOM     15  C   UNL     1       3.078   6.933  19.048  0.00  0.00    +0.000 C 
BRANCH  15  16
ATOM     16  C   UNL     1       2.441   5.573  19.004  0.00  0.00    +0.000 A 
ATOM     17  C   UNL     1       1.812   5.050  20.147  0.00  0.00    +0.000 A 
ATOM     18  C   UNL     1       1.112   3.845  20.078  0.00  0.00    +0.000 A 
ATOM     19  C   UNL     1       1.044   3.159  18.872  0.00  0.00    +0.000 A 
ATOM     20  F   UNL     1       0.357   2.011  18.805  0.00  0.00    +0.000 F 
ATOM     21  C   UNL     1       1.666   3.653  17.732  0.00  0.00    +0.000 A 
ATOM     22  C   UNL     1       2.369   4.858  17.798  0.00  0.00    +0.000 A 
ENDBRANCH  15  16
ENDBRANCH   4  15
TORSDOF 3
ENDMDL
MODEL 7
REMARK VINA RESULT:      -7.0      6.922      9.717
REMARK  Name = 
REMARK  4 active torsions:
REMARK  status: ('A' for Active; 'I' for Inactive)
REMARK    1  A    between atoms: C_1  and  C_2
REMARK    2  A    between atoms: C_8  and  N_9
REMARK    3  A    between atoms: N_12  and  C_13
REMARK    4  A    between atoms: C_13  and  C_14
REMARK                            x       y       z     vdW  Elec       q    Type
REMARK                         _______ _______ _______ _____ _____    ______ ____
ROOT
ATOM      1  N   UNL     1       0.781   9.810  17.782  0.00  0.00    +0.000 N 
ATOM      2  C   UNL     1       1.647   8.901  18.370  0.00  0.00    +0.000 C 
ATOM      3  O   UNL     1       1.728   8.647  19.567  0.00  0.00    +0.000 OA
ATOM      4  N   UNL     1       2.465   8.234  17.478  0.00  0.00    +0.000 N 
ATOM      5  H   UNL     1       0.735   9.794  16.777  0.00  0.00    +0.000 HD
ATOM      6  H   UNL     1       2.750   8.723  16.642  0.00  0.00    +0.000 HD
ENDROOT
BRANCH   1  14
ATOM      7  C   UNL     1      -2.053   9.850  17.020  0.00  0.00    +0.000 C 
ATOM      8  C   UNL     1      -1.511  10.701  18.139  0.00  0.00    +0.000 A 
ATOM      9  C   UNL     1      -2.369  11.558  18.875  0.00  0.00    +0.000 A 
ATOM     10 CL   UNL     1      -4.063  11.706  18.539  0.00  0.00    +0.000 Cl
ATOM     11  C   UNL     1      -1.893  12.350  19.923  0.00  0.00    +0.000 A 
ATOM     12  C   UNL     1      -0.555  12.304  20.262  0.00  0.00    +0.000 A 
ATOM     13  C   UNL     1       0.306  11.474  19.548  0.00  0.00    +0.000 A 
ATOM     14  C   UNL     1      -0.134  10.656  18.490  0.00  0.00    +0.000 A 
ENDBRANCH   1  14
BRANCH   4  15
ATOM     15  C   UNL     1       3.446   7.360  18.103  0.00  0.00    +0.000 C 
BRANCH  15  16
ATOM     16  C   UNL     1       3.208   5.885  17.942  0.00  0.00    +0.000 A 
ATOM     17  C   UNL     1       1.935   5.345  18.189  0.00  0.00    +0.000 A 
ATOM     18  C   UNL     1       1.675   3.999  17.923  0.00  0.00    +0.000 A 
ATOM     19  C   UNL     1       2.686   3.193  17.415  0.00  0.00    +0.000 A 
ATOM     20  F   UNL     1       2.430   1.907  17.145  0.00  0.00    +0.000 F 
ATOM     21  C   UNL     1       3.955   3.705  17.173  0.00  0.00    +0.000 A 
ATOM     22  C   UNL     1       4.219   5.050  17.440  0.00  0.00    +0.000 A 
ENDBRANCH  15  16
ENDBRANCH   4  15
TORSDOF 3
ENDMDL
MODEL 8
REMARK VINA RESULT:      -7.0      7.762     10.313
REMARK  Name = 
REMARK  4 active torsions:
REMARK  status: ('A' for Active; 'I' for Inactive)
REMARK    1  A    between atoms: C_1  and  C_2
REMARK    2  A    between atoms: C_8  and  N_9
REMARK    3  A    between atoms: N_12  and  C_13
REMARK    4  A    between atoms: C_13  and  C_14
REMARK                            x       y       z     vdW  Elec       q    Type
REMARK                         _______ _______ _______ _____ _____    ______ ____
ROOT
ATOM      1  N   UNL     1       0.644   9.444  20.164  0.00  0.00    +0.000 N 
ATOM      2  C   UNL     1       1.503   8.513  19.601  0.00  0.00    +0.000 C 
ATOM      3  O   UNL     1       1.846   8.460  18.425  0.00  0.00    +0.000 OA
ATOM      4  N   UNL     1       2.004   7.586  20.495  0.00  0.00    +0.000 N 
ATOM      5  H   UNL     1       0.580   9.441  21.167  0.00  0.00    +0.000 HD
ATOM      6  H   UNL     1       1.419   7.318  21.274  0.00  0.00    +0.000 HD
ENDROOT
BRANCH   1  14
ATOM      7  C   UNL     1       1.492  12.238  20.470  0.00  0.00    +0.000 C 
ATOM      8  C   UNL     1       0.345  11.840  19.578  0.00  0.00    +0.000 A 
ATOM      9  C   UNL     1      -0.370  12.820  18.841  0.00  0.00    +0.000 A 
ATOM     10 CL   UNL     1      -0.002  14.512  18.923  0.00  0.00    +0.000 Cl
ATOM     11  C   UNL     1      -1.431  12.477  17.998  0.00  0.00    +0.000 A 
ATOM     12  C   UNL     1      -1.802  11.152  17.871  0.00  0.00    +0.000 A 
ATOM     13  C   UNL     1      -1.118  10.176  18.590  0.00  0.00    +0.000 A 
ATOM     14  C   UNL     1      -0.040  10.478  19.444  0.00  0.00    +0.000 A 
ENDBRANCH   1  14
BRANCH   4  15
ATOM     15  C   UNL     1       2.819   6.546  19.888  0.00  0.00    +0.000 C 
BRANCH  15  16
ATOM     16  C   UNL     1       2.100   5.279  19.518  0.00  0.00    +0.000 A 
ATOM     17  C   UNL     1       2.155   4.796  18.200  0.00  0.00    +0.000 A 
ATOM     18  C   UNL     1       1.596   3.558  17.879  0.00  0.00    +0.000 A 
ATOM     19  C   UNL     1       0.978   2.806  18.870  0.00  0.00    +0.000 A 
ATOM     20  F   UNL     1       0.456   1.612  18.562  0.00  0.00    +0.000 F 
ATOM     21  C   UNL     1       0.904   3.271  20.177  0.00  0.00    +0.000 A 
ATOM     22  C   UNL     1       1.461   4.509  20.502  0.00  0.00    +0.000 A 
ENDBRANCH  15  16
ENDBRANCH   4  15
TORSDOF 3
ENDMDL
MODEL 9
REMARK VINA RESULT:      -7.0      6.622      8.457
REMARK  Name = 
REMARK  4 active torsions:
REMARK  status: ('A' for Active; 'I' for Inactive)
REMARK    1  A    between atoms: C_1  and  C_2
REMARK    2  A    between atoms: C_8  and  N_9
REMARK    3  A    between atoms: N_12  and  C_13
REMARK    4  A    between atoms: C_13  and  C_14
REMARK                            x       y       z     vdW  Elec       q    Type
REMARK                         _______ _______ _______ _____ _____    ______ ____
ROOT
ATOM      1  N   UNL     1       2.787   7.060  17.977  0.00  0.00    +0.000 N 
ATOM      2  C   UNL     1       2.145   7.890  18.883  0.00  0.00    +0.000 C 
ATOM      3  O   UNL     1       2.104   7.742  20.099  0.00  0.00    +0.000 OA
ATOM      4  N   UNL     1       1.518   8.981  18.311  0.00  0.00    +0.000 N 
ATOM      5  H   UNL     1       2.852   7.398  17.032  0.00  0.00    +0.000 HD
ATOM      6  H   UNL     1       1.143   8.875  17.380  0.00  0.00    +0.000 HD
ENDROOT
BRANCH   1  14
ATOM      7  C   UNL     1       1.417   4.483  17.658  0.00  0.00    +0.000 C 
ATOM      8  C   UNL     1       2.829   4.583  18.173  0.00  0.00    +0.000 A 
ATOM      9  C   UNL     1       3.555   3.413  18.519  0.00  0.00    +0.000 A 
ATOM     10 CL   UNL     1       2.883   1.820  18.400  0.00  0.00    +0.000 Cl
ATOM     11  C   UNL     1       4.870   3.478  18.989  0.00  0.00    +0.000 A 
ATOM     12  C   UNL     1       5.489   4.705  19.122  0.00  0.00    +0.000 A 
ATOM     13  C   UNL     1       4.792   5.865  18.794  0.00  0.00    +0.000 A 
ATOM     14  C   UNL     1       3.470   5.844  18.311  0.00  0.00    +0.000 A 
ENDBRANCH   1  14
BRANCH   4  15
ATOM     15  C   UNL     1       0.756   9.793  19.246  0.00  0.00    +0.000 C 
BRANCH  15  16
ATOM     16  C   UNL     1      -0.504  10.409  18.706  0.00  0.00    +0.000 A 
ATOM     17  C   UNL     1      -1.124   9.865  17.569  0.00  0.00    +0.000 A 
ATOM     18  C   UNL     1      -2.358  10.354  17.137  0.00  0.00    +0.000 A 
ATOM     19  C   UNL     1      -2.970  11.387  17.835  0.00  0.00    +0.000 A 
ATOM     20  F   UNL     1      -4.161  11.842  17.427  0.00  0.00    +0.000 F 
ATOM     21  C   UNL     1      -2.369  11.945  18.956  0.00  0.00    +0.000 A 
ATOM     22  C   UNL     1      -1.133  11.461  19.390  0.00  0.00    +0.000 A 
ENDBRANCH  15  16
ENDBRANCH   4  15
TORSDOF 3
ENDMDL
