MODEL 1
REMARK VINA RESULT:      -8.6      0.000      0.000
REMARK  Name = 
REMARK  4 active torsions:
REMARK  status: ('A' for Active; 'I' for Inactive)
REMARK    1  A    between atoms: C_2  and  C_3
REMARK    2  A    between atoms: C_6  and  C_7
REMARK    3  A    between atoms: C_7  and  N_8
REMARK    4  A    between atoms: C_14  and  C_16
REMARK                            x       y       z     vdW  Elec       q    Type
REMARK                         _______ _______ _______ _____ _____    ______ ____
ROOT
ATOM      1  N   UNL     1       2.202   5.183  19.510  0.00  0.00    +0.000 NA
ATOM      2  C   UNL     1       3.335   4.234  19.378  0.00  0.00    +0.000 C 
ATOM      3  C   UNL     1       3.733   4.870  18.013  0.00  0.00    +0.000 C 
ATOM      4  C   UNL     1       3.916   4.020  16.731  0.00  0.00    +0.000 C 
ATOM      5  C   UNL     1       5.344   3.480  16.589  0.00  0.00    +0.000 C 
ATOM      6  N   UNL     1       6.299   4.579  16.722  0.00  0.00    +0.000 N 
ATOM      7  C   UNL     1       7.018   5.260  15.731  0.00  0.00    +0.000 C 
ATOM      8  O   UNL     1       7.727   6.234  15.998  0.00  0.00    +0.000 OA
ATOM      9  C   UNL     1       6.240   5.193  18.033  0.00  0.00    +0.000 C 
ATOM     10  C   UNL     1       4.891   5.884  18.178  0.00  0.00    +0.000 C 
ATOM     11  C   UNL     1       2.255   5.393  18.038  0.00  0.00    +0.000 C 
ENDROOT
BRANCH   7  12
ATOM     12  C   UNL     1       6.999   4.837  14.307  0.00  0.00    +0.000 A 
ATOM     13  C   UNL     1       7.844   5.381  13.336  0.00  0.00    +0.000 A 
ATOM     14  C   UNL     1       7.724   5.010  11.997  0.00  0.00    +0.000 A 
ATOM     15  C   UNL     1       6.817   4.021  11.633  0.00  0.00    +0.000 A 
ATOM     16  C   UNL     1       6.058   3.395  12.616  0.00  0.00    +0.000 A 
ATOM     17  F   UNL     1       5.232   2.399  12.271  0.00  0.00    +0.000 F 
ATOM     18  C   UNL     1       6.138   3.792  13.946  0.00  0.00    +0.000 A 
ENDBRANCH   7  12
BRANCH   1  19
ATOM     19  C   UNL     1       2.464   6.493  20.139  0.00  0.00    +0.000 C 
BRANCH  19  23
ATOM     20  C   UNL     1       1.141  10.440  19.020  0.00  0.00    +0.000 A 
ATOM     21  C   UNL     1       0.734   9.868  20.229  0.00  0.00    +0.000 A 
ATOM     22  C   UNL     1       1.061   8.539  20.517  0.00  0.00    +0.000 A 
ATOM     23  C   UNL     1       1.807   7.755  19.611  0.00  0.00    +0.000 A 
ATOM     24  C   UNL     1       2.127   8.306  18.367  0.00  0.00    +0.000 A 
ATOM     25  C   UNL     1       1.798   9.640  18.076  0.00  0.00    +0.000 A 
BRANCH  20  27
ATOM     26  N   UNL     1       0.784  12.986  18.633  0.00  0.00    +0.000 NA
ATOM     27  C   UNL     1       0.945  11.845  18.788  0.00  0.00    +0.000 C 
ENDBRANCH  20  27
ENDBRANCH  19  23
ENDBRANCH   1  19
TORSDOF 4
ENDMDL
MODEL 2
REMARK VINA RESULT:      -8.5      1.325      1.711
REMARK  Name = 
REMARK  4 active torsions:
REMARK  status: ('A' for Active; 'I' for Inactive)
REMARK    1  A    between atoms: C_2  and  C_3
REMARK    2  A    between atoms: C_6  and  C_7
REMARK    3  A    between atoms: C_7  and  N_8
REMARK    4  A    between atoms: C_14  and  C_16
REMARK                            x       y       z     vdW  Elec       q    Type
REMARK                         _______ _______ _______ _____ _____    ______ ____
ROOT
ATOM      1  N   UNL     1       2.994   5.520  19.339  0.00  0.00    +0.000 NA
ATOM      2  C   UNL     1       4.187   4.665  19.125  0.00  0.00    +0.000 C 
ATOM      3  C   UNL     1       4.068   4.853  17.583  0.00  0.00    +0.000 C 
ATOM      4  C   UNL     1       4.021   3.651  16.608  0.00  0.00    +0.000 C 
ATOM      5  C   UNL     1       5.421   3.200  16.173  0.00  0.00    +0.000 C 
ATOM      6  N   UNL     1       6.173   4.350  15.673  0.00  0.00    +0.000 N 
ATOM      7  C   UNL     1       6.456   4.726  14.354  0.00  0.00    +0.000 C 
ATOM      8  O   UNL     1       7.036   5.782  14.090  0.00  0.00    +0.000 OA
ATOM      9  C   UNL     1       6.385   5.347  16.702  0.00  0.00    +0.000 C 
ATOM     10  C   UNL     1       5.035   5.948  17.072  0.00  0.00    +0.000 C 
ATOM     11  C   UNL     1       2.591   5.248  17.933  0.00  0.00    +0.000 C 
ENDROOT
BRANCH   7  12
ATOM     12  C   UNL     1       6.107   3.866  13.193  0.00  0.00    +0.000 A 
ATOM     13  C   UNL     1       4.807   3.744  12.695  0.00  0.00    +0.000 A 
ATOM     14  C   UNL     1       4.519   2.856  11.659  0.00  0.00    +0.000 A 
ATOM     15  C   UNL     1       5.550   2.147  11.052  0.00  0.00    +0.000 A 
ATOM     16  C   UNL     1       6.860   2.354  11.469  0.00  0.00    +0.000 A 
ATOM     17  F   UNL     1       7.857   1.718  10.840  0.00  0.00    +0.000 F 
ATOM     18  C   UNL     1       7.149   3.203  12.532  0.00  0.00    +0.000 A 
ENDBRANCH   7  12
BRANCH   1  19
ATOM     19  C   UNL     1       3.197   6.978  19.452  0.00  0.00    +0.000 C 
BRANCH  19  23
ATOM     20  C   UNL     1       0.311  10.171  19.688  0.00  0.00    +0.000 A 
ATOM     21  C   UNL     1       0.473   9.277  20.750  0.00  0.00    +0.000 A 
ATOM     22  C   UNL     1       1.314   8.169  20.607  0.00  0.00    +0.000 A 
ATOM     23  C   UNL     1       2.019   7.934  19.408  0.00  0.00    +0.000 A 
ATOM     24  C   UNL     1       1.778   8.781  18.322  0.00  0.00    +0.000 A 
ATOM     25  C   UNL     1       0.932   9.893  18.464  0.00  0.00    +0.000 A 
BRANCH  20  27
ATOM     26  N   UNL     1      -1.048  12.359  20.045  0.00  0.00    +0.000 NA
ATOM     27  C   UNL     1      -0.425  11.390  19.882  0.00  0.00    +0.000 C 
ENDBRANCH  20  27
ENDBRANCH  19  23
ENDBRANCH   1  19
TORSDOF 4
ENDMDL
MODEL 3
REMARK VINA RESULT:      -8.4      1.277      1.825
REMARK  Name = 
REMARK  4 active torsions:
REMARK  status: ('A' for Active; 'I' for Inactive)
REMARK    1  A    between atoms: C_2  and  C_3
REMARK    2  A    between atoms: C_6  and  C_7
REMARK    3  A    between atoms: C_7  and  N_8
REMARK    4  A    between atoms: C_14  and  C_16
REMARK                            x       y       z     vdW  Elec       q    Type
REMARK                         _______ _______ _______ _____ _____    ______ ____
ROOT
ATOM      1  N   UNL     1       1.920   5.577  19.768  0.00  0.00    +0.000 NA
ATOM      2  C   UNL     1       2.928   4.495  19.639  0.00  0.00    +0.000 C 
ATOM      3  C   UNL     1       3.438   5.105  18.299  0.00  0.00    +0.000 C 
ATOM      4  C   UNL     1       3.545   4.267  17.001  0.00  0.00    +0.000 C 
ATOM      5  C   UNL     1       4.897   3.554  16.878  0.00  0.00    +0.000 C 
ATOM      6  N   UNL     1       5.979   4.521  17.059  0.00  0.00    +0.000 N 
ATOM      7  C   UNL     1       6.803   5.127  16.102  0.00  0.00    +0.000 C 
ATOM      8  O   UNL     1       7.621   5.998  16.409  0.00  0.00    +0.000 OA
ATOM      9  C   UNL     1       5.964   5.109  18.384  0.00  0.00    +0.000 C 
ATOM     10  C   UNL     1       4.709   5.962  18.515  0.00  0.00    +0.000 C 
ATOM     11  C   UNL     1       2.037   5.810  18.303  0.00  0.00    +0.000 C 
ENDROOT
BRANCH   7  12
ATOM     12  C   UNL     1       6.767   4.741  14.668  0.00  0.00    +0.000 A 
ATOM     13  C   UNL     1       5.980   3.696  14.177  0.00  0.00    +0.000 A 
ATOM     14  C   UNL     1       6.050   3.318  12.836  0.00  0.00    +0.000 A 
ATOM     15  C   UNL     1       6.844   4.045  11.955  0.00  0.00    +0.000 A 
ATOM     16  C   UNL     1       7.538   5.157  12.419  0.00  0.00    +0.000 A 
ATOM     17  F   UNL     1       8.250   5.892  11.556  0.00  0.00    +0.000 F 
ATOM     18  C   UNL     1       7.509   5.512  13.763  0.00  0.00    +0.000 A 
ENDBRANCH   7  12
BRANCH   1  19
ATOM     19  C   UNL     1       2.328   6.829  20.435  0.00  0.00    +0.000 C 
BRANCH  19  23
ATOM     20  C   UNL     1      -0.091  10.138  19.103  0.00  0.00    +0.000 A 
ATOM     21  C   UNL     1       0.979   9.681  18.329  0.00  0.00    +0.000 A 
ATOM     22  C   UNL     1       1.835   8.697  18.834  0.00  0.00    +0.000 A 
ATOM     23  C   UNL     1       1.638   8.142  20.116  0.00  0.00    +0.000 A 
ATOM     24  C   UNL     1       0.623   8.673  20.917  0.00  0.00    +0.000 A 
ATOM     25  C   UNL     1      -0.237   9.662  20.412  0.00  0.00    +0.000 A 
BRANCH  20  27
ATOM     26  N   UNL     1      -1.870  11.738  18.085  0.00  0.00    +0.000 NA
ATOM     27  C   UNL     1      -1.062  11.031  18.531  0.00  0.00    +0.000 C 
ENDBRANCH  20  27
ENDBRANCH  19  23
ENDBRANCH   1  19
TORSDOF 4
ENDMDL
MODEL 4
REMARK VINA RESULT:      -8.4      1.590      2.104
REMARK  Name = 
REMARK  4 active torsions:
REMARK  status: ('A' for Active; 'I' for Inactive)
REMARK    1  A    between atoms: C_2  and  C_3
REMARK    2  A    between atoms: C_6  and  C_7
REMARK    3  A    between atoms: C_7  and  N_8
REMARK    4  A    between atoms: C_14  and  C_16
REMARK                            x       y       z     vdW  Elec       q    Type
REMARK                         _______ _______ _______ _____ _____    ______ ____
ROOT
ATOM      1  N   UNL     1       2.503   5.724  19.380  0.00  0.00    +0.000 NA
ATOM      2  C   UNL     1       3.703   4.861  19.241  0.00  0.00    +0.000 C 
ATOM      3  C   UNL     1       3.678   5.043  17.694  0.00  0.00    +0.000 C 
ATOM      4  C   UNL     1       3.684   3.838  16.723  0.00  0.00    +0.000 C 
ATOM      5  C   UNL     1       5.105   3.377  16.375  0.00  0.00    +0.000 C 
ATOM      6  N   UNL     1       5.891   4.522  15.916  0.00  0.00    +0.000 N 
ATOM      7  C   UNL     1       6.255   4.890  14.615  0.00  0.00    +0.000 C 
ATOM      8  O   UNL     1       6.855   5.942  14.383  0.00  0.00    +0.000 OA
ATOM      9  C   UNL     1       6.046   5.523  16.953  0.00  0.00    +0.000 C 
ATOM     10  C   UNL     1       4.680   6.132  17.238  0.00  0.00    +0.000 C 
ATOM     11  C   UNL     1       2.184   5.447  17.953  0.00  0.00    +0.000 C 
ENDROOT
BRANCH   7  12
ATOM     12  C   UNL     1       5.971   4.027  13.439  0.00  0.00    +0.000 A 
ATOM     13  C   UNL     1       4.690   3.847  12.914  0.00  0.00    +0.000 A 
ATOM     14  C   UNL     1       4.466   2.956  11.863  0.00  0.00    +0.000 A 
ATOM     15  C   UNL     1       5.543   2.307  11.270  0.00  0.00    +0.000 A 
ATOM     16  C   UNL     1       6.833   2.574  11.715  0.00  0.00    +0.000 A 
ATOM     17  F   UNL     1       7.872   1.995  11.100  0.00  0.00    +0.000 F 
ATOM     18  C   UNL     1       7.059   3.424  12.792  0.00  0.00    +0.000 A 
ENDBRANCH   7  12
BRANCH   1  19
ATOM     19  C   UNL     1       2.707   7.181  19.499  0.00  0.00    +0.000 C 
BRANCH  19  23
ATOM     20  C   UNL     1       0.154  10.004  21.523  0.00  0.00    +0.000 A 
ATOM     21  C   UNL     1       0.405   8.746  22.077  0.00  0.00    +0.000 A 
ATOM     22  C   UNL     1       1.124   7.793  21.347  0.00  0.00    +0.000 A 
ATOM     23  C   UNL     1       1.616   8.077  20.056  0.00  0.00    +0.000 A 
ATOM     24  C   UNL     1       1.280   9.303  19.475  0.00  0.00    +0.000 A 
ATOM     25  C   UNL     1       0.557  10.260  20.206  0.00  0.00    +0.000 A 
BRANCH  20  27
ATOM     26  N   UNL     1      -0.958  11.860  22.965  0.00  0.00    +0.000 NA
ATOM     27  C   UNL     1      -0.444  11.035  22.325  0.00  0.00    +0.000 C 
ENDBRANCH  20  27
ENDBRANCH  19  23
ENDBRANCH   1  19
TORSDOF 4
ENDMDL
MODEL 5
REMARK VINA RESULT:      -8.3      0.912      1.300
REMARK  Name = 
REMARK  4 active torsions:
REMARK  status: ('A' for Active; 'I' for Inactive)
REMARK    1  A    between atoms: C_2  and  C_3
REMARK    2  A    between atoms: C_6  and  C_7
REMARK    3  A    between atoms: C_7  and  N_8
REMARK    4  A    between atoms: C_14  and  C_16
REMARK                            x       y       z     vdW  Elec       q    Type
REMARK                         _______ _______ _______ _____ _____    ______ ____
ROOT
ATOM      1  N   UNL     1       2.056   5.638  19.634  0.00  0.00    +0.000 NA
ATOM      2  C   UNL     1       3.092   4.583  19.512  0.00  0.00    +0.000 C 
ATOM      3  C   UNL     1       3.561   5.174  18.149  0.00  0.00    +0.000 C 
ATOM      4  C   UNL     1       3.669   4.308  16.870  0.00  0.00    +0.000 C 
ATOM      5  C   UNL     1       5.040   3.632  16.740  0.00  0.00    +0.000 C 
ATOM      6  N   UNL     1       6.096   4.634  16.878  0.00  0.00    +0.000 N 
ATOM      7  C   UNL     1       6.885   5.241  15.893  0.00  0.00    +0.000 C 
ATOM      8  O   UNL     1       7.683   6.141  16.164  0.00  0.00    +0.000 OA
ATOM      9  C   UNL     1       6.086   5.253  18.189  0.00  0.00    +0.000 C 
ATOM     10  C   UNL     1       4.810   6.072  18.322  0.00  0.00    +0.000 C 
ATOM     11  C   UNL     1       2.140   5.839  18.162  0.00  0.00    +0.000 C 
ENDROOT
BRANCH   7  12
ATOM     12  C   UNL     1       6.836   4.818  14.469  0.00  0.00    +0.000 A 
ATOM     13  C   UNL     1       7.836   5.128  13.544  0.00  0.00    +0.000 A 
ATOM     14  C   UNL     1       7.699   4.783  12.200  0.00  0.00    +0.000 A 
ATOM     15  C   UNL     1       6.597   4.041  11.788  0.00  0.00    +0.000 A 
ATOM     16  C   UNL     1       5.659   3.631  12.729  0.00  0.00    +0.000 A 
ATOM     17  F   UNL     1       4.633   2.864  12.340  0.00  0.00    +0.000 F 
ATOM     18  C   UNL     1       5.765   4.011  14.062  0.00  0.00    +0.000 A 
ENDBRANCH   7  12
BRANCH   1  19
ATOM     19  C   UNL     1       2.438   6.916  20.264  0.00  0.00    +0.000 C 
BRANCH  19  23
ATOM     20  C   UNL     1      -0.124  10.115  18.929  0.00  0.00    +0.000 A 
ATOM     21  C   UNL     1       0.927   9.663  18.127  0.00  0.00    +0.000 A 
ATOM     22  C   UNL     1       1.830   8.720  18.627  0.00  0.00    +0.000 A 
ATOM     23  C   UNL     1       1.699   8.200  19.932  0.00  0.00    +0.000 A 
ATOM     24  C   UNL     1       0.702   8.728  20.757  0.00  0.00    +0.000 A 
ATOM     25  C   UNL     1      -0.205   9.676  20.256  0.00  0.00    +0.000 A 
BRANCH  20  27
ATOM     26  N   UNL     1      -1.971  11.625  17.894  0.00  0.00    +0.000 NA
ATOM     27  C   UNL     1      -1.141  10.962  18.369  0.00  0.00    +0.000 C 
ENDBRANCH  20  27
ENDBRANCH  19  23
ENDBRANCH   1  19
TORSDOF 4
ENDMDL
MODEL 6
REMARK VINA RESULT:      -8.3      0.949      1.321
REMARK  Name = 
REMARK  4 active torsions:
REMARK  status: ('A' for Active; 'I' for Inactive)
REMARK    1  A    between atoms: C_2  and  C_3
REMARK    2  A    between atoms: C_6  and  C_7
REMARK    3  A    between atoms: C_7  and  N_8
REMARK    4  A    between atoms: C_14  and  C_16
REMARK                            x       y       z     vdW  Elec       q    Type
REMARK                         _______ _______ _______ _____ _____    ______ ____
ROOT
ATOM      1  N   UNL     1       2.058   5.152  19.809  0.00  0.00    +0.000 NA
ATOM      2  C   UNL     1       3.186   4.198  19.670  0.00  0.00    +0.000 C 
ATOM      3  C   UNL     1       3.576   4.829  18.300  0.00  0.00    +0.000 C 
ATOM      4  C   UNL     1       3.744   3.975  17.019  0.00  0.00    +0.000 C 
ATOM      5  C   UNL     1       5.169   3.429  16.867  0.00  0.00    +0.000 C 
ATOM      6  N   UNL     1       6.129   4.525  16.988  0.00  0.00    +0.000 N 
ATOM      7  C   UNL     1       6.843   5.201  15.990  0.00  0.00    +0.000 C 
ATOM      8  O   UNL     1       7.557   6.172  16.249  0.00  0.00    +0.000 OA
ATOM      9  C   UNL     1       6.083   5.142  18.299  0.00  0.00    +0.000 C 
ATOM     10  C   UNL     1       4.738   5.839  18.453  0.00  0.00    +0.000 C 
ATOM     11  C   UNL     1       2.100   5.358  18.336  0.00  0.00    +0.000 C 
ENDROOT
BRANCH   7  12
ATOM     12  C   UNL     1       6.810   4.774  14.568  0.00  0.00    +0.000 A 
ATOM     13  C   UNL     1       6.077   3.675  14.115  0.00  0.00    +0.000 A 
ATOM     14  C   UNL     1       6.151   3.265  12.784  0.00  0.00    +0.000 A 
ATOM     15  C   UNL     1       6.891   4.011  11.873  0.00  0.00    +0.000 A 
ATOM     16  C   UNL     1       7.527   5.172  12.298  0.00  0.00    +0.000 A 
ATOM     17  F   UNL     1       8.186   5.922  11.405  0.00  0.00    +0.000 F 
ATOM     18  C   UNL     1       7.496   5.561  13.632  0.00  0.00    +0.000 A 
ENDBRANCH   7  12
BRANCH   1  19
ATOM     19  C   UNL     1       2.330   6.462  20.433  0.00  0.00    +0.000 C 
BRANCH  19  23
ATOM     20  C   UNL     1       1.097  10.420  19.250  0.00  0.00    +0.000 A 
ATOM     21  C   UNL     1       0.683   9.880  20.470  0.00  0.00    +0.000 A 
ATOM     22  C   UNL     1       0.979   8.548  20.781  0.00  0.00    +0.000 A 
ATOM     23  C   UNL     1       1.701   7.731  19.886  0.00  0.00    +0.000 A 
ATOM     24  C   UNL     1       2.028   8.252  18.631  0.00  0.00    +0.000 A 
ATOM     25  C   UNL     1       1.730   9.588  18.318  0.00  0.00    +0.000 A 
BRANCH  20  27
ATOM     26  N   UNL     1       0.805  12.967  18.819  0.00  0.00    +0.000 NA
ATOM     27  C   UNL     1       0.934  11.824  18.994  0.00  0.00    +0.000 C 
ENDBRANCH  20  27
ENDBRANCH  19  23
ENDBRANCH   1  19
TORSDOF 4
ENDMDL
MODEL 7
REMARK VINA RESULT:      -8.3      6.196     11.884
REMARK  Name = 
REMARK  4 active torsions:
REMARK  status: ('A' for Active; 'I' for Inactive)
REMARK    1  A    between atoms: C_2  and  C_3
REMARK    2  A    between atoms: C_6  and  C_7
REMARK    3  A    between atoms: C_7  and  N_8
REMARK    4  A    between atoms: C_14  and  C_16
REMARK                            x       y       z     vdW  Elec       q    Type
REMARK                         _______ _______ _______ _____ _____    ______ ____
ROOT
ATOM      1  N   UNL     1       1.086  10.106  19.690  0.00  0.00    +0.000 NA
ATOM      2  C   UNL     1       0.980  11.424  20.364  0.00  0.00    +0.000 C 
ATOM      3  C   UNL     1      -0.558  11.238  20.529  0.00  0.00    +0.000 C 
ATOM      4  C   UNL     1      -1.572  12.302  20.043  0.00  0.00    +0.000 C 
ATOM      5  C   UNL     1      -1.859  13.363  21.112  0.00  0.00    +0.000 C 
ATOM      6  N   UNL     1      -2.230  12.708  22.366  0.00  0.00    +0.000 N 
ATOM      7  C   UNL     1      -3.495  12.538  22.944  0.00  0.00    +0.000 C 
ATOM      8  O   UNL     1      -3.653  11.879  23.974  0.00  0.00    +0.000 OA
ATOM      9  C   UNL     1      -1.149  11.900  22.895  0.00  0.00    +0.000 C 
ATOM     10  C   UNL     1      -0.917  10.731  21.947  0.00  0.00    +0.000 C 
ATOM     11  C   UNL     1      -0.365  10.192  19.375  0.00  0.00    +0.000 C 
ENDROOT
BRANCH   7  12
ATOM     12  C   UNL     1      -4.716  13.163  22.373  0.00  0.00    +0.000 A 
ATOM     13  C   UNL     1      -5.166  14.434  22.736  0.00  0.00    +0.000 A 
ATOM     14  C   UNL     1      -6.366  14.938  22.235  0.00  0.00    +0.000 A 
ATOM     15  C   UNL     1      -7.081  14.207  21.293  0.00  0.00    +0.000 A 
ATOM     16  C   UNL     1      -6.575  12.992  20.843  0.00  0.00    +0.000 A 
ATOM     17  F   UNL     1      -7.233  12.321  19.889  0.00  0.00    +0.000 F 
ATOM     18  C   UNL     1      -5.403  12.463  21.372  0.00  0.00    +0.000 A 
ENDBRANCH   7  12
BRANCH   1  19
ATOM     19  C   UNL     1       1.271   8.909  20.533  0.00  0.00    +0.000 C 
BRANCH  19  23
ATOM     20  C   UNL     1       2.228   5.133  18.687  0.00  0.00    +0.000 A 
ATOM     21  C   UNL     1       1.781   5.186  20.010  0.00  0.00    +0.000 A 
ATOM     22  C   UNL     1       1.603   6.424  20.637  0.00  0.00    +0.000 A 
ATOM     23  C   UNL     1       1.857   7.633  19.957  0.00  0.00    +0.000 A 
ATOM     24  C   UNL     1       2.392   7.567  18.667  0.00  0.00    +0.000 A 
ATOM     25  C   UNL     1       2.573   6.325  18.037  0.00  0.00    +0.000 A 
BRANCH  20  27
ATOM     26  N   UNL     1       2.283   2.875  17.398  0.00  0.00    +0.000 NA
ATOM     27  C   UNL     1       2.261   3.877  17.990  0.00  0.00    +0.000 C 
ENDBRANCH  20  27
ENDBRANCH  19  23
ENDBRANCH   1  19
TORSDOF 4
ENDMDL
MODEL 8
REMARK VINA RESULT:      -8.3      1.375      1.897
REMARK  Name = 
REMARK  4 active torsions:
REMARK  status: ('A' for Active; 'I' for Inactive)
REMARK    1  A    between atoms: C_2  and  C_3
REMARK    2  A    between atoms: C_6  and  C_7
REMARK    3  A    between atoms: C_7  and  N_8
REMARK    4  A    between atoms: C_14  and  C_16
REMARK                            x       y       z     vdW  Elec       q    Type
REMARK                         _______ _______ _______ _____ _____    ______ ____
ROOT
ATOM      1  N   UNL     1       2.307   5.767  19.581  0.00  0.00    +0.000 NA
ATOM      2  C   UNL     1       3.332   4.704  19.434  0.00  0.00    +0.000 C 
ATOM      3  C   UNL     1       3.502   5.051  17.925  0.00  0.00    +0.000 C 
ATOM      4  C   UNL     1       3.383   3.978  16.815  0.00  0.00    +0.000 C 
ATOM      5  C   UNL     1       4.721   3.285  16.529  0.00  0.00    +0.000 C 
ATOM      6  N   UNL     1       5.751   4.293  16.282  0.00  0.00    +0.000 N 
ATOM      7  C   UNL     1       6.310   4.718  15.070  0.00  0.00    +0.000 C 
ATOM      8  O   UNL     1       7.117   5.650  15.020  0.00  0.00    +0.000 OA
ATOM      9  C   UNL     1       5.982   5.128  17.444  0.00  0.00    +0.000 C 
ATOM     10  C   UNL     1       4.731   5.961  17.690  0.00  0.00    +0.000 C 
ATOM     11  C   UNL     1       2.092   5.712  18.110  0.00  0.00    +0.000 C 
ENDROOT
BRANCH   7  12
ATOM     12  C   UNL     1       5.994   4.058  13.777  0.00  0.00    +0.000 A 
ATOM     13  C   UNL     1       4.711   4.033  13.225  0.00  0.00    +0.000 A 
ATOM     14  C   UNL     1       4.451   3.323  12.052  0.00  0.00    +0.000 A 
ATOM     15  C   UNL     1       5.497   2.708  11.372  0.00  0.00    +0.000 A 
ATOM     16  C   UNL     1       6.794   2.831  11.859  0.00  0.00    +0.000 A 
ATOM     17  F   UNL     1       7.806   2.291  11.169  0.00  0.00    +0.000 F 
ATOM     18  C   UNL     1       7.053   3.496  13.052  0.00  0.00    +0.000 A 
ENDBRANCH   7  12
BRANCH   1  19
ATOM     19  C   UNL     1       2.766   7.134  19.896  0.00  0.00    +0.000 C 
BRANCH  19  23
ATOM     20  C   UNL     1      -0.343  10.022  19.140  0.00  0.00    +0.000 A 
ATOM     21  C   UNL     1       0.631   9.755  18.174  0.00  0.00    +0.000 A 
ATOM     22  C   UNL     1       1.707   8.917  18.482  0.00  0.00    +0.000 A 
ATOM     23  C   UNL     1       1.831   8.322  19.755  0.00  0.00    +0.000 A 
ATOM     24  C   UNL     1       0.904   8.670  20.741  0.00  0.00    +0.000 A 
ATOM     25  C   UNL     1      -0.177   9.512  20.433  0.00  0.00    +0.000 A 
BRANCH  20  27
ATOM     26  N   UNL     1      -2.490  11.325  18.464  0.00  0.00    +0.000 NA
ATOM     27  C   UNL     1      -1.528  10.752  18.781  0.00  0.00    +0.000 C 
ENDBRANCH  20  27
ENDBRANCH  19  23
ENDBRANCH   1  19
TORSDOF 4
ENDMDL
MODEL 9
REMARK VINA RESULT:      -8.2      6.536     12.052
REMARK  Name = 
REMARK  4 active torsions:
REMARK  status: ('A' for Active; 'I' for Inactive)
REMARK    1  A    between atoms: C_2  and  C_3
REMARK    2  A    between atoms: C_6  and  C_7
REMARK    3  A    between atoms: C_7  and  N_8
REMARK    4  A    between atoms: C_14  and  C_16
REMARK                            x       y       z     vdW  Elec       q    Type
REMARK                         _______ _______ _______ _____ _____    ______ ____
ROOT
ATOM      1  N   UNL     1       1.100  10.039  19.512  0.00  0.00    +0.000 NA
ATOM      2  C   UNL     1       0.990  11.376  20.146  0.00  0.00    +0.000 C 
ATOM      3  C   UNL     1      -0.537  11.166  20.368  0.00  0.00    +0.000 C 
ATOM      4  C   UNL     1      -1.588  12.194  19.882  0.00  0.00    +0.000 C 
ATOM      5  C   UNL     1      -1.861  13.285  20.925  0.00  0.00    +0.000 C 
ATOM      6  N   UNL     1      -2.178  12.665  22.211  0.00  0.00    +0.000 N 
ATOM      7  C   UNL     1      -3.419  12.490  22.836  0.00  0.00    +0.000 C 
ATOM      8  O   UNL     1      -3.531  11.864  23.892  0.00  0.00    +0.000 OA
ATOM      9  C   UNL     1      -1.064  11.896  22.729  0.00  0.00    +0.000 C 
ATOM     10  C   UNL     1      -0.840  10.700  21.812  0.00  0.00    +0.000 C 
ATOM     11  C   UNL     1      -0.363  10.087  19.243  0.00  0.00    +0.000 C 
ENDROOT
BRANCH   7  12
ATOM     12  C   UNL     1      -4.670  13.073  22.286  0.00  0.00    +0.000 A 
ATOM     13  C   UNL     1      -5.386  12.495  21.235  0.00  0.00    +0.000 A 
ATOM     14  C   UNL     1      -6.507  13.130  20.699  0.00  0.00    +0.000 A 
ATOM     15  C   UNL     1      -6.974  14.307  21.274  0.00  0.00    +0.000 A 
ATOM     16  C   UNL     1      -6.331  14.821  22.395  0.00  0.00    +0.000 A 
ATOM     17  F   UNL     1      -6.821  15.918  22.985  0.00  0.00    +0.000 F 
ATOM     18  C   UNL     1      -5.187  14.219  22.906  0.00  0.00    +0.000 A 
ENDBRANCH   7  12
BRANCH   1  19
ATOM     19  C   UNL     1       1.336   8.874  20.387  0.00  0.00    +0.000 C 
BRANCH  19  23
ATOM     20  C   UNL     1       2.270   5.069  18.588  0.00  0.00    +0.000 A 
ATOM     21  C   UNL     1       1.808   5.140  19.905  0.00  0.00    +0.000 A 
ATOM     22  C   UNL     1       1.637   6.385  20.518  0.00  0.00    +0.000 A 
ATOM     23  C   UNL     1       1.914   7.585  19.830  0.00  0.00    +0.000 A 
ATOM     24  C   UNL     1       2.464   7.500  18.547  0.00  0.00    +0.000 A 
ATOM     25  C   UNL     1       2.637   6.250  17.931  0.00  0.00    +0.000 A 
BRANCH  20  27
ATOM     26  N   UNL     1       2.303   2.797  17.325  0.00  0.00    +0.000 NA
ATOM     27  C   UNL     1       2.297   3.806  17.903  0.00  0.00    +0.000 C 
ENDBRANCH  20  27
ENDBRANCH  19  23
ENDBRANCH   1  19
TORSDOF 4
ENDMDL
