MODEL 1
REMARK VINA RESULT:      -8.0      0.000      0.000
REMARK  Name = 
REMARK  7 active torsions:
REMARK  status: ('A' for Active; 'I' for Inactive)
REMARK    1  A    between atoms: C_1  and  O_2
REMARK    2  A    between atoms: O_2  and  C_3
REMARK    3  A    between atoms: C_9  and  C_10
REMARK    4  A    between atoms: N_12  and  C_13
REMARK    5  A    between atoms: C_13  and  C_14
REMARK    6  A    between atoms: N_16  and  C_17
REMARK    7  A    between atoms: C_17  and  C_18
REMARK                            x       y       z     vdW  Elec       q    Type
REMARK                         _______ _______ _______ _____ _____    ______ ____
ROOT
ATOM      1  C   UNL     1       1.383   8.127  21.274  0.00  0.00    +0.000 C 
ENDROOT
BRANCH   1   2
ATOM      2  C   UNL     1       0.577   9.381  20.892  0.00  0.00    +0.000 C 
ATOM      3  C   UNL     1       0.630   9.669  19.376  0.00  0.00    +0.000 C 
ATOM      4  N   UNL     1      -0.114  10.889  18.975  0.00  0.00    +0.000 NA
ATOM      5  C   UNL     1       0.428  12.005  19.784  0.00  0.00    +0.000 C 
ATOM      6  C   UNL     1       0.432  11.727  21.300  0.00  0.00    +0.000 C 
ATOM      7  O   UNL     1       1.111  10.506  21.629  0.00  0.00    +0.000 OA
BRANCH   4   8
ATOM      8  C   UNL     1      -1.574  10.780  19.157  0.00  0.00    +0.000 C 
BRANCH   8   9
ATOM      9  C   UNL     1      -2.389  10.685  17.885  0.00  0.00    +0.000 A 
ATOM     10  C   UNL     1      -3.566  11.440  17.742  0.00  0.00    +0.000 A 
ATOM     11  C   UNL     1      -4.304  11.395  16.558  0.00  0.00    +0.000 A 
ATOM     12  C   UNL     1      -3.874  10.596  15.502  0.00  0.00    +0.000 A 
ATOM     13  C   UNL     1      -2.709   9.840  15.630  0.00  0.00    +0.000 A 
ATOM     14  C   UNL     1      -1.967   9.889  16.812  0.00  0.00    +0.000 A 
ENDBRANCH   8   9
ENDBRANCH   4   8
ENDBRANCH   1   2
BRANCH   1  17
ATOM     15  C   UNL     1       2.301   6.237  19.946  0.00  0.00    +0.000 C 
ATOM     16  O   UNL     1       1.739   5.406  20.653  0.00  0.00    +0.000 OA
ATOM     17  N   UNL     1       2.197   7.592  20.195  0.00  0.00    +0.000 N 
ATOM     18  H   UNL     1       2.734   8.224  19.611  0.00  0.00    +0.000 HD
BRANCH  15  25
ATOM     19  C   UNL     1       3.472   4.457  18.480  0.00  0.00    +0.000 A 
ATOM     20  C   UNL     1       4.306   4.187  17.382  0.00  0.00    +0.000 A 
ATOM     21  C   UNL     1       4.793   5.222  16.584  0.00  0.00    +0.000 A 
ATOM     22 CL   UNL     1       5.847   4.864  15.273  0.00  0.00    +0.000 Cl
ATOM     23  C   UNL     1       4.439   6.538  16.849  0.00  0.00    +0.000 A 
ATOM     24  C   UNL     1       3.604   6.817  17.931  0.00  0.00    +0.000 A 
ATOM     25  C   UNL     1       3.117   5.790  18.766  0.00  0.00    +0.000 A 
BRANCH  19  27
ATOM     26  C   UNL     1       3.910   2.522  19.786  0.00  0.00    +0.000 C 
ATOM     27  O   UNL     1       2.962   3.455  19.272  0.00  0.00    +0.000 OA
ENDBRANCH  19  27
ENDBRANCH  15  25
ENDBRANCH   1  17
TORSDOF 6
ENDMDL
MODEL 2
REMARK VINA RESULT:      -7.9      0.473      1.058
REMARK  Name = 
REMARK  7 active torsions:
REMARK  status: ('A' for Active; 'I' for Inactive)
REMARK    1  A    between atoms: C_1  and  O_2
REMARK    2  A    between atoms: O_2  and  C_3
REMARK    3  A    between atoms: C_9  and  C_10
REMARK    4  A    between atoms: N_12  and  C_13
REMARK    5  A    between atoms: C_13  and  C_14
REMARK    6  A    between atoms: N_16  and  C_17
REMARK    7  A    between atoms: C_17  and  C_18
REMARK                            x       y       z     vdW  Elec       q    Type
REMARK                         _______ _______ _______ _____ _____    ______ ____
ROOT
ATOM      1  C   UNL     1       1.441   8.214  21.404  0.00  0.00    +0.000 C 
ENDROOT
BRANCH   1   2
ATOM      2  C   UNL     1       0.638   9.445  20.947  0.00  0.00    +0.000 C 
ATOM      3  C   UNL     1       0.686   9.636  19.415  0.00  0.00    +0.000 C 
ATOM      4  N   UNL     1      -0.055  10.832  18.941  0.00  0.00    +0.000 NA
ATOM      5  C   UNL     1       0.495  11.995  19.676  0.00  0.00    +0.000 C 
ATOM      6  C   UNL     1       0.505  11.813  21.207  0.00  0.00    +0.000 C 
ATOM      7  O   UNL     1       1.179  10.612  21.610  0.00  0.00    +0.000 OA
BRANCH   4   8
ATOM      8  C   UNL     1      -1.515  10.742  19.136  0.00  0.00    +0.000 C 
BRANCH   8   9
ATOM      9  C   UNL     1      -2.347  10.731  17.871  0.00  0.00    +0.000 A 
ATOM     10  C   UNL     1      -1.967   9.928  16.782  0.00  0.00    +0.000 A 
ATOM     11  C   UNL     1      -2.748   9.876  15.627  0.00  0.00    +0.000 A 
ATOM     12  C   UNL     1      -3.919  10.626  15.546  0.00  0.00    +0.000 A 
ATOM     13  C   UNL     1      -4.308  11.428  16.618  0.00  0.00    +0.000 A 
ATOM     14  C   UNL     1      -3.530  11.477  17.776  0.00  0.00    +0.000 A 
ENDBRANCH   8   9
ENDBRANCH   4   8
ENDBRANCH   1   2
BRANCH   1  17
ATOM     15  C   UNL     1       2.102   6.242  20.043  0.00  0.00    +0.000 C 
ATOM     16  O   UNL     1       1.363   5.497  20.679  0.00  0.00    +0.000 OA
ATOM     17  N   UNL     1       2.217   7.585  20.347  0.00  0.00    +0.000 N 
ATOM     18  H   UNL     1       2.889   8.135  19.824  0.00  0.00    +0.000 HD
BRANCH  15  25
ATOM     19  C   UNL     1       3.111   4.338  18.613  0.00  0.00    +0.000 A 
ATOM     20  C   UNL     1       3.946   3.973  17.543  0.00  0.00    +0.000 A 
ATOM     21  C   UNL     1       4.575   4.943  16.765  0.00  0.00    +0.000 A 
ATOM     22 CL   UNL     1       5.626   4.465  15.490  0.00  0.00    +0.000 Cl
ATOM     23  C   UNL     1       4.365   6.292  17.021  0.00  0.00    +0.000 A 
ATOM     24  C   UNL     1       3.531   6.666  18.075  0.00  0.00    +0.000 A 
ATOM     25  C   UNL     1       2.902   5.703  18.890  0.00  0.00    +0.000 A 
BRANCH  19  27
ATOM     26  C   UNL     1       2.177   2.158  18.748  0.00  0.00    +0.000 C 
ATOM     27  O   UNL     1       2.463   3.402  19.385  0.00  0.00    +0.000 OA
ENDBRANCH  19  27
ENDBRANCH  15  25
ENDBRANCH   1  17
TORSDOF 6
ENDMDL
MODEL 3
REMARK VINA RESULT:      -7.8      3.340      8.082
REMARK  Name = 
REMARK  7 active torsions:
REMARK  status: ('A' for Active; 'I' for Inactive)
REMARK    1  A    between atoms: C_1  and  O_2
REMARK    2  A    between atoms: O_2  and  C_3
REMARK    3  A    between atoms: C_9  and  C_10
REMARK    4  A    between atoms: N_12  and  C_13
REMARK    5  A    between atoms: C_13  and  C_14
REMARK    6  A    between atoms: N_16  and  C_17
REMARK    7  A    between atoms: C_17  and  C_18
REMARK                            x       y       z     vdW  Elec       q    Type
REMARK                         _______ _______ _______ _____ _____    ______ ____
ROOT
ATOM      1  C   UNL     1       3.382   7.262  17.182  0.00  0.00    +0.000 C 
ENDROOT
BRANCH   1   2
ATOM      2  C   UNL     1       4.271   6.046  17.499  0.00  0.00    +0.000 C 
ATOM      3  C   UNL     1       4.426   5.818  19.018  0.00  0.00    +0.000 C 
ATOM      4  N   UNL     1       5.301   4.669  19.361  0.00  0.00    +0.000 NA
ATOM      5  C   UNL     1       6.599   4.905  18.688  0.00  0.00    +0.000 C 
ATOM      6  C   UNL     1       6.472   5.184  17.177  0.00  0.00    +0.000 C 
ATOM      7  O   UNL     1       5.568   6.263  16.895  0.00  0.00    +0.000 OA
BRANCH   4   8
ATOM      8  C   UNL     1       4.745   3.360  18.967  0.00  0.00    +0.000 C 
BRANCH   8   9
ATOM      9  C   UNL     1       3.297   3.123  19.341  0.00  0.00    +0.000 A 
ATOM     10  C   UNL     1       2.906   3.128  20.690  0.00  0.00    +0.000 A 
ATOM     11  C   UNL     1       1.567   2.954  21.046  0.00  0.00    +0.000 A 
ATOM     12  C   UNL     1       0.604   2.772  20.058  0.00  0.00    +0.000 A 
ATOM     13  C   UNL     1       0.977   2.764  18.714  0.00  0.00    +0.000 A 
ATOM     14  C   UNL     1       2.315   2.944  18.357  0.00  0.00    +0.000 A 
ENDBRANCH   8   9
ENDBRANCH   4   8
ENDBRANCH   1   2
BRANCH   1  17
ATOM     15  C   UNL     1       1.963   8.955  18.322  0.00  0.00    +0.000 C 
ATOM     16  O   UNL     1       2.101   9.757  17.403  0.00  0.00    +0.000 OA
ATOM     17  N   UNL     1       2.576   7.717  18.303  0.00  0.00    +0.000 N 
ATOM     18  H   UNL     1       2.471   7.124  19.119  0.00  0.00    +0.000 HD
BRANCH  15  25
ATOM     19  C   UNL     1       0.013  10.202  19.475  0.00  0.00    +0.000 A 
ATOM     20  C   UNL     1      -0.665  10.496  20.670  0.00  0.00    +0.000 A 
ATOM     21  C   UNL     1      -0.267   9.920  21.876  0.00  0.00    +0.000 A 
ATOM     22 CL   UNL     1      -1.089  10.334  23.330  0.00  0.00    +0.000 Cl
ATOM     23  C   UNL     1       0.793   9.024  21.910  0.00  0.00    +0.000 A 
ATOM     24  C   UNL     1       1.467   8.717  20.728  0.00  0.00    +0.000 A 
ATOM     25  C   UNL     1       1.098   9.304  19.500  0.00  0.00    +0.000 A 
BRANCH  19  27
ATOM     26  C   UNL     1      -1.580  10.229  17.713  0.00  0.00    +0.000 C 
ATOM     27  O   UNL     1      -0.370  10.740  18.269  0.00  0.00    +0.000 OA
ENDBRANCH  19  27
ENDBRANCH  15  25
ENDBRANCH   1  17
TORSDOF 6
ENDMDL
MODEL 4
REMARK VINA RESULT:      -7.8      3.391      8.147
REMARK  Name = 
REMARK  7 active torsions:
REMARK  status: ('A' for Active; 'I' for Inactive)
REMARK    1  A    between atoms: C_1  and  O_2
REMARK    2  A    between atoms: O_2  and  C_3
REMARK    3  A    between atoms: C_9  and  C_10
REMARK    4  A    between atoms: N_12  and  C_13
REMARK    5  A    between atoms: C_13  and  C_14
REMARK    6  A    between atoms: N_16  and  C_17
REMARK    7  A    between atoms: C_17  and  C_18
REMARK                            x       y       z     vdW  Elec       q    Type
REMARK                         _______ _______ _______ _____ _____    ______ ____
ROOT
ATOM      1  C   UNL     1       3.583   7.192  17.187  0.00  0.00    +0.000 C 
ENDROOT
BRANCH   1   2
ATOM      2  C   UNL     1       4.389   5.910  17.466  0.00  0.00    +0.000 C 
ATOM      3  C   UNL     1       4.632   5.692  18.976  0.00  0.00    +0.000 C 
ATOM      4  N   UNL     1       5.432   4.480  19.281  0.00  0.00    +0.000 NA
ATOM      5  C   UNL     1       6.694   4.596  18.514  0.00  0.00    +0.000 C 
ATOM      6  C   UNL     1       6.483   4.862  17.010  0.00  0.00    +0.000 C 
ATOM      7  O   UNL     1       5.654   6.009  16.770  0.00  0.00    +0.000 OA
BRANCH   4   8
ATOM      8  C   UNL     1       4.743   3.217  18.953  0.00  0.00    +0.000 C 
BRANCH   8   9
ATOM      9  C   UNL     1       3.291   3.131  19.376  0.00  0.00    +0.000 A 
ATOM     10  C   UNL     1       2.282   2.975  18.411  0.00  0.00    +0.000 A 
ATOM     11  C   UNL     1       0.945   2.851  18.791  0.00  0.00    +0.000 A 
ATOM     12  C   UNL     1       0.600   2.882  20.139  0.00  0.00    +0.000 A 
ATOM     13  C   UNL     1       1.590   3.038  21.108  0.00  0.00    +0.000 A 
ATOM     14  C   UNL     1       2.929   3.156  20.730  0.00  0.00    +0.000 A 
ENDBRANCH   8   9
ENDBRANCH   4   8
ENDBRANCH   1   2
BRANCH   1  17
ATOM     15  C   UNL     1       2.056   8.822  18.277  0.00  0.00    +0.000 C 
ATOM     16  O   UNL     1       2.081   9.568  17.303  0.00  0.00    +0.000 OA
ATOM     17  N   UNL     1       2.782   7.646  18.312  0.00  0.00    +0.000 N 
ATOM     18  H   UNL     1       2.766   7.104  19.168  0.00  0.00    +0.000 HD
BRANCH  15  25
ATOM     19  C   UNL     1       0.219  10.172  19.497  0.00  0.00    +0.000 A 
ATOM     20  C   UNL     1      -0.449  10.446  20.703  0.00  0.00    +0.000 A 
ATOM     21  C   UNL     1      -0.133   9.748  21.868  0.00  0.00    +0.000 A 
ATOM     22 CL   UNL     1      -0.936  10.135  23.339  0.00  0.00    +0.000 Cl
ATOM     23  C   UNL     1       0.831   8.749  21.848  0.00  0.00    +0.000 A 
ATOM     24  C   UNL     1       1.493   8.462  20.654  0.00  0.00    +0.000 A 
ATOM     25  C   UNL     1       1.208   9.170  19.468  0.00  0.00    +0.000 A 
BRANCH  19  27
ATOM     26  C   UNL     1      -1.392  11.398  18.255  0.00  0.00    +0.000 C 
ATOM     27  O   UNL     1      -0.086  10.832  18.330  0.00  0.00    +0.000 OA
ENDBRANCH  19  27
ENDBRANCH  15  25
ENDBRANCH   1  17
TORSDOF 6
ENDMDL
MODEL 5
REMARK VINA RESULT:      -7.6      3.889      8.643
REMARK  Name = 
REMARK  7 active torsions:
REMARK  status: ('A' for Active; 'I' for Inactive)
REMARK    1  A    between atoms: C_1  and  O_2
REMARK    2  A    between atoms: O_2  and  C_3
REMARK    3  A    between atoms: C_9  and  C_10
REMARK    4  A    between atoms: N_12  and  C_13
REMARK    5  A    between atoms: C_13  and  C_14
REMARK    6  A    between atoms: N_16  and  C_17
REMARK    7  A    between atoms: C_17  and  C_18
REMARK                            x       y       z     vdW  Elec       q    Type
REMARK                         _______ _______ _______ _____ _____    ______ ____
ROOT
ATOM      1  C   UNL     1       3.743   5.320  19.825  0.00  0.00    +0.000 C 
ENDROOT
BRANCH   1   2
ATOM      2  C   UNL     1       4.812   5.403  18.721  0.00  0.00    +0.000 C 
ATOM      3  C   UNL     1       4.892   4.104  17.889  0.00  0.00    +0.000 C 
ATOM      4  N   UNL     1       5.934   4.138  16.832  0.00  0.00    +0.000 NA
ATOM      5  C   UNL     1       7.214   4.462  17.504  0.00  0.00    +0.000 C 
ATOM      6  C   UNL     1       7.151   5.728  18.381  0.00  0.00    +0.000 C 
ATOM      7  O   UNL     1       6.089   5.671  19.346  0.00  0.00    +0.000 OA
BRANCH   4   8
ATOM      8  C   UNL     1       5.656   5.108  15.756  0.00  0.00    +0.000 C 
BRANCH   8   9
ATOM      9  C   UNL     1       6.117   4.703  14.372  0.00  0.00    +0.000 A 
ATOM     10  C   UNL     1       7.346   5.168  13.873  0.00  0.00    +0.000 A 
ATOM     11  C   UNL     1       7.804   4.767  12.616  0.00  0.00    +0.000 A 
ATOM     12  C   UNL     1       7.039   3.898  11.843  0.00  0.00    +0.000 A 
ATOM     13  C   UNL     1       5.817   3.430  12.325  0.00  0.00    +0.000 A 
ATOM     14  C   UNL     1       5.360   3.825  13.584  0.00  0.00    +0.000 A 
ENDBRANCH   8   9
ENDBRANCH   4   8
ENDBRANCH   1   2
BRANCH   1  17
ATOM     15  C   UNL     1       1.733   6.587  20.554  0.00  0.00    +0.000 C 
ATOM     16  O   UNL     1       1.119   5.557  20.814  0.00  0.00    +0.000 OA
ATOM     17  N   UNL     1       3.017   6.560  20.044  0.00  0.00    +0.000 N 
ATOM     18  H   UNL     1       3.446   7.444  19.793  0.00  0.00    +0.000 HD
BRANCH  15  25
ATOM     19  C   UNL     1       1.180   9.040  19.945  0.00  0.00    +0.000 A 
ATOM     20  C   UNL     1       0.596  10.257  20.338  0.00  0.00    +0.000 A 
ATOM     21  C   UNL     1      -0.051  10.374  21.567  0.00  0.00    +0.000 A 
ATOM     22 CL   UNL     1      -0.717  11.888  22.039  0.00  0.00    +0.000 Cl
ATOM     23  C   UNL     1      -0.153   9.278  22.414  0.00  0.00    +0.000 A 
ATOM     24  C   UNL     1       0.413   8.062  22.030  0.00  0.00    +0.000 A 
ATOM     25  C   UNL     1       1.094   7.925  20.802  0.00  0.00    +0.000 A 
BRANCH  19  27
ATOM     26  C   UNL     1       1.946  10.075  17.950  0.00  0.00    +0.000 C 
ATOM     27  O   UNL     1       1.807   8.890  18.731  0.00  0.00    +0.000 OA
ENDBRANCH  19  27
ENDBRANCH  15  25
ENDBRANCH   1  17
TORSDOF 6
ENDMDL
MODEL 6
REMARK VINA RESULT:      -7.6      3.513      8.206
REMARK  Name = 
REMARK  7 active torsions:
REMARK  status: ('A' for Active; 'I' for Inactive)
REMARK    1  A    between atoms: C_1  and  O_2
REMARK    2  A    between atoms: O_2  and  C_3
REMARK    3  A    between atoms: C_9  and  C_10
REMARK    4  A    between atoms: N_12  and  C_13
REMARK    5  A    between atoms: C_13  and  C_14
REMARK    6  A    between atoms: N_16  and  C_17
REMARK    7  A    between atoms: C_17  and  C_18
REMARK                            x       y       z     vdW  Elec       q    Type
REMARK                         _______ _______ _______ _____ _____    ______ ____
ROOT
ATOM      1  C   UNL     1       1.699   5.901  20.896  0.00  0.00    +0.000 C 
ENDROOT
BRANCH   1   2
ATOM      2  C   UNL     1       2.355   4.946  19.882  0.00  0.00    +0.000 C 
ATOM      3  C   UNL     1       2.742   5.665  18.571  0.00  0.00    +0.000 C 
ATOM      4  N   UNL     1       3.352   4.768  17.558  0.00  0.00    +0.000 NA
ATOM      5  C   UNL     1       2.395   3.659  17.337  0.00  0.00    +0.000 C 
ATOM      6  C   UNL     1       1.953   2.953  18.634  0.00  0.00    +0.000 C 
ATOM      7  O   UNL     1       1.427   3.872  19.604  0.00  0.00    +0.000 OA
BRANCH   4   8
ATOM      8  C   UNL     1       4.672   4.240  17.952  0.00  0.00    +0.000 C 
BRANCH   8   9
ATOM      9  C   UNL     1       5.786   5.261  18.047  0.00  0.00    +0.000 A 
ATOM     10  C   UNL     1       6.746   5.166  19.069  0.00  0.00    +0.000 A 
ATOM     11  C   UNL     1       7.803   6.074  19.142  0.00  0.00    +0.000 A 
ATOM     12  C   UNL     1       7.914   7.089  18.195  0.00  0.00    +0.000 A 
ATOM     13  C   UNL     1       6.968   7.197  17.176  0.00  0.00    +0.000 A 
ATOM     14  C   UNL     1       5.913   6.285  17.099  0.00  0.00    +0.000 A 
ENDBRANCH   8   9
ENDBRANCH   4   8
ENDBRANCH   1   2
BRANCH   1  17
ATOM     15  C   UNL     1       0.722   8.186  20.856  0.00  0.00    +0.000 C 
ATOM     16  O   UNL     1      -0.255   7.830  21.507  0.00  0.00    +0.000 OA
ATOM     17  N   UNL     1       1.717   7.298  20.494  0.00  0.00    +0.000 N 
ATOM     18  H   UNL     1       2.468   7.641  19.905  0.00  0.00    +0.000 HD
BRANCH  15  25
ATOM     19  C   UNL     1       0.635  10.736  21.277  0.00  0.00    +0.000 A 
ATOM     20  C   UNL     1       0.734  12.031  20.740  0.00  0.00    +0.000 A 
ATOM     21  C   UNL     1       1.046  12.224  19.395  0.00  0.00    +0.000 A 
ATOM     22 CL   UNL     1       1.116  13.819  18.756  0.00  0.00    +0.000 Cl
ATOM     23  C   UNL     1       1.290  11.135  18.568  0.00  0.00    +0.000 A 
ATOM     24  C   UNL     1       1.204   9.845  19.092  0.00  0.00    +0.000 A 
ATOM     25  C   UNL     1       0.868   9.624  20.444  0.00  0.00    +0.000 A 
BRANCH  19  27
ATOM     26  C   UNL     1      -0.955  10.905  23.033  0.00  0.00    +0.000 C 
ATOM     27  O   UNL     1       0.349  10.517  22.604  0.00  0.00    +0.000 OA
ENDBRANCH  19  27
ENDBRANCH  15  25
ENDBRANCH   1  17
TORSDOF 6
ENDMDL
MODEL 7
REMARK VINA RESULT:      -7.6      3.335      8.545
REMARK  Name = 
REMARK  7 active torsions:
REMARK  status: ('A' for Active; 'I' for Inactive)
REMARK    1  A    between atoms: C_1  and  O_2
REMARK    2  A    between atoms: O_2  and  C_3
REMARK    3  A    between atoms: C_9  and  C_10
REMARK    4  A    between atoms: N_12  and  C_13
REMARK    5  A    between atoms: C_13  and  C_14
REMARK    6  A    between atoms: N_16  and  C_17
REMARK    7  A    between atoms: C_17  and  C_18
REMARK                            x       y       z     vdW  Elec       q    Type
REMARK                         _______ _______ _______ _____ _____    ______ ____
ROOT
ATOM      1  C   UNL     1       2.701   7.938  18.214  0.00  0.00    +0.000 C 
ENDROOT
BRANCH   1   2
ATOM      2  C   UNL     1       2.842   6.557  18.880  0.00  0.00    +0.000 C 
ATOM      3  C   UNL     1       2.485   5.406  17.914  0.00  0.00    +0.000 C 
ATOM      4  N   UNL     1       2.583   4.060  18.532  0.00  0.00    +0.000 NA
ATOM      5  C   UNL     1       1.721   4.079  19.737  0.00  0.00    +0.000 C 
ATOM      6  C   UNL     1       2.023   5.247  20.697  0.00  0.00    +0.000 C 
ATOM      7  O   UNL     1       1.976   6.521  20.038  0.00  0.00    +0.000 OA
BRANCH   4   8
ATOM      8  C   UNL     1       3.960   3.669  18.888  0.00  0.00    +0.000 C 
BRANCH   8   9
ATOM      9  C   UNL     1       5.024   4.006  17.865  0.00  0.00    +0.000 A 
ATOM     10  C   UNL     1       6.205   4.656  18.261  0.00  0.00    +0.000 A 
ATOM     11  C   UNL     1       7.213   4.932  17.335  0.00  0.00    +0.000 A 
ATOM     12  C   UNL     1       7.052   4.563  16.002  0.00  0.00    +0.000 A 
ATOM     13  C   UNL     1       5.885   3.918  15.594  0.00  0.00    +0.000 A 
ATOM     14  C   UNL     1       4.878   3.636  16.520  0.00  0.00    +0.000 A 
ENDBRANCH   8   9
ENDBRANCH   4   8
ENDBRANCH   1   2
BRANCH   1  17
ATOM     15  C   UNL     1       1.386  10.043  18.355  0.00  0.00    +0.000 C 
ATOM     16  O   UNL     1       2.196  10.651  17.662  0.00  0.00    +0.000 OA
ATOM     17  N   UNL     1       1.569   8.715  18.692  0.00  0.00    +0.000 N 
ATOM     18  H   UNL     1       0.894   8.287  19.316  0.00  0.00    +0.000 HD
BRANCH  15  25
ATOM     19  C   UNL     1      -1.128  10.643  18.259  0.00  0.00    +0.000 A 
ATOM     20  C   UNL     1      -2.185  11.409  18.779  0.00  0.00    +0.000 A 
ATOM     21  C   UNL     1      -1.981  12.268  19.858  0.00  0.00    +0.000 A 
ATOM     22 CL   UNL     1      -3.283  13.226  20.444  0.00  0.00    +0.000 Cl
ATOM     23  C   UNL     1      -0.730  12.360  20.454  0.00  0.00    +0.000 A 
ATOM     24  C   UNL     1       0.324  11.597  19.953  0.00  0.00    +0.000 A 
ATOM     25  C   UNL     1       0.148  10.738  18.848  0.00  0.00    +0.000 A 
BRANCH  19  27
ATOM     26  C   UNL     1      -2.474   9.980  16.418  0.00  0.00    +0.000 C 
ATOM     27  O   UNL     1      -1.305   9.773  17.209  0.00  0.00    +0.000 OA
ENDBRANCH  19  27
ENDBRANCH  15  25
ENDBRANCH   1  17
TORSDOF 6
ENDMDL
MODEL 8
REMARK VINA RESULT:      -7.5      3.380      8.468
REMARK  Name = 
REMARK  7 active torsions:
REMARK  status: ('A' for Active; 'I' for Inactive)
REMARK    1  A    between atoms: C_1  and  O_2
REMARK    2  A    between atoms: O_2  and  C_3
REMARK    3  A    between atoms: C_9  and  C_10
REMARK    4  A    between atoms: N_12  and  C_13
REMARK    5  A    between atoms: C_13  and  C_14
REMARK    6  A    between atoms: N_16  and  C_17
REMARK    7  A    between atoms: C_17  and  C_18
REMARK                            x       y       z     vdW  Elec       q    Type
REMARK                         _______ _______ _______ _____ _____    ______ ____
ROOT
ATOM      1  C   UNL     1       2.545   8.043  18.280  0.00  0.00    +0.000 C 
ENDROOT
BRANCH   1   2
ATOM      2  C   UNL     1       2.777   6.673  18.943  0.00  0.00    +0.000 C 
ATOM      3  C   UNL     1       2.518   5.503  17.968  0.00  0.00    +0.000 C 
ATOM      4  N   UNL     1       2.705   4.165  18.583  0.00  0.00    +0.000 NA
ATOM      5  C   UNL     1       1.828   4.116  19.775  0.00  0.00    +0.000 C 
ATOM      6  C   UNL     1       2.030   5.299  20.743  0.00  0.00    +0.000 C 
ATOM      7  O   UNL     1       1.900   6.569  20.088  0.00  0.00    +0.000 OA
BRANCH   4   8
ATOM      8  C   UNL     1       4.102   3.874  18.957  0.00  0.00    +0.000 C 
BRANCH   8   9
ATOM      9  C   UNL     1       5.135   4.111  17.876  0.00  0.00    +0.000 A 
ATOM     10  C   UNL     1       4.872   3.723  16.551  0.00  0.00    +0.000 A 
ATOM     11  C   UNL     1       5.797   3.976  15.536  0.00  0.00    +0.000 A 
ATOM     12  C   UNL     1       6.996   4.619  15.834  0.00  0.00    +0.000 A 
ATOM     13  C   UNL     1       7.271   5.009  17.144  0.00  0.00    +0.000 A 
ATOM     14  C   UNL     1       6.344   4.762  18.159  0.00  0.00    +0.000 A 
ENDBRANCH   8   9
ENDBRANCH   4   8
ENDBRANCH   1   2
BRANCH   1  17
ATOM     15  C   UNL     1       1.410  10.209  18.724  0.00  0.00    +0.000 C 
ATOM     16  O   UNL     1       2.211  10.826  18.028  0.00  0.00    +0.000 OA
ATOM     17  N   UNL     1       1.514   8.845  18.919  0.00  0.00    +0.000 N 
ATOM     18  H   UNL     1       0.857   8.405  19.553  0.00  0.00    +0.000 HD
BRANCH  15  25
ATOM     19  C   UNL     1       0.081  11.069  20.769  0.00  0.00    +0.000 A 
ATOM     20  C   UNL     1      -1.074  11.712  21.248  0.00  0.00    +0.000 A 
ATOM     21  C   UNL     1      -2.035  12.204  20.366  0.00  0.00    +0.000 A 
ATOM     22 CL   UNL     1      -3.458  12.946  20.984  0.00  0.00    +0.000 Cl
ATOM     23  C   UNL     1      -1.852  12.091  18.995  0.00  0.00    +0.000 A 
ATOM     24  C   UNL     1      -0.705  11.464  18.507  0.00  0.00    +0.000 A 
ATOM     25  C   UNL     1       0.270  10.937  19.379  0.00  0.00    +0.000 A 
BRANCH  19  27
ATOM     26  C   UNL     1       0.710   9.430  22.368  0.00  0.00    +0.000 C 
ATOM     27  O   UNL     1       1.054  10.591  21.615  0.00  0.00    +0.000 OA
ENDBRANCH  19  27
ENDBRANCH  15  25
ENDBRANCH   1  17
TORSDOF 6
ENDMDL
MODEL 9
REMARK VINA RESULT:      -7.5      3.570      7.709
REMARK  Name = 
REMARK  7 active torsions:
REMARK  status: ('A' for Active; 'I' for Inactive)
REMARK    1  A    between atoms: C_1  and  O_2
REMARK    2  A    between atoms: O_2  and  C_3
REMARK    3  A    between atoms: C_9  and  C_10
REMARK    4  A    between atoms: N_12  and  C_13
REMARK    5  A    between atoms: C_13  and  C_14
REMARK    6  A    between atoms: N_16  and  C_17
REMARK    7  A    between atoms: C_17  and  C_18
REMARK                            x       y       z     vdW  Elec       q    Type
REMARK                         _______ _______ _______ _____ _____    ______ ____
ROOT
ATOM      1  C   UNL     1       1.831   5.641  21.108  0.00  0.00    +0.000 C 
ENDROOT
BRANCH   1   2
ATOM      2  C   UNL     1       2.249   4.433  20.251  0.00  0.00    +0.000 C 
ATOM      3  C   UNL     1       2.181   4.739  18.739  0.00  0.00    +0.000 C 
ATOM      4  N   UNL     1       2.550   3.585  17.881  0.00  0.00    +0.000 NA
ATOM      5  C   UNL     1       1.669   2.461  18.273  0.00  0.00    +0.000 C 
ATOM      6  C   UNL     1       1.680   2.163  19.786  0.00  0.00    +0.000 C 
ATOM      7  O   UNL     1       1.377   3.325  20.573  0.00  0.00    +0.000 OA
BRANCH   4   8
ATOM      8  C   UNL     1       3.968   3.193  17.992  0.00  0.00    +0.000 C 
BRANCH   8   9
ATOM      9  C   UNL     1       4.976   4.265  17.633  0.00  0.00    +0.000 A 
ATOM     10  C   UNL     1       5.003   4.803  16.335  0.00  0.00    +0.000 A 
ATOM     11  C   UNL     1       5.897   5.822  16.003  0.00  0.00    +0.000 A 
ATOM     12  C   UNL     1       6.776   6.315  16.964  0.00  0.00    +0.000 A 
ATOM     13  C   UNL     1       6.762   5.790  18.256  0.00  0.00    +0.000 A 
ATOM     14  C   UNL     1       5.864   4.774  18.591  0.00  0.00    +0.000 A 
ENDBRANCH   8   9
ENDBRANCH   4   8
ENDBRANCH   1   2
BRANCH   1  17
ATOM     15  C   UNL     1       1.005   7.949  20.697  0.00  0.00    +0.000 C 
ATOM     16  O   UNL     1       0.131   7.839  21.551  0.00  0.00    +0.000 OA
ATOM     17  N   UNL     1       1.868   6.912  20.401  0.00  0.00    +0.000 N 
ATOM     18  H   UNL     1       2.530   7.046  19.644  0.00  0.00    +0.000 HD
BRANCH  15  25
ATOM     19  C   UNL     1       1.650   9.371  18.635  0.00  0.00    +0.000 A 
ATOM     20  C   UNL     1       1.825  10.652  18.085  0.00  0.00    +0.000 A 
ATOM     21  C   UNL     1       1.540  11.794  18.833  0.00  0.00    +0.000 A 
ATOM     22 CL   UNL     1       1.806  13.349  18.148  0.00  0.00    +0.000 Cl
ATOM     23  C   UNL     1       1.052  11.681  20.128  0.00  0.00    +0.000 A 
ATOM     24  C   UNL     1       0.865  10.414  20.680  0.00  0.00    +0.000 A 
ATOM     25  C   UNL     1       1.168   9.244  19.953  0.00  0.00    +0.000 A 
BRANCH  19  27
ATOM     26  C   UNL     1       3.264   8.015  17.541  0.00  0.00    +0.000 C 
ATOM     27  O   UNL     1       1.904   8.227  17.914  0.00  0.00    +0.000 OA
ENDBRANCH  19  27
ENDBRANCH  15  25
ENDBRANCH   1  17
TORSDOF 6
ENDMDL
