MODEL 1
REMARK VINA RESULT:      -6.3      0.000      0.000
REMARK  Name = 
REMARK  15 active torsions:
REMARK  status: ('A' for Active; 'I' for Inactive)
REMARK    1  A    between atoms: C_1  and  C_2
REMARK    2  A    between atoms: C_2  and  C_3
REMARK    3  A    between atoms: C_3  and  C_4
REMARK    4  A    between atoms: C_4  and  C_5
REMARK    5  A    between atoms: C_5  and  C_6
REMARK    6  A    between atoms: C_6  and  C_7
REMARK    7  A    between atoms: C_7  and  N_8
REMARK    8  A    between atoms: N_8  and  C_9
REMARK    9  A    between atoms: N_8  and  C_11
REMARK   10  A    between atoms: N_8  and  C_13
REMARK   11  A    between atoms: C_9  and  C_10
REMARK   12  A    between atoms: C_11  and  C_12
REMARK   13  A    between atoms: C_13  and  C_14
REMARK   14  A    between atoms: C_15  and  C_16
REMARK   15  A    between atoms: C_16  and  C_17
REMARK                            x       y       z     vdW  Elec       q    Type
REMARK                         _______ _______ _______ _____ _____    ______ ____
ROOT
ATOM      1  N   UNL     1       5.339   5.538  17.274  0.00  0.00    +0.000 N 
ENDROOT
BRANCH   1   2
ATOM      2  C   UNL     1       6.782   5.793  17.798  0.00  0.00    +0.000 C 
ATOM      3  C   UNL     1       7.685   4.570  17.757  0.00  0.00    +0.000 C 
ENDBRANCH   1   2
BRANCH   1   4
ATOM      4  C   UNL     1       5.193   6.162  15.860  0.00  0.00    +0.000 C 
ATOM      5  C   UNL     1       5.576   5.230  14.718  0.00  0.00    +0.000 C 
ENDBRANCH   1   4
BRANCH   1   6
ATOM      6  C   UNL     1       5.028   4.007  17.187  0.00  0.00    +0.000 C 
BRANCH   6   7
ATOM      7  C   UNL     1       4.073   3.543  18.283  0.00  0.00    +0.000 C 
BRANCH   7   8
ATOM      8  C   UNL     1       2.848   2.803  17.753  0.00  0.00    +0.000 C 
BRANCH   8   9
ATOM      9  C   UNL     1       1.610   3.658  18.052  0.00  0.00    +0.000 C 
BRANCH   9  10
ATOM     10  C   UNL     1       1.603   4.212  19.471  0.00  0.00    +0.000 C 
BRANCH  10  12
ATOM     11  C   UNL     1       1.815   2.725  21.484  0.00  0.00    +0.000 C 
ATOM     12  C   UNL     1       0.880   3.247  20.412  0.00  0.00    +0.000 C 
ENDBRANCH  10  12
ENDBRANCH   9  10
ENDBRANCH   8   9
ENDBRANCH   7   8
ENDBRANCH   6   7
ENDBRANCH   1   6
BRANCH   1  13
ATOM     13  C   UNL     1       4.347   6.193  18.275  0.00  0.00    +0.000 C 
BRANCH  13  14
ATOM     14  C   UNL     1       3.512   7.314  17.744  0.00  0.00    +0.000 C 
ATOM     15  C   UNL     1       2.455   7.818  18.404  0.00  0.00    +0.000 C 
BRANCH  15  16
ATOM     16  C   UNL     1       1.623   8.953  17.874  0.00  0.00    +0.000 C 
BRANCH  16  17
ATOM     17  C   UNL     1       0.869   9.684  18.958  0.00  0.00    +0.000 A 
ATOM     18  C   UNL     1       0.100  10.818  18.657  0.00  0.00    +0.000 A 
ATOM     19  C   UNL     1      -0.642  11.456  19.655  0.00  0.00    +0.000 A 
ATOM     20  C   UNL     1      -0.609  10.969  20.959  0.00  0.00    +0.000 A 
ATOM     21 CL   UNL     1      -1.558  11.726  22.178  0.00  0.00    +0.000 Cl
ATOM     22  C   UNL     1       0.175   9.863  21.280  0.00  0.00    +0.000 A 
ATOM     23  C   UNL     1       0.917   9.226  20.283  0.00  0.00    +0.000 A 
ENDBRANCH  16  17
ENDBRANCH  15  16
ENDBRANCH  13  14
ENDBRANCH   1  13
TORSDOF 12
ENDMDL
MODEL 2
REMARK VINA RESULT:      -6.3      0.622      1.202
REMARK  Name = 
REMARK  15 active torsions:
REMARK  status: ('A' for Active; 'I' for Inactive)
REMARK    1  A    between atoms: C_1  and  C_2
REMARK    2  A    between atoms: C_2  and  C_3
REMARK    3  A    between atoms: C_3  and  C_4
REMARK    4  A    between atoms: C_4  and  C_5
REMARK    5  A    between atoms: C_5  and  C_6
REMARK    6  A    between atoms: C_6  and  C_7
REMARK    7  A    between atoms: C_7  and  N_8
REMARK    8  A    between atoms: N_8  and  C_9
REMARK    9  A    between atoms: N_8  and  C_11
REMARK   10  A    between atoms: N_8  and  C_13
REMARK   11  A    between atoms: C_9  and  C_10
REMARK   12  A    between atoms: C_11  and  C_12
REMARK   13  A    between atoms: C_13  and  C_14
REMARK   14  A    between atoms: C_15  and  C_16
REMARK   15  A    between atoms: C_16  and  C_17
REMARK                            x       y       z     vdW  Elec       q    Type
REMARK                         _______ _______ _______ _____ _____    ______ ____
ROOT
ATOM      1  N   UNL     1       4.901   5.113  17.543  0.00  0.00    +0.000 N 
ENDROOT
BRANCH   1   2
ATOM      2  C   UNL     1       6.076   4.519  18.373  0.00  0.00    +0.000 C 
ATOM      3  C   UNL     1       7.433   5.128  18.057  0.00  0.00    +0.000 C 
ENDBRANCH   1   2
BRANCH   1   4
ATOM      4  C   UNL     1       5.477   6.014  16.418  0.00  0.00    +0.000 C 
ATOM      5  C   UNL     1       5.494   5.367  15.039  0.00  0.00    +0.000 C 
ENDBRANCH   1   4
BRANCH   1   6
ATOM      6  C   UNL     1       4.035   3.983  16.893  0.00  0.00    +0.000 C 
BRANCH   6   7
ATOM      7  C   UNL     1       3.862   2.779  17.816  0.00  0.00    +0.000 C 
BRANCH   7   8
ATOM      8  C   UNL     1       2.441   2.223  17.834  0.00  0.00    +0.000 C 
BRANCH   8   9
ATOM      9  C   UNL     1       1.486   3.371  18.190  0.00  0.00    +0.000 C 
BRANCH   9  10
ATOM     10  C   UNL     1       0.637   3.073  19.419  0.00  0.00    +0.000 C 
BRANCH  10  12
ATOM     11  C   UNL     1       1.729   2.674  21.645  0.00  0.00    +0.000 C 
ATOM     12  C   UNL     1       1.255   3.721  20.658  0.00  0.00    +0.000 C 
ENDBRANCH  10  12
ENDBRANCH   9  10
ENDBRANCH   8   9
ENDBRANCH   7   8
ENDBRANCH   6   7
ENDBRANCH   1   6
BRANCH   1  13
ATOM     13  C   UNL     1       4.005   5.936  18.510  0.00  0.00    +0.000 C 
BRANCH  13  14
ATOM     14  C   UNL     1       3.276   7.096  17.912  0.00  0.00    +0.000 C 
ATOM     15  C   UNL     1       2.342   7.799  18.577  0.00  0.00    +0.000 C 
BRANCH  15  16
ATOM     16  C   UNL     1       1.617   8.972  17.979  0.00  0.00    +0.000 C 
BRANCH  16  17
ATOM     17  C   UNL     1       0.752   9.700  18.979  0.00  0.00    +0.000 A 
ATOM     18  C   UNL     1       0.803   9.373  20.342  0.00  0.00    +0.000 A 
ATOM     19  C   UNL     1       0.043  10.090  21.271  0.00  0.00    +0.000 A 
ATOM     20  C   UNL     1      -0.777  11.129  20.838  0.00  0.00    +0.000 A 
ATOM     21 CL   UNL     1      -1.677  12.041  21.986  0.00  0.00    +0.000 Cl
ATOM     22  C   UNL     1      -0.863  11.444  19.484  0.00  0.00    +0.000 A 
ATOM     23  C   UNL     1      -0.104  10.727  18.556  0.00  0.00    +0.000 A 
ENDBRANCH  16  17
ENDBRANCH  15  16
ENDBRANCH  13  14
ENDBRANCH   1  13
TORSDOF 12
ENDMDL
MODEL 3
REMARK VINA RESULT:      -6.3      1.151      1.378
REMARK  Name = 
REMARK  15 active torsions:
REMARK  status: ('A' for Active; 'I' for Inactive)
REMARK    1  A    between atoms: C_1  and  C_2
REMARK    2  A    between atoms: C_2  and  C_3
REMARK    3  A    between atoms: C_3  and  C_4
REMARK    4  A    between atoms: C_4  and  C_5
REMARK    5  A    between atoms: C_5  and  C_6
REMARK    6  A    between atoms: C_6  and  C_7
REMARK    7  A    between atoms: C_7  and  N_8
REMARK    8  A    between atoms: N_8  and  C_9
REMARK    9  A    between atoms: N_8  and  C_11
REMARK   10  A    between atoms: N_8  and  C_13
REMARK   11  A    between atoms: C_9  and  C_10
REMARK   12  A    between atoms: C_11  and  C_12
REMARK   13  A    between atoms: C_13  and  C_14
REMARK   14  A    between atoms: C_15  and  C_16
REMARK   15  A    between atoms: C_16  and  C_17
REMARK                            x       y       z     vdW  Elec       q    Type
REMARK                         _______ _______ _______ _____ _____    ______ ____
ROOT
ATOM      1  N   UNL     1       5.343   4.848  17.478  0.00  0.00    +0.000 N 
ENDROOT
BRANCH   1   2
ATOM      2  C   UNL     1       6.816   4.541  17.881  0.00  0.00    +0.000 C 
ATOM      3  C   UNL     1       7.572   5.739  18.433  0.00  0.00    +0.000 C 
ENDBRANCH   1   2
BRANCH   1   4
ATOM      4  C   UNL     1       5.180   4.638  15.950  0.00  0.00    +0.000 C 
ATOM      5  C   UNL     1       5.417   5.888  15.112  0.00  0.00    +0.000 C 
ENDBRANCH   1   4
BRANCH   1   6
ATOM      6  C   UNL     1       4.341   3.908  18.229  0.00  0.00    +0.000 C 
BRANCH   6   7
ATOM      7  C   UNL     1       3.440   3.135  17.270  0.00  0.00    +0.000 C 
BRANCH   7   8
ATOM      8  C   UNL     1       2.686   1.986  17.934  0.00  0.00    +0.000 C 
BRANCH   8   9
ATOM      9  C   UNL     1       2.273   2.439  19.340  0.00  0.00    +0.000 C 
BRANCH   9  10
ATOM     10  C   UNL     1       0.922   3.143  19.361  0.00  0.00    +0.000 C 
BRANCH  10  12
ATOM     11  C   UNL     1       2.268   4.360  21.096  0.00  0.00    +0.000 C 
ATOM     12  C   UNL     1       0.934   4.280  20.383  0.00  0.00    +0.000 C 
ENDBRANCH  10  12
ENDBRANCH   9  10
ENDBRANCH   8   9
ENDBRANCH   7   8
ENDBRANCH   6   7
ENDBRANCH   1   6
BRANCH   1  13
ATOM     13  C   UNL     1       5.039   6.320  17.873  0.00  0.00    +0.000 C 
BRANCH  13  14
ATOM     14  C   UNL     1       3.596   6.701  17.950  0.00  0.00    +0.000 C 
ATOM     15  C   UNL     1       3.154   7.952  17.731  0.00  0.00    +0.000 C 
BRANCH  15  16
ATOM     16  C   UNL     1       1.701   8.332  17.798  0.00  0.00    +0.000 C 
BRANCH  16  17
ATOM     17  C   UNL     1       1.268   8.756  19.180  0.00  0.00    +0.000 A 
ATOM     18  C   UNL     1       0.483   9.904  19.365  0.00  0.00    +0.000 A 
ATOM     19  C   UNL     1       0.036  10.258  20.641  0.00  0.00    +0.000 A 
ATOM     20  C   UNL     1       0.383   9.473  21.738  0.00  0.00    +0.000 A 
ATOM     21 CL   UNL     1      -0.204   9.883  23.302  0.00  0.00    +0.000 Cl
ATOM     22  C   UNL     1       1.189   8.349  21.575  0.00  0.00    +0.000 A 
ATOM     23  C   UNL     1       1.635   7.995  20.299  0.00  0.00    +0.000 A 
ENDBRANCH  16  17
ENDBRANCH  15  16
ENDBRANCH  13  14
ENDBRANCH   1  13
TORSDOF 12
ENDMDL
MODEL 4
REMARK VINA RESULT:      -6.2      1.210      1.812
REMARK  Name = 
REMARK  15 active torsions:
REMARK  status: ('A' for Active; 'I' for Inactive)
REMARK    1  A    between atoms: C_1  and  C_2
REMARK    2  A    between atoms: C_2  and  C_3
REMARK    3  A    between atoms: C_3  and  C_4
REMARK    4  A    between atoms: C_4  and  C_5
REMARK    5  A    between atoms: C_5  and  C_6
REMARK    6  A    between atoms: C_6  and  C_7
REMARK    7  A    between atoms: C_7  and  N_8
REMARK    8  A    between atoms: N_8  and  C_9
REMARK    9  A    between atoms: N_8  and  C_11
REMARK   10  A    between atoms: N_8  and  C_13
REMARK   11  A    between atoms: C_9  and  C_10
REMARK   12  A    between atoms: C_11  and  C_12
REMARK   13  A    between atoms: C_13  and  C_14
REMARK   14  A    between atoms: C_15  and  C_16
REMARK   15  A    between atoms: C_16  and  C_17
REMARK                            x       y       z     vdW  Elec       q    Type
REMARK                         _______ _______ _______ _____ _____    ______ ____
ROOT
ATOM      1  N   UNL     1       5.938   5.128  17.598  0.00  0.00    +0.000 N 
ENDROOT
BRANCH   1   2
ATOM      2  C   UNL     1       6.599   6.372  18.261  0.00  0.00    +0.000 C 
ATOM      3  C   UNL     1       7.629   7.070  17.387  0.00  0.00    +0.000 C 
ENDBRANCH   1   2
BRANCH   1   4
ATOM      4  C   UNL     1       6.918   4.526  16.556  0.00  0.00    +0.000 C 
ATOM      5  C   UNL     1       6.350   4.413  15.148  0.00  0.00    +0.000 C 
ENDBRANCH   1   4
BRANCH   1   6
ATOM      6  C   UNL     1       5.595   4.033  18.662  0.00  0.00    +0.000 C 
BRANCH   6   7
ATOM      7  C   UNL     1       4.098   3.955  18.954  0.00  0.00    +0.000 C 
BRANCH   7   8
ATOM      8  C   UNL     1       3.412   2.753  18.310  0.00  0.00    +0.000 C 
BRANCH   8   9
ATOM      9  C   UNL     1       1.962   3.146  17.997  0.00  0.00    +0.000 C 
BRANCH   9  10
ATOM     10  C   UNL     1       0.962   2.534  18.969  0.00  0.00    +0.000 C 
BRANCH  10  12
ATOM     11  C   UNL     1       1.484   2.781  21.412  0.00  0.00    +0.000 C 
ATOM     12  C   UNL     1       0.821   3.418  20.208  0.00  0.00    +0.000 C 
ENDBRANCH  10  12
ENDBRANCH   9  10
ENDBRANCH   8   9
ENDBRANCH   7   8
ENDBRANCH   6   7
ENDBRANCH   1   6
BRANCH   1  13
ATOM     13  C   UNL     1       4.621   5.595  16.918  0.00  0.00    +0.000 C 
BRANCH  13  14
ATOM     14  C   UNL     1       4.177   6.990  17.221  0.00  0.00    +0.000 C 
ATOM     15  C   UNL     1       2.891   7.323  17.424  0.00  0.00    +0.000 C 
BRANCH  15  16
ATOM     16  C   UNL     1       2.446   8.724  17.739  0.00  0.00    +0.000 C 
BRANCH  16  17
ATOM     17  C   UNL     1       1.647   8.813  19.016  0.00  0.00    +0.000 A 
ATOM     18  C   UNL     1       1.862   7.904  20.062  0.00  0.00    +0.000 A 
ATOM     19  C   UNL     1       1.161   8.027  21.265  0.00  0.00    +0.000 A 
ATOM     20  C   UNL     1       0.233   9.054  21.421  0.00  0.00    +0.000 A 
ATOM     21 CL   UNL     1      -0.598   9.235  22.917  0.00  0.00    +0.000 Cl
ATOM     22  C   UNL     1      -0.016   9.945  20.380  0.00  0.00    +0.000 A 
ATOM     23  C   UNL     1       0.685   9.821  19.178  0.00  0.00    +0.000 A 
ENDBRANCH  16  17
ENDBRANCH  15  16
ENDBRANCH  13  14
ENDBRANCH   1  13
TORSDOF 12
ENDMDL
MODEL 5
REMARK VINA RESULT:      -6.2      0.855      1.322
REMARK  Name = 
REMARK  15 active torsions:
REMARK  status: ('A' for Active; 'I' for Inactive)
REMARK    1  A    between atoms: C_1  and  C_2
REMARK    2  A    between atoms: C_2  and  C_3
REMARK    3  A    between atoms: C_3  and  C_4
REMARK    4  A    between atoms: C_4  and  C_5
REMARK    5  A    between atoms: C_5  and  C_6
REMARK    6  A    between atoms: C_6  and  C_7
REMARK    7  A    between atoms: C_7  and  N_8
REMARK    8  A    between atoms: N_8  and  C_9
REMARK    9  A    between atoms: N_8  and  C_11
REMARK   10  A    between atoms: N_8  and  C_13
REMARK   11  A    between atoms: C_9  and  C_10
REMARK   12  A    between atoms: C_11  and  C_12
REMARK   13  A    between atoms: C_13  and  C_14
REMARK   14  A    between atoms: C_15  and  C_16
REMARK   15  A    between atoms: C_16  and  C_17
REMARK                            x       y       z     vdW  Elec       q    Type
REMARK                         _______ _______ _______ _____ _____    ______ ____
ROOT
ATOM      1  N   UNL     1       5.052   5.640  17.135  0.00  0.00    +0.000 N 
ENDROOT
BRANCH   1   2
ATOM      2  C   UNL     1       5.982   6.645  17.876  0.00  0.00    +0.000 C 
ATOM      3  C   UNL     1       7.432   6.606  17.418  0.00  0.00    +0.000 C 
ENDBRANCH   1   2
BRANCH   1   4
ATOM      4  C   UNL     1       5.317   5.732  15.609  0.00  0.00    +0.000 C 
ATOM      5  C   UNL     1       5.578   4.392  14.933  0.00  0.00    +0.000 C 
ENDBRANCH   1   4
BRANCH   1   6
ATOM      6  C   UNL     1       5.313   4.171  17.607  0.00  0.00    +0.000 C 
BRANCH   6   7
ATOM      7  C   UNL     1       4.206   3.647  18.518  0.00  0.00    +0.000 C 
BRANCH   7   8
ATOM      8  C   UNL     1       3.504   2.406  17.974  0.00  0.00    +0.000 C 
BRANCH   8   9
ATOM      9  C   UNL     1       1.996   2.574  18.203  0.00  0.00    +0.000 C 
BRANCH   9  10
ATOM     10  C   UNL     1       1.672   3.648  19.232  0.00  0.00    +0.000 C 
BRANCH  10  12
ATOM     11  C   UNL     1       2.091   2.913  21.596  0.00  0.00    +0.000 C 
ATOM     12  C   UNL     1       1.066   3.014  20.485  0.00  0.00    +0.000 C 
ENDBRANCH  10  12
ENDBRANCH   9  10
ENDBRANCH   8   9
ENDBRANCH   7   8
ENDBRANCH   6   7
ENDBRANCH   1   6
BRANCH   1  13
ATOM     13  C   UNL     1       3.583   6.018  17.469  0.00  0.00    +0.000 C 
BRANCH  13  14
ATOM     14  C   UNL     1       3.290   7.478  17.613  0.00  0.00    +0.000 C 
ATOM     15  C   UNL     1       2.114   7.949  18.062  0.00  0.00    +0.000 C 
BRANCH  15  16
ATOM     16  C   UNL     1       1.824   9.417  18.217  0.00  0.00    +0.000 C 
BRANCH  16  17
ATOM     17  C   UNL     1       1.012   9.728  19.450  0.00  0.00    +0.000 A 
ATOM     18  C   UNL     1       1.037   8.870  20.560  0.00  0.00    +0.000 A 
ATOM     19  C   UNL     1       0.330   9.194  21.721  0.00  0.00    +0.000 A 
ATOM     20  C   UNL     1      -0.414  10.371  21.772  0.00  0.00    +0.000 A 
ATOM     21 CL   UNL     1      -1.248  10.792  23.217  0.00  0.00    +0.000 Cl
ATOM     22  C   UNL     1      -0.474  11.216  20.667  0.00  0.00    +0.000 A 
ATOM     23  C   UNL     1       0.233  10.892  19.507  0.00  0.00    +0.000 A 
ENDBRANCH  16  17
ENDBRANCH  15  16
ENDBRANCH  13  14
ENDBRANCH   1  13
TORSDOF 12
ENDMDL
MODEL 6
REMARK VINA RESULT:      -6.2      1.499      1.877
REMARK  Name = 
REMARK  15 active torsions:
REMARK  status: ('A' for Active; 'I' for Inactive)
REMARK    1  A    between atoms: C_1  and  C_2
REMARK    2  A    between atoms: C_2  and  C_3
REMARK    3  A    between atoms: C_3  and  C_4
REMARK    4  A    between atoms: C_4  and  C_5
REMARK    5  A    between atoms: C_5  and  C_6
REMARK    6  A    between atoms: C_6  and  C_7
REMARK    7  A    between atoms: C_7  and  N_8
REMARK    8  A    between atoms: N_8  and  C_9
REMARK    9  A    between atoms: N_8  and  C_11
REMARK   10  A    between atoms: N_8  and  C_13
REMARK   11  A    between atoms: C_9  and  C_10
REMARK   12  A    between atoms: C_11  and  C_12
REMARK   13  A    between atoms: C_13  and  C_14
REMARK   14  A    between atoms: C_15  and  C_16
REMARK   15  A    between atoms: C_16  and  C_17
REMARK                            x       y       z     vdW  Elec       q    Type
REMARK                         _______ _______ _______ _____ _____    ______ ____
ROOT
ATOM      1  N   UNL     1       4.231   5.468  17.787  0.00  0.00    +0.000 N 
ENDROOT
BRANCH   1   2
ATOM      2  C   UNL     1       4.836   5.500  19.221  0.00  0.00    +0.000 C 
ATOM      3  C   UNL     1       6.356   5.529  19.256  0.00  0.00    +0.000 C 
ENDBRANCH   1   2
BRANCH   1   4
ATOM      4  C   UNL     1       5.143   6.284  16.832  0.00  0.00    +0.000 C 
ATOM      5  C   UNL     1       5.501   5.567  15.537  0.00  0.00    +0.000 C 
ENDBRANCH   1   4
BRANCH   1   6
ATOM      6  C   UNL     1       4.118   4.002  17.250  0.00  0.00    +0.000 C 
BRANCH   6   7
ATOM      7  C   UNL     1       4.152   2.968  18.372  0.00  0.00    +0.000 C 
BRANCH   7   8
ATOM      8  C   UNL     1       3.034   1.933  18.281  0.00  0.00    +0.000 C 
BRANCH   8   9
ATOM      9  C   UNL     1       1.710   2.681  18.073  0.00  0.00    +0.000 C 
BRANCH   9  10
ATOM     10  C   UNL     1       0.769   2.559  19.264  0.00  0.00    +0.000 C 
BRANCH  10  12
ATOM     11  C   UNL     1       1.715   3.027  21.542  0.00  0.00    +0.000 C 
ATOM     12  C   UNL     1       1.090   3.634  20.303  0.00  0.00    +0.000 C 
ENDBRANCH  10  12
ENDBRANCH   9  10
ENDBRANCH   8   9
ENDBRANCH   7   8
ENDBRANCH   6   7
ENDBRANCH   1   6
BRANCH   1  13
ATOM     13  C   UNL     1       2.807   6.085  17.858  0.00  0.00    +0.000 C 
BRANCH  13  14
ATOM     14  C   UNL     1       2.720   7.499  18.338  0.00  0.00    +0.000 C 
ATOM     15  C   UNL     1       1.870   8.400  17.815  0.00  0.00    +0.000 C 
BRANCH  15  16
ATOM     16  C   UNL     1       1.776   9.819  18.305  0.00  0.00    +0.000 C 
BRANCH  16  17
ATOM     17  C   UNL     1       0.352  10.297  18.449  0.00  0.00    +0.000 A 
ATOM     18  C   UNL     1       0.034  11.351  19.318  0.00  0.00    +0.000 A 
ATOM     19  C   UNL     1      -1.277  11.828  19.403  0.00  0.00    +0.000 A 
ATOM     20  C   UNL     1      -2.277  11.244  18.627  0.00  0.00    +0.000 A 
ATOM     21 CL   UNL     1      -3.881  11.860  18.698  0.00  0.00    +0.000 Cl
ATOM     22  C   UNL     1      -1.982  10.176  17.784  0.00  0.00    +0.000 A 
ATOM     23  C   UNL     1      -0.672   9.699  17.700  0.00  0.00    +0.000 A 
ENDBRANCH  16  17
ENDBRANCH  15  16
ENDBRANCH  13  14
ENDBRANCH   1  13
TORSDOF 12
ENDMDL
MODEL 7
REMARK VINA RESULT:      -6.1      1.109      1.490
REMARK  Name = 
REMARK  15 active torsions:
REMARK  status: ('A' for Active; 'I' for Inactive)
REMARK    1  A    between atoms: C_1  and  C_2
REMARK    2  A    between atoms: C_2  and  C_3
REMARK    3  A    between atoms: C_3  and  C_4
REMARK    4  A    between atoms: C_4  and  C_5
REMARK    5  A    between atoms: C_5  and  C_6
REMARK    6  A    between atoms: C_6  and  C_7
REMARK    7  A    between atoms: C_7  and  N_8
REMARK    8  A    between atoms: N_8  and  C_9
REMARK    9  A    between atoms: N_8  and  C_11
REMARK   10  A    between atoms: N_8  and  C_13
REMARK   11  A    between atoms: C_9  and  C_10
REMARK   12  A    between atoms: C_11  and  C_12
REMARK   13  A    between atoms: C_13  and  C_14
REMARK   14  A    between atoms: C_15  and  C_16
REMARK   15  A    between atoms: C_16  and  C_17
REMARK                            x       y       z     vdW  Elec       q    Type
REMARK                         _______ _______ _______ _____ _____    ______ ____
ROOT
ATOM      1  N   UNL     1       5.531   4.659  17.416  0.00  0.00    +0.000 N 
ENDROOT
BRANCH   1   2
ATOM      2  C   UNL     1       6.889   4.890  18.142  0.00  0.00    +0.000 C 
ATOM      3  C   UNL     1       7.497   6.263  17.902  0.00  0.00    +0.000 C 
ENDBRANCH   1   2
BRANCH   1   4
ATOM      4  C   UNL     1       5.804   4.163  15.972  0.00  0.00    +0.000 C 
ATOM      5  C   UNL     1       5.675   5.239  14.901  0.00  0.00    +0.000 C 
ENDBRANCH   1   4
BRANCH   1   6
ATOM      6  C   UNL     1       4.663   3.591  18.162  0.00  0.00    +0.000 C 
BRANCH   6   7
ATOM      7  C   UNL     1       3.377   3.258  17.410  0.00  0.00    +0.000 C 
BRANCH   7   8
ATOM      8  C   UNL     1       2.758   1.924  17.820  0.00  0.00    +0.000 C 
BRANCH   8   9
ATOM      9  C   UNL     1       2.040   2.127  19.161  0.00  0.00    +0.000 C 
BRANCH   9  10
ATOM     10  C   UNL     1       1.084   3.313  19.146  0.00  0.00    +0.000 C 
BRANCH  10  12
ATOM     11  C   UNL     1       2.183   3.711  21.369  0.00  0.00    +0.000 C 
ATOM     12  C   UNL     1       0.912   3.871  20.559  0.00  0.00    +0.000 C 
ENDBRANCH  10  12
ENDBRANCH   9  10
ENDBRANCH   8   9
ENDBRANCH   7   8
ENDBRANCH   6   7
ENDBRANCH   1   6
BRANCH   1  13
ATOM     13  C   UNL     1       4.762   6.009  17.406  0.00  0.00    +0.000 C 
BRANCH  13  14
ATOM     14  C   UNL     1       4.049   6.376  18.668  0.00  0.00    +0.000 C 
ATOM     15  C   UNL     1       2.795   6.860  18.688  0.00  0.00    +0.000 C 
BRANCH  15  16
ATOM     16  C   UNL     1       2.075   7.219  19.958  0.00  0.00    +0.000 C 
BRANCH  16  17
ATOM     17  C   UNL     1       1.390   8.561  19.886  0.00  0.00    +0.000 A 
ATOM     18  C   UNL     1       1.375   9.295  18.690  0.00  0.00    +0.000 A 
ATOM     19  C   UNL     1       0.690  10.511  18.613  0.00  0.00    +0.000 A 
ATOM     20  C   UNL     1       0.026  11.002  19.735  0.00  0.00    +0.000 A 
ATOM     21 CL   UNL     1      -0.855  12.475  19.628  0.00  0.00    +0.000 Cl
ATOM     22  C   UNL     1       0.060  10.301  20.938  0.00  0.00    +0.000 A 
ATOM     23  C   UNL     1       0.745   9.087  21.014  0.00  0.00    +0.000 A 
ENDBRANCH  16  17
ENDBRANCH  15  16
ENDBRANCH  13  14
ENDBRANCH   1  13
TORSDOF 12
ENDMDL
MODEL 8
REMARK VINA RESULT:      -6.0      5.161      6.732
REMARK  Name = 
REMARK  15 active torsions:
REMARK  status: ('A' for Active; 'I' for Inactive)
REMARK    1  A    between atoms: C_1  and  C_2
REMARK    2  A    between atoms: C_2  and  C_3
REMARK    3  A    between atoms: C_3  and  C_4
REMARK    4  A    between atoms: C_4  and  C_5
REMARK    5  A    between atoms: C_5  and  C_6
REMARK    6  A    between atoms: C_6  and  C_7
REMARK    7  A    between atoms: C_7  and  N_8
REMARK    8  A    between atoms: N_8  and  C_9
REMARK    9  A    between atoms: N_8  and  C_11
REMARK   10  A    between atoms: N_8  and  C_13
REMARK   11  A    between atoms: C_9  and  C_10
REMARK   12  A    between atoms: C_11  and  C_12
REMARK   13  A    between atoms: C_13  and  C_14
REMARK   14  A    between atoms: C_15  and  C_16
REMARK   15  A    between atoms: C_16  and  C_17
REMARK                            x       y       z     vdW  Elec       q    Type
REMARK                         _______ _______ _______ _____ _____    ______ ____
ROOT
ATOM      1  N   UNL     1       6.401   5.924  17.188  0.00  0.00    +0.000 N 
ENDROOT
BRANCH   1   2
ATOM      2  C   UNL     1       6.712   5.605  18.680  0.00  0.00    +0.000 C 
ATOM      3  C   UNL     1       5.887   4.466  19.258  0.00  0.00    +0.000 C 
ENDBRANCH   1   2
BRANCH   1   4
ATOM      4  C   UNL     1       7.146   4.906  16.285  0.00  0.00    +0.000 C 
ATOM      5  C   UNL     1       6.233   3.973  15.499  0.00  0.00    +0.000 C 
ENDBRANCH   1   4
BRANCH   1   6
ATOM      6  C   UNL     1       4.867   5.832  16.896  0.00  0.00    +0.000 C 
BRANCH   6   7
ATOM      7  C   UNL     1       4.104   7.054  17.403  0.00  0.00    +0.000 C 
BRANCH   7   8
ATOM      8  C   UNL     1       3.166   6.747  18.568  0.00  0.00    +0.000 C 
BRANCH   8   9
ATOM      9  C   UNL     1       2.103   5.757  18.074  0.00  0.00    +0.000 C 
BRANCH   9  10
ATOM     10  C   UNL     1       2.234   4.382  18.716  0.00  0.00    +0.000 C 
BRANCH  10  12
ATOM     11  C   UNL     1       2.125   4.191  21.218  0.00  0.00    +0.000 C 
ATOM     12  C   UNL     1       1.320   4.281  19.938  0.00  0.00    +0.000 C 
ENDBRANCH  10  12
ENDBRANCH   9  10
ENDBRANCH   8   9
ENDBRANCH   7   8
ENDBRANCH   6   7
ENDBRANCH   1   6
BRANCH   1  13
ATOM     13  C   UNL     1       6.879   7.374  16.903  0.00  0.00    +0.000 C 
BRANCH  13  14
ATOM     14  C   UNL     1       7.814   7.974  17.905  0.00  0.00    +0.000 C 
ATOM     15  C   UNL     1       8.170   9.270  17.892  0.00  0.00    +0.000 C 
BRANCH  15  16
ATOM     16  C   UNL     1       9.102   9.874  18.906  0.00  0.00    +0.000 C 
BRANCH  16  17
ATOM     17  C   UNL     1       9.613  11.234  18.497  0.00  0.00    +0.000 A 
ATOM     18  C   UNL     1      10.777  11.359  17.724  0.00  0.00    +0.000 A 
ATOM     19  C   UNL     1      11.213  12.617  17.299  0.00  0.00    +0.000 A 
ATOM     20  C   UNL     1      10.492  13.755  17.655  0.00  0.00    +0.000 A 
ATOM     21 CL   UNL     1      11.003  15.299  17.094  0.00  0.00    +0.000 Cl
ATOM     22  C   UNL     1       9.354  13.649  18.449  0.00  0.00    +0.000 A 
ATOM     23  C   UNL     1       8.918  12.392  18.874  0.00  0.00    +0.000 A 
ENDBRANCH  16  17
ENDBRANCH  15  16
ENDBRANCH  13  14
ENDBRANCH   1  13
TORSDOF 12
ENDMDL
MODEL 9
REMARK VINA RESULT:      -6.0      1.967      4.419
REMARK  Name = 
REMARK  15 active torsions:
REMARK  status: ('A' for Active; 'I' for Inactive)
REMARK    1  A    between atoms: C_1  and  C_2
REMARK    2  A    between atoms: C_2  and  C_3
REMARK    3  A    between atoms: C_3  and  C_4
REMARK    4  A    between atoms: C_4  and  C_5
REMARK    5  A    between atoms: C_5  and  C_6
REMARK    6  A    between atoms: C_6  and  C_7
REMARK    7  A    between atoms: C_7  and  N_8
REMARK    8  A    between atoms: N_8  and  C_9
REMARK    9  A    between atoms: N_8  and  C_11
REMARK   10  A    between atoms: N_8  and  C_13
REMARK   11  A    between atoms: C_9  and  C_10
REMARK   12  A    between atoms: C_11  and  C_12
REMARK   13  A    between atoms: C_13  and  C_14
REMARK   14  A    between atoms: C_15  and  C_16
REMARK   15  A    between atoms: C_16  and  C_17
REMARK                            x       y       z     vdW  Elec       q    Type
REMARK                         _______ _______ _______ _____ _____    ______ ____
ROOT
ATOM      1  N   UNL     1       5.352   5.551  17.094  0.00  0.00    +0.000 N 
ENDROOT
BRANCH   1   2
ATOM      2  C   UNL     1       5.939   4.501  18.082  0.00  0.00    +0.000 C 
ATOM      3  C   UNL     1       5.093   4.275  19.325  0.00  0.00    +0.000 C 
ENDBRANCH   1   2
BRANCH   1   4
ATOM      4  C   UNL     1       6.196   6.851  17.172  0.00  0.00    +0.000 C 
ATOM      5  C   UNL     1       7.519   6.701  17.912  0.00  0.00    +0.000 C 
ENDBRANCH   1   4
BRANCH   1   6
ATOM      6  C   UNL     1       5.376   5.020  15.621  0.00  0.00    +0.000 C 
BRANCH   6   7
ATOM      7  C   UNL     1       6.770   4.580  15.184  0.00  0.00    +0.000 C 
BRANCH   7   8
ATOM      8  C   UNL     1       6.815   4.015  13.766  0.00  0.00    +0.000 C 
BRANCH   8   9
ATOM      9  C   UNL     1       5.379   3.967  13.229  0.00  0.00    +0.000 C 
BRANCH   9  10
ATOM     10  C   UNL     1       5.231   3.049  12.022  0.00  0.00    +0.000 C 
BRANCH  10  12
ATOM     11  C   UNL     1       6.498   1.123  11.027  0.00  0.00    +0.000 C 
ATOM     12  C   UNL     1       6.601   2.528  11.583  0.00  0.00    +0.000 C 
ENDBRANCH  10  12
ENDBRANCH   9  10
ENDBRANCH   8   9
ENDBRANCH   7   8
ENDBRANCH   6   7
ENDBRANCH   1   6
BRANCH   1  13
ATOM     13  C   UNL     1       3.878   5.819  17.505  0.00  0.00    +0.000 C 
BRANCH  13  14
ATOM     14  C   UNL     1       3.455   7.252  17.558  0.00  0.00    +0.000 C 
ATOM     15  C   UNL     1       2.268   7.649  18.048  0.00  0.00    +0.000 C 
BRANCH  15  16
ATOM     16  C   UNL     1       1.847   9.091  18.111  0.00  0.00    +0.000 C 
BRANCH  16  17
ATOM     17  C   UNL     1       1.162   9.447  19.408  0.00  0.00    +0.000 A 
ATOM     18  C   UNL     1       0.393  10.615  19.515  0.00  0.00    +0.000 A 
ATOM     19  C   UNL     1      -0.287  10.909  20.701  0.00  0.00    +0.000 A 
ATOM     20  C   UNL     1      -0.191  10.042  21.786  0.00  0.00    +0.000 A 
ATOM     21 CL   UNL     1      -1.064  10.380  23.229  0.00  0.00    +0.000 Cl
ATOM     22  C   UNL     1       0.594   8.895  21.705  0.00  0.00    +0.000 A 
ATOM     23  C   UNL     1       1.274   8.601  20.521  0.00  0.00    +0.000 A 
ENDBRANCH  16  17
ENDBRANCH  15  16
ENDBRANCH  13  14
ENDBRANCH   1  13
TORSDOF 12
ENDMDL
