MODEL 1
REMARK VINA RESULT:      -7.1      0.000      0.000
REMARK  Name = 
REMARK  5 active torsions:
REMARK  status: ('A' for Active; 'I' for Inactive)
REMARK    1  A    between atoms: C_2  and  O_3
REMARK    2  A    between atoms: C_2  and  C_4
REMARK    3  A    between atoms: C_9  and  N_10
REMARK    4  A    between atoms: N_10  and  C_11
REMARK    5  A    between atoms: C_11  and  C_12
REMARK                            x       y       z     vdW  Elec       q    Type
REMARK                         _______ _______ _______ _____ _____    ______ ____
ROOT
ATOM      1  C   UNL     1       5.977   4.933  15.888  0.00  0.00    +0.000 A 
ATOM      2  C   UNL     1       5.173   6.075  15.914  0.00  0.00    +0.000 A 
ATOM      3  C   UNL     1       4.435   6.376  17.057  0.00  0.00    +0.000 A 
ATOM      4  C   UNL     1       4.504   5.534  18.171  0.00  0.00    +0.000 A 
ATOM      5 CL   UNL     1       3.571   5.968  19.566  0.00  0.00    +0.000 Cl
ATOM      6  C   UNL     1       5.291   4.360  18.161  0.00  0.00    +0.000 A 
ATOM      7  C   UNL     1       6.043   4.088  17.008  0.00  0.00    +0.000 A 
ENDROOT
BRANCH   1   9
ATOM      8  O   UNL     1       7.708   5.410  14.336  0.00  0.00    +0.000 OA
ATOM      9  C   UNL     1       6.797   4.679  14.678  0.00  0.00    +0.000 C 
BRANCH   9  10
ATOM     10  O   UNL     1       6.421   3.583  13.986  0.00  0.00    +0.000 OA
ATOM     11  H   UNL     1       7.021   2.819  14.063  0.00  0.00    +0.000 HD
ENDBRANCH   9  10
ENDBRANCH   1   9
BRANCH   6  12
ATOM     12  N   UNL     1       5.320   3.530  19.284  0.00  0.00    +0.000 N 
ATOM     13  H   UNL     1       6.266   3.408  19.644  0.00  0.00    +0.000 HD
BRANCH  12  14
ATOM     14  C   UNL     1       4.506   2.326  19.376  0.00  0.00    +0.000 C 
BRANCH  14  15
ATOM     15  C   UNL     1       3.104   2.585  19.853  0.00  0.00    +0.000 A 
ATOM     16  C   UNL     1       2.651   2.789  21.144  0.00  0.00    +0.000 A 
ATOM     17  C   UNL     1       1.252   3.045  21.197  0.00  0.00    +0.000 A 
ATOM     18  C   UNL     1       0.680   3.036  19.945  0.00  0.00    +0.000 A 
ATOM     19  S   UNL     1       1.825   2.714  18.717  0.00  0.00    +0.000 S 
ENDBRANCH  14  15
ENDBRANCH  12  14
ENDBRANCH   6  12
TORSDOF 5
ENDMDL
MODEL 2
REMARK VINA RESULT:      -6.9      0.779      1.275
REMARK  Name = 
REMARK  5 active torsions:
REMARK  status: ('A' for Active; 'I' for Inactive)
REMARK    1  A    between atoms: C_2  and  O_3
REMARK    2  A    between atoms: C_2  and  C_4
REMARK    3  A    between atoms: C_9  and  N_10
REMARK    4  A    between atoms: N_10  and  C_11
REMARK    5  A    between atoms: C_11  and  C_12
REMARK                            x       y       z     vdW  Elec       q    Type
REMARK                         _______ _______ _______ _____ _____    ______ ____
ROOT
ATOM      1  C   UNL     1       5.941   4.965  15.825  0.00  0.00    +0.000 A 
ATOM      2  C   UNL     1       5.176   6.131  15.897  0.00  0.00    +0.000 A 
ATOM      3  C   UNL     1       4.471   6.425  17.062  0.00  0.00    +0.000 A 
ATOM      4  C   UNL     1       4.534   5.552  18.152  0.00  0.00    +0.000 A 
ATOM      5 CL   UNL     1       3.643   5.978  19.577  0.00  0.00    +0.000 Cl
ATOM      6  C   UNL     1       5.282   4.354  18.095  0.00  0.00    +0.000 A 
ATOM      7  C   UNL     1       6.002   4.089  16.921  0.00  0.00    +0.000 A 
ENDROOT
BRANCH   1   9
ATOM      8  O   UNL     1       6.415   3.878  13.768  0.00  0.00    +0.000 OA
ATOM      9  C   UNL     1       6.730   4.717  14.592  0.00  0.00    +0.000 C 
BRANCH   9  10
ATOM     10  O   UNL     1       7.834   5.486  14.489  0.00  0.00    +0.000 OA
ATOM     11  H   UNL     1       7.729   6.290  13.950  0.00  0.00    +0.000 HD
ENDBRANCH   9  10
ENDBRANCH   1   9
BRANCH   6  12
ATOM     12  N   UNL     1       5.306   3.494  19.196  0.00  0.00    +0.000 N 
ATOM     13  H   UNL     1       6.252   3.350  19.548  0.00  0.00    +0.000 HD
BRANCH  12  14
ATOM     14  C   UNL     1       4.477   2.298  19.260  0.00  0.00    +0.000 C 
BRANCH  14  15
ATOM     15  C   UNL     1       3.041   2.582  19.603  0.00  0.00    +0.000 A 
ATOM     16  C   UNL     1       1.944   2.640  18.762  0.00  0.00    +0.000 A 
ATOM     17  C   UNL     1       0.732   2.896  19.463  0.00  0.00    +0.000 A 
ATOM     18  C   UNL     1       0.939   3.019  20.819  0.00  0.00    +0.000 A 
ATOM     19  S   UNL     1       2.586   2.833  21.237  0.00  0.00    +0.000 S 
ENDBRANCH  14  15
ENDBRANCH  12  14
ENDBRANCH   6  12
TORSDOF 5
ENDMDL
MODEL 3
REMARK VINA RESULT:      -6.8      1.719      2.007
REMARK  Name = 
REMARK  5 active torsions:
REMARK  status: ('A' for Active; 'I' for Inactive)
REMARK    1  A    between atoms: C_2  and  O_3
REMARK    2  A    between atoms: C_2  and  C_4
REMARK    3  A    between atoms: C_9  and  N_10
REMARK    4  A    between atoms: N_10  and  C_11
REMARK    5  A    between atoms: C_11  and  C_12
REMARK                            x       y       z     vdW  Elec       q    Type
REMARK                         _______ _______ _______ _____ _____    ______ ____
ROOT
ATOM      1  C   UNL     1       5.960   5.040  16.726  0.00  0.00    +0.000 A 
ATOM      2  C   UNL     1       5.667   6.287  17.285  0.00  0.00    +0.000 A 
ATOM      3  C   UNL     1       4.380   6.553  17.747  0.00  0.00    +0.000 A 
ATOM      4  C   UNL     1       3.389   5.572  17.649  0.00  0.00    +0.000 A 
ATOM      5 CL   UNL     1       1.810   5.960  18.251  0.00  0.00    +0.000 Cl
ATOM      6  C   UNL     1       3.653   4.312  17.066  0.00  0.00    +0.000 A 
ATOM      7  C   UNL     1       4.962   4.057  16.628  0.00  0.00    +0.000 A 
ENDROOT
BRANCH   1   9
ATOM      8  O   UNL     1       8.161   4.202  17.020  0.00  0.00    +0.000 OA
ATOM      9  C   UNL     1       7.356   4.769  16.305  0.00  0.00    +0.000 C 
BRANCH   9  10
ATOM     10  O   UNL     1       7.651   5.234  15.073  0.00  0.00    +0.000 OA
ATOM     11  H   UNL     1       8.522   4.967  14.727  0.00  0.00    +0.000 HD
ENDBRANCH   9  10
ENDBRANCH   1   9
BRANCH   6  12
ATOM     12  N   UNL     1       2.634   3.362  16.965  0.00  0.00    +0.000 N 
ATOM     13  H   UNL     1       1.721   3.794  16.831  0.00  0.00    +0.000 HD
BRANCH  12  14
ATOM     14  C   UNL     1       2.595   2.178  17.813  0.00  0.00    +0.000 C 
BRANCH  14  15
ATOM     15  C   UNL     1       2.307   2.484  19.257  0.00  0.00    +0.000 A 
ATOM     16  C   UNL     1       1.089   2.731  19.864  0.00  0.00    +0.000 A 
ATOM     17  C   UNL     1       1.212   2.942  21.267  0.00  0.00    +0.000 A 
ATOM     18  C   UNL     1       2.519   2.843  21.689  0.00  0.00    +0.000 A 
ATOM     19  S   UNL     1       3.587   2.504  20.398  0.00  0.00    +0.000 S 
ENDBRANCH  14  15
ENDBRANCH  12  14
ENDBRANCH   6  12
TORSDOF 5
ENDMDL
MODEL 4
REMARK VINA RESULT:      -6.6      4.053      6.126
REMARK  Name = 
REMARK  5 active torsions:
REMARK  status: ('A' for Active; 'I' for Inactive)
REMARK    1  A    between atoms: C_2  and  O_3
REMARK    2  A    between atoms: C_2  and  C_4
REMARK    3  A    between atoms: C_9  and  N_10
REMARK    4  A    between atoms: N_10  and  C_11
REMARK    5  A    between atoms: C_11  and  C_12
REMARK                            x       y       z     vdW  Elec       q    Type
REMARK                         _______ _______ _______ _____ _____    ______ ____
ROOT
ATOM      1  C   UNL     1       2.397   4.220  20.356  0.00  0.00    +0.000 A 
ATOM      2  C   UNL     1       1.944   5.508  20.648  0.00  0.00    +0.000 A 
ATOM      3  C   UNL     1       2.247   6.560  19.787  0.00  0.00    +0.000 A 
ATOM      4  C   UNL     1       3.003   6.321  18.635  0.00  0.00    +0.000 A 
ATOM      5 CL   UNL     1       3.339   7.668  17.598  0.00  0.00    +0.000 Cl
ATOM      6  C   UNL     1       3.495   5.031  18.330  0.00  0.00    +0.000 A 
ATOM      7  C   UNL     1       3.158   3.982  19.200  0.00  0.00    +0.000 A 
ENDROOT
BRANCH   1   9
ATOM      8  O   UNL     1       2.791   2.545  21.992  0.00  0.00    +0.000 OA
ATOM      9  C   UNL     1       2.001   3.113  21.261  0.00  0.00    +0.000 C 
BRANCH   9  10
ATOM     10  O   UNL     1       0.695   2.784  21.177  0.00  0.00    +0.000 OA
ATOM     11  H   UNL     1       0.516   1.848  20.975  0.00  0.00    +0.000 HD
ENDBRANCH   9  10
ENDBRANCH   1   9
BRANCH   6  12
ATOM     12  N   UNL     1       4.264   4.831  17.183  0.00  0.00    +0.000 N 
ATOM     13  H   UNL     1       3.753   4.321  16.463  0.00  0.00    +0.000 HD
BRANCH  12  14
ATOM     14  C   UNL     1       5.675   4.475  17.251  0.00  0.00    +0.000 C 
BRANCH  14  15
ATOM     15  C   UNL     1       6.573   5.639  17.566  0.00  0.00    +0.000 A 
ATOM     16  C   UNL     1       6.720   6.831  16.878  0.00  0.00    +0.000 A 
ATOM     17  C   UNL     1       7.642   7.713  17.509  0.00  0.00    +0.000 A 
ATOM     18  C   UNL     1       8.165   7.172  18.662  0.00  0.00    +0.000 A 
ATOM     19  S   UNL     1       7.551   5.608  18.974  0.00  0.00    +0.000 S 
ENDBRANCH  14  15
ENDBRANCH  12  14
ENDBRANCH   6  12
TORSDOF 5
ENDMDL
MODEL 5
REMARK VINA RESULT:      -6.5      2.105      2.713
REMARK  Name = 
REMARK  5 active torsions:
REMARK  status: ('A' for Active; 'I' for Inactive)
REMARK    1  A    between atoms: C_2  and  O_3
REMARK    2  A    between atoms: C_2  and  C_4
REMARK    3  A    between atoms: C_9  and  N_10
REMARK    4  A    between atoms: N_10  and  C_11
REMARK    5  A    between atoms: C_11  and  C_12
REMARK                            x       y       z     vdW  Elec       q    Type
REMARK                         _______ _______ _______ _____ _____    ______ ____
ROOT
ATOM      1  C   UNL     1       6.145   5.384  17.685  0.00  0.00    +0.000 A 
ATOM      2  C   UNL     1       5.698   6.137  16.596  0.00  0.00    +0.000 A 
ATOM      3  C   UNL     1       4.489   6.823  16.680  0.00  0.00    +0.000 A 
ATOM      4  C   UNL     1       3.729   6.755  17.851  0.00  0.00    +0.000 A 
ATOM      5 CL   UNL     1       2.238   7.638  17.896  0.00  0.00    +0.000 Cl
ATOM      6  C   UNL     1       4.147   5.980  18.957  0.00  0.00    +0.000 A 
ATOM      7  C   UNL     1       5.379   5.316  18.860  0.00  0.00    +0.000 A 
ENDROOT
BRANCH   1   9
ATOM      8  O   UNL     1       8.138   4.438  18.560  0.00  0.00    +0.000 OA
ATOM      9  C   UNL     1       7.468   4.720  17.585  0.00  0.00    +0.000 C 
BRANCH   9  10
ATOM     10  O   UNL     1       7.863   4.486  16.316  0.00  0.00    +0.000 OA
ATOM     11  H   UNL     1       8.298   5.236  15.873  0.00  0.00    +0.000 HD
ENDBRANCH   9  10
ENDBRANCH   1   9
BRANCH   6  12
ATOM     12  N   UNL     1       3.353   5.918  20.105  0.00  0.00    +0.000 N 
ATOM     13  H   UNL     1       3.887   6.118  20.950  0.00  0.00    +0.000 HD
BRANCH  12  14
ATOM     14  C   UNL     1       2.343   4.885  20.289  0.00  0.00    +0.000 C 
BRANCH  14  15
ATOM     15  C   UNL     1       2.549   3.680  19.414  0.00  0.00    +0.000 A 
ATOM     16  C   UNL     1       2.015   3.415  18.166  0.00  0.00    +0.000 A 
ATOM     17  C   UNL     1       2.476   2.180  17.627  0.00  0.00    +0.000 A 
ATOM     18  C   UNL     1       3.354   1.544  18.477  0.00  0.00    +0.000 A 
ATOM     19  S   UNL     1       3.611   2.431  19.916  0.00  0.00    +0.000 S 
ENDBRANCH  14  15
ENDBRANCH  12  14
ENDBRANCH   6  12
TORSDOF 5
ENDMDL
MODEL 6
REMARK VINA RESULT:      -6.5      1.287      1.532
REMARK  Name = 
REMARK  5 active torsions:
REMARK  status: ('A' for Active; 'I' for Inactive)
REMARK    1  A    between atoms: C_2  and  O_3
REMARK    2  A    between atoms: C_2  and  C_4
REMARK    3  A    between atoms: C_9  and  N_10
REMARK    4  A    between atoms: N_10  and  C_11
REMARK    5  A    between atoms: C_11  and  C_12
REMARK                            x       y       z     vdW  Elec       q    Type
REMARK                         _______ _______ _______ _____ _____    ______ ____
ROOT
ATOM      1  C   UNL     1       5.779   5.084  15.409  0.00  0.00    +0.000 A 
ATOM      2  C   UNL     1       5.760   6.329  16.043  0.00  0.00    +0.000 A 
ATOM      3  C   UNL     1       4.830   6.577  17.051  0.00  0.00    +0.000 A 
ATOM      4  C   UNL     1       3.923   5.580  17.421  0.00  0.00    +0.000 A 
ATOM      5 CL   UNL     1       2.798   5.946  18.688  0.00  0.00    +0.000 Cl
ATOM      6  C   UNL     1       3.907   4.321  16.778  0.00  0.00    +0.000 A 
ATOM      7  C   UNL     1       4.866   4.085  15.782  0.00  0.00    +0.000 A 
ENDROOT
BRANCH   1   9
ATOM      8  O   UNL     1       6.691   4.014  13.496  0.00  0.00    +0.000 OA
ATOM      9  C   UNL     1       6.825   4.834  14.386  0.00  0.00    +0.000 C 
BRANCH   9  10
ATOM     10  O   UNL     1       7.938   5.577  14.553  0.00  0.00    +0.000 OA
ATOM     11  H   UNL     1       8.232   6.066  13.764  0.00  0.00    +0.000 HD
ENDBRANCH   9  10
ENDBRANCH   1   9
BRANCH   6  12
ATOM     12  N   UNL     1       2.973   3.355  17.160  0.00  0.00    +0.000 N 
ATOM     13  H   UNL     1       2.049   3.756  17.312  0.00  0.00    +0.000 HD
BRANCH  12  14
ATOM     14  C   UNL     1       3.304   2.289  18.096  0.00  0.00    +0.000 C 
BRANCH  14  15
ATOM     15  C   UNL     1       2.704   2.482  19.461  0.00  0.00    +0.000 A 
ATOM     16  C   UNL     1       3.340   2.528  20.688  0.00  0.00    +0.000 A 
ATOM     17  C   UNL     1       2.437   2.769  21.762  0.00  0.00    +0.000 A 
ATOM     18  C   UNL     1       1.140   2.907  21.321  0.00  0.00    +0.000 A 
ATOM     19  S   UNL     1       1.017   2.740  19.624  0.00  0.00    +0.000 S 
ENDBRANCH  14  15
ENDBRANCH  12  14
ENDBRANCH   6  12
TORSDOF 5
ENDMDL
MODEL 7
REMARK VINA RESULT:      -6.4      1.516      1.737
REMARK  Name = 
REMARK  5 active torsions:
REMARK  status: ('A' for Active; 'I' for Inactive)
REMARK    1  A    between atoms: C_2  and  O_3
REMARK    2  A    between atoms: C_2  and  C_4
REMARK    3  A    between atoms: C_9  and  N_10
REMARK    4  A    between atoms: N_10  and  C_11
REMARK    5  A    between atoms: C_11  and  C_12
REMARK                            x       y       z     vdW  Elec       q    Type
REMARK                         _______ _______ _______ _____ _____    ______ ____
ROOT
ATOM      1  C   UNL     1       6.693   4.919  15.226  0.00  0.00    +0.000 A 
ATOM      2  C   UNL     1       7.186   5.881  16.111  0.00  0.00    +0.000 A 
ATOM      3  C   UNL     1       6.752   5.889  17.435  0.00  0.00    +0.000 A 
ATOM      4  C   UNL     1       5.827   4.936  17.870  0.00  0.00    +0.000 A 
ATOM      5 CL   UNL     1       5.334   4.992  19.531  0.00  0.00    +0.000 Cl
ATOM      6  C   UNL     1       5.295   3.968  16.988  0.00  0.00    +0.000 A 
ATOM      7  C   UNL     1       5.763   3.964  15.665  0.00  0.00    +0.000 A 
ENDROOT
BRANCH   1   9
ATOM      8  O   UNL     1       8.127   5.631  13.473  0.00  0.00    +0.000 OA
ATOM      9  C   UNL     1       7.226   4.900  13.841  0.00  0.00    +0.000 C 
BRANCH   9  10
ATOM     10  O   UNL     1       6.600   4.022  13.030  0.00  0.00    +0.000 OA
ATOM     11  H   UNL     1       6.167   4.413  12.251  0.00  0.00    +0.000 HD
ENDBRANCH   9  10
ENDBRANCH   1   9
BRANCH   6  12
ATOM     12  N   UNL     1       4.356   3.043  17.451  0.00  0.00    +0.000 N 
ATOM     13  H   UNL     1       4.626   2.084  17.236  0.00  0.00    +0.000 HD
BRANCH  12  14
ATOM     14  C   UNL     1       2.923   3.278  17.344  0.00  0.00    +0.000 C 
BRANCH  14  15
ATOM     15  C   UNL     1       2.251   3.497  18.671  0.00  0.00    +0.000 A 
ATOM     16  C   UNL     1       1.821   4.683  19.239  0.00  0.00    +0.000 A 
ATOM     17  C   UNL     1       1.189   4.485  20.500  0.00  0.00    +0.000 A 
ATOM     18  C   UNL     1       1.148   3.154  20.851  0.00  0.00    +0.000 A 
ATOM     19  S   UNL     1       1.875   2.155  19.670  0.00  0.00    +0.000 S 
ENDBRANCH  14  15
ENDBRANCH  12  14
ENDBRANCH   6  12
TORSDOF 5
ENDMDL
MODEL 8
REMARK VINA RESULT:      -6.3      1.537      2.032
REMARK  Name = 
REMARK  5 active torsions:
REMARK  status: ('A' for Active; 'I' for Inactive)
REMARK    1  A    between atoms: C_2  and  O_3
REMARK    2  A    between atoms: C_2  and  C_4
REMARK    3  A    between atoms: C_9  and  N_10
REMARK    4  A    between atoms: N_10  and  C_11
REMARK    5  A    between atoms: C_11  and  C_12
REMARK                            x       y       z     vdW  Elec       q    Type
REMARK                         _______ _______ _______ _____ _____    ______ ____
ROOT
ATOM      1  C   UNL     1       6.475   4.727  15.286  0.00  0.00    +0.000 A 
ATOM      2  C   UNL     1       7.488   4.642  16.244  0.00  0.00    +0.000 A 
ATOM      3  C   UNL     1       7.179   4.796  17.593  0.00  0.00    +0.000 A 
ATOM      4  C   UNL     1       5.857   5.035  17.981  0.00  0.00    +0.000 A 
ATOM      5 CL   UNL     1       5.534   5.209  19.675  0.00  0.00    +0.000 Cl
ATOM      6  C   UNL     1       4.818   5.150  17.030  0.00  0.00    +0.000 A 
ATOM      7  C   UNL     1       5.149   4.969  15.678  0.00  0.00    +0.000 A 
ENDROOT
BRANCH   1   9
ATOM      8  O   UNL     1       7.510   5.270  13.220  0.00  0.00    +0.000 OA
ATOM      9  C   UNL     1       6.831   4.493  13.865  0.00  0.00    +0.000 C 
BRANCH   9  10
ATOM     10  O   UNL     1       6.309   3.358  13.354  0.00  0.00    +0.000 OA
ATOM     11  H   UNL     1       6.374   3.272  12.386  0.00  0.00    +0.000 HD
ENDBRANCH   9  10
ENDBRANCH   1   9
BRANCH   6  12
ATOM     12  N   UNL     1       3.512   5.410  17.450  0.00  0.00    +0.000 N 
ATOM     13  H   UNL     1       3.481   6.111  18.190  0.00  0.00    +0.000 HD
BRANCH  12  14
ATOM     14  C   UNL     1       2.529   4.349  17.618  0.00  0.00    +0.000 C 
BRANCH  14  15
ATOM     15  C   UNL     1       2.367   3.900  19.044  0.00  0.00    +0.000 A 
ATOM     16  C   UNL     1       1.632   4.486  20.058  0.00  0.00    +0.000 A 
ATOM     17  C   UNL     1       1.690   3.744  21.272  0.00  0.00    +0.000 A 
ATOM     18  C   UNL     1       2.460   2.610  21.144  0.00  0.00    +0.000 A 
ATOM     19  S   UNL     1       3.114   2.450  19.573  0.00  0.00    +0.000 S 
ENDBRANCH  14  15
ENDBRANCH  12  14
ENDBRANCH   6  12
TORSDOF 5
ENDMDL
MODEL 9
REMARK VINA RESULT:      -6.3      2.888      3.414
REMARK  Name = 
REMARK  5 active torsions:
REMARK  status: ('A' for Active; 'I' for Inactive)
REMARK    1  A    between atoms: C_2  and  O_3
REMARK    2  A    between atoms: C_2  and  C_4
REMARK    3  A    between atoms: C_9  and  N_10
REMARK    4  A    between atoms: N_10  and  C_11
REMARK    5  A    between atoms: C_11  and  C_12
REMARK                            x       y       z     vdW  Elec       q    Type
REMARK                         _______ _______ _______ _____ _____    ______ ____
ROOT
ATOM      1  C   UNL     1       7.074   5.387  18.136  0.00  0.00    +0.000 A 
ATOM      2  C   UNL     1       7.471   5.867  16.885  0.00  0.00    +0.000 A 
ATOM      3  C   UNL     1       6.803   5.444  15.738  0.00  0.00    +0.000 A 
ATOM      4  C   UNL     1       5.741   4.542  15.844  0.00  0.00    +0.000 A 
ATOM      5 CL   UNL     1       4.944   4.060  14.382  0.00  0.00    +0.000 Cl
ATOM      6  C   UNL     1       5.337   4.022  17.095  0.00  0.00    +0.000 A 
ATOM      7  C   UNL     1       6.008   4.479  18.239  0.00  0.00    +0.000 A 
ENDROOT
BRANCH   1   9
ATOM      8  O   UNL     1       7.683   5.373  20.430  0.00  0.00    +0.000 OA
ATOM      9  C   UNL     1       7.765   5.909  19.340  0.00  0.00    +0.000 C 
BRANCH   9  10
ATOM     10  O   UNL     1       8.466   7.041  19.117  0.00  0.00    +0.000 OA
ATOM     11  H   UNL     1       8.445   7.366  18.199  0.00  0.00    +0.000 HD
ENDBRANCH   9  10
ENDBRANCH   1   9
BRANCH   6  12
ATOM     12  N   UNL     1       4.285   3.106  17.163  0.00  0.00    +0.000 N 
ATOM     13  H   UNL     1       4.455   2.285  16.584  0.00  0.00    +0.000 HD
BRANCH  12  14
ATOM     14  C   UNL     1       2.891   3.530  17.171  0.00  0.00    +0.000 C 
BRANCH  14  15
ATOM     15  C   UNL     1       2.312   3.663  18.552  0.00  0.00    +0.000 A 
ATOM     16  C   UNL     1       2.116   4.808  19.302  0.00  0.00    +0.000 A 
ATOM     17  C   UNL     1       1.501   4.538  20.558  0.00  0.00    +0.000 A 
ATOM     18  C   UNL     1       1.241   3.197  20.725  0.00  0.00    +0.000 A 
ATOM     19  S   UNL     1       1.742   2.272  19.377  0.00  0.00    +0.000 S 
ENDBRANCH  14  15
ENDBRANCH  12  14
ENDBRANCH   6  12
TORSDOF 5
ENDMDL
