MODEL 1
REMARK VINA RESULT:      -8.3      0.000      0.000
REMARK  Name = 
REMARK  8 active torsions:
REMARK  status: ('A' for Active; 'I' for Inactive)
REMARK    1  A    between atoms: C_1  and  C_2
REMARK    2  A    between atoms: C_7  and  C_8
REMARK    3  A    between atoms: C_8  and  N_9
REMARK    4  A    between atoms: C_14  and  N_15
REMARK    5  A    between atoms: N_15  and  C_16
REMARK    6  A    between atoms: C_16  and  C_17
REMARK    7  A    between atoms: C_17  and  C_18
REMARK    8  A    between atoms: N_20  and  C_21
REMARK                            x       y       z     vdW  Elec       q    Type
REMARK                         _______ _______ _______ _____ _____    ______ ____
ROOT
ATOM      1  N   UNL     1       8.668   9.140  18.392  0.00  0.00    +0.000 N 
ATOM      2  C   UNL     1       8.134   7.888  18.193  0.00  0.00    +0.000 A 
ATOM      3  N   UNL     1       8.384   7.056  19.216  0.00  0.00    +0.000 NA
ATOM      4  C   UNL     1       8.045   5.772  19.054  0.00  0.00    +0.000 A 
ATOM      5  C   UNL     1       7.476   5.290  17.908  0.00  0.00    +0.000 A 
ATOM      6  C   UNL     1       7.230   6.211  16.910  0.00  0.00    +0.000 A 
ATOM      7  N   UNL     1       7.533   7.521  17.052  0.00  0.00    +0.000 NA
ATOM      8  H   UNL     1       8.881   9.176  19.376  0.00  0.00    +0.000 HD
ENDROOT
BRANCH   6   9
ATOM      9  N   UNL     1       6.596   5.721  15.755  0.00  0.00    +0.000 N 
ATOM     10  H   UNL     1       5.838   6.338  15.472  0.00  0.00    +0.000 HD
BRANCH   9  11
ATOM     11  C   UNL     1       6.217   4.316  15.747  0.00  0.00    +0.000 C 
BRANCH  11  12
ATOM     12  C   UNL     1       4.712   4.133  15.610  0.00  0.00    +0.000 C 
BRANCH  12  13
ATOM     13  C   UNL     1       4.058   4.378  16.946  0.00  0.00    +0.000 C 
ATOM     14  O   UNL     1       3.877   5.527  17.341  0.00  0.00    +0.000 OA
ATOM     15  N   UNL     1       3.713   3.214  17.611  0.00  0.00    +0.000 N 
ATOM     16  H   UNL     1       4.106   2.349  17.255  0.00  0.00    +0.000 HD
BRANCH  15  17
ATOM     17  C   UNL     1       2.961   3.125  18.800  0.00  0.00    +0.000 A 
ATOM     18  C   UNL     1       3.531   2.843  20.044  0.00  0.00    +0.000 A 
ATOM     19  C   UNL     1       2.733   2.754  21.186  0.00  0.00    +0.000 A 
ATOM     20  C   UNL     1       1.359   2.952  21.096  0.00  0.00    +0.000 A 
ATOM     21  C   UNL     1       0.780   3.260  19.867  0.00  0.00    +0.000 A 
ATOM     22  C   UNL     1       1.582   3.352  18.722  0.00  0.00    +0.000 A 
ENDBRANCH  15  17
ENDBRANCH  12  13
ENDBRANCH  11  12
ENDBRANCH   9  11
ENDBRANCH   6   9
BRANCH   1  23
ATOM     23  C   UNL     1       8.066  10.327  17.835  0.00  0.00    +0.000 C 
BRANCH  23  30
ATOM     24  C   UNL     1       7.401  13.338  17.389  0.00  0.00    +0.000 C 
ATOM     25  C   UNL     1       8.764  12.833  17.780  0.00  0.00    +0.000 A 
ATOM     26  C   UNL     1       9.769  13.800  17.984  0.00  0.00    +0.000 A 
ATOM     27  C   UNL     1      11.092  13.431  18.208  0.00  0.00    +0.000 A 
ATOM     28  C   UNL     1      11.437  12.087  18.216  0.00  0.00    +0.000 A 
ATOM     29  C   UNL     1      10.448  11.112  18.067  0.00  0.00    +0.000 A 
ATOM     30  C   UNL     1       9.094  11.458  17.878  0.00  0.00    +0.000 A 
ENDBRANCH  23  30
ENDBRANCH   1  23
TORSDOF 7
ENDMDL
MODEL 2
REMARK VINA RESULT:      -8.2      4.288      7.499
REMARK  Name = 
REMARK  8 active torsions:
REMARK  status: ('A' for Active; 'I' for Inactive)
REMARK    1  A    between atoms: C_1  and  C_2
REMARK    2  A    between atoms: C_7  and  C_8
REMARK    3  A    between atoms: C_8  and  N_9
REMARK    4  A    between atoms: C_14  and  N_15
REMARK    5  A    between atoms: N_15  and  C_16
REMARK    6  A    between atoms: C_16  and  C_17
REMARK    7  A    between atoms: C_17  and  C_18
REMARK    8  A    between atoms: N_20  and  C_21
REMARK                            x       y       z     vdW  Elec       q    Type
REMARK                         _______ _______ _______ _____ _____    ______ ____
ROOT
ATOM      1  N   UNL     1       1.851   6.672  18.988  0.00  0.00    +0.000 N 
ATOM      2  C   UNL     1       2.655   5.653  18.532  0.00  0.00    +0.000 A 
ATOM      3  N   UNL     1       1.966   4.722  17.855  0.00  0.00    +0.000 NA
ATOM      4  C   UNL     1       2.624   3.611  17.505  0.00  0.00    +0.000 A 
ATOM      5  C   UNL     1       3.938   3.394  17.815  0.00  0.00    +0.000 A 
ATOM      6  C   UNL     1       4.584   4.408  18.494  0.00  0.00    +0.000 A 
ATOM      7  N   UNL     1       3.957   5.556  18.837  0.00  0.00    +0.000 NA
ATOM      8  H   UNL     1       0.996   6.582  18.462  0.00  0.00    +0.000 HD
ENDROOT
BRANCH   6   9
ATOM      9  N   UNL     1       5.949   4.204  18.763  0.00  0.00    +0.000 N 
ATOM     10  H   UNL     1       6.079   3.389  19.358  0.00  0.00    +0.000 HD
BRANCH   9  11
ATOM     11  C   UNL     1       6.723   5.356  19.202  0.00  0.00    +0.000 C 
BRANCH  11  12
ATOM     12  C   UNL     1       7.255   6.164  18.028  0.00  0.00    +0.000 C 
BRANCH  12  13
ATOM     13  C   UNL     1       7.434   5.255  16.839  0.00  0.00    +0.000 C 
ATOM     14  O   UNL     1       8.121   4.242  16.935  0.00  0.00    +0.000 OA
ATOM     15  N   UNL     1       6.761   5.690  15.709  0.00  0.00    +0.000 N 
ATOM     16  H   UNL     1       6.406   6.640  15.724  0.00  0.00    +0.000 HD
BRANCH  15  17
ATOM     17  C   UNL     1       6.618   4.980  14.499  0.00  0.00    +0.000 A 
ATOM     18  C   UNL     1       7.588   4.986  13.494  0.00  0.00    +0.000 A 
ATOM     19  C   UNL     1       7.386   4.273  12.309  0.00  0.00    +0.000 A 
ATOM     20  C   UNL     1       6.216   3.544  12.123  0.00  0.00    +0.000 A 
ATOM     21  C   UNL     1       5.252   3.508  13.128  0.00  0.00    +0.000 A 
ATOM     22  C   UNL     1       5.456   4.220  14.317  0.00  0.00    +0.000 A 
ENDBRANCH  15  17
ENDBRANCH  12  13
ENDBRANCH  11  12
ENDBRANCH   9  11
ENDBRANCH   6   9
BRANCH   1  23
ATOM     23  C   UNL     1       2.343   8.018  19.159  0.00  0.00    +0.000 C 
BRANCH  23  30
ATOM     24  C   UNL     1       1.040   8.839  21.867  0.00  0.00    +0.000 C 
ATOM     25  C   UNL     1       0.630   9.410  20.536  0.00  0.00    +0.000 A 
ATOM     26  C   UNL     1      -0.379  10.394  20.546  0.00  0.00    +0.000 A 
ATOM     27  C   UNL     1      -0.927  10.880  19.363  0.00  0.00    +0.000 A 
ATOM     28  C   UNL     1      -0.488  10.377  18.147  0.00  0.00    +0.000 A 
ATOM     29  C   UNL     1       0.546   9.438  18.113  0.00  0.00    +0.000 A 
ATOM     30  C   UNL     1       1.146   8.959  19.295  0.00  0.00    +0.000 A 
ENDBRANCH  23  30
ENDBRANCH   1  23
TORSDOF 7
ENDMDL
MODEL 3
REMARK VINA RESULT:      -8.1      4.140      7.473
REMARK  Name = 
REMARK  8 active torsions:
REMARK  status: ('A' for Active; 'I' for Inactive)
REMARK    1  A    between atoms: C_1  and  C_2
REMARK    2  A    between atoms: C_7  and  C_8
REMARK    3  A    between atoms: C_8  and  N_9
REMARK    4  A    between atoms: C_14  and  N_15
REMARK    5  A    between atoms: N_15  and  C_16
REMARK    6  A    between atoms: C_16  and  C_17
REMARK    7  A    between atoms: C_17  and  C_18
REMARK    8  A    between atoms: N_20  and  C_21
REMARK                            x       y       z     vdW  Elec       q    Type
REMARK                         _______ _______ _______ _____ _____    ______ ____
ROOT
ATOM      1  N   UNL     1       1.776   6.235  20.479  0.00  0.00    +0.000 N 
ATOM      2  C   UNL     1       2.510   5.435  19.633  0.00  0.00    +0.000 A 
ATOM      3  N   UNL     1       1.742   4.576  18.946  0.00  0.00    +0.000 NA
ATOM      4  C   UNL     1       2.370   3.649  18.215  0.00  0.00    +0.000 A 
ATOM      5  C   UNL     1       3.732   3.544  18.153  0.00  0.00    +0.000 A 
ATOM      6  C   UNL     1       4.453   4.478  18.870  0.00  0.00    +0.000 A 
ATOM      7  N   UNL     1       3.851   5.447  19.596  0.00  0.00    +0.000 NA
ATOM      8  H   UNL     1       0.824   6.142  20.161  0.00  0.00    +0.000 HD
ENDROOT
BRANCH   6   9
ATOM      9  N   UNL     1       5.852   4.400  18.760  0.00  0.00    +0.000 N 
ATOM     10  H   UNL     1       6.187   3.495  19.081  0.00  0.00    +0.000 HD
BRANCH   9  11
ATOM     11  C   UNL     1       6.627   5.512  19.292  0.00  0.00    +0.000 C 
BRANCH  11  12
ATOM     12  C   UNL     1       7.557   6.109  18.247  0.00  0.00    +0.000 C 
BRANCH  12  13
ATOM     13  C   UNL     1       6.921   5.987  16.886  0.00  0.00    +0.000 C 
ATOM     14  O   UNL     1       6.073   6.800  16.528  0.00  0.00    +0.000 OA
ATOM     15  N   UNL     1       7.395   4.913  16.152  0.00  0.00    +0.000 N 
ATOM     16  H   UNL     1       7.940   4.220  16.654  0.00  0.00    +0.000 HD
BRANCH  15  17
ATOM     17  C   UNL     1       7.101   4.631  14.802  0.00  0.00    +0.000 A 
ATOM     18  C   UNL     1       6.098   3.742  14.410  0.00  0.00    +0.000 A 
ATOM     19  C   UNL     1       5.861   3.492  13.057  0.00  0.00    +0.000 A 
ATOM     20  C   UNL     1       6.620   4.134  12.083  0.00  0.00    +0.000 A 
ATOM     21  C   UNL     1       7.606   5.045  12.460  0.00  0.00    +0.000 A 
ATOM     22  C   UNL     1       7.841   5.296  13.817  0.00  0.00    +0.000 A 
ENDBRANCH  15  17
ENDBRANCH  12  13
ENDBRANCH  11  12
ENDBRANCH   9  11
ENDBRANCH   6   9
BRANCH   1  23
ATOM     23  C   UNL     1       2.194   7.572  20.824  0.00  0.00    +0.000 C 
BRANCH  23  30
ATOM     24  C   UNL     1       2.724   8.372  17.859  0.00  0.00    +0.000 C 
ATOM     25  C   UNL     1       1.533   8.841  18.651  0.00  0.00    +0.000 A 
ATOM     26  C   UNL     1       0.601   9.659  17.980  0.00  0.00    +0.000 A 
ATOM     27  C   UNL     1      -0.455  10.258  18.658  0.00  0.00    +0.000 A 
ATOM     28  C   UNL     1      -0.590  10.065  20.025  0.00  0.00    +0.000 A 
ATOM     29  C   UNL     1       0.292   9.218  20.700  0.00  0.00    +0.000 A 
ATOM     30  C   UNL     1       1.347   8.566  20.029  0.00  0.00    +0.000 A 
ENDBRANCH  23  30
ENDBRANCH   1  23
TORSDOF 7
ENDMDL
MODEL 4
REMARK VINA RESULT:      -8.0      4.361      8.226
REMARK  Name = 
REMARK  8 active torsions:
REMARK  status: ('A' for Active; 'I' for Inactive)
REMARK    1  A    between atoms: C_1  and  C_2
REMARK    2  A    between atoms: C_7  and  C_8
REMARK    3  A    between atoms: C_8  and  N_9
REMARK    4  A    between atoms: C_14  and  N_15
REMARK    5  A    between atoms: N_15  and  C_16
REMARK    6  A    between atoms: C_16  and  C_17
REMARK    7  A    between atoms: C_17  and  C_18
REMARK    8  A    between atoms: N_20  and  C_21
REMARK                            x       y       z     vdW  Elec       q    Type
REMARK                         _______ _______ _______ _____ _____    ______ ____
ROOT
ATOM      1  N   UNL     1       5.481   3.202  19.041  0.00  0.00    +0.000 N 
ATOM      2  C   UNL     1       5.777   4.395  18.422  0.00  0.00    +0.000 A 
ATOM      3  N   UNL     1       7.089   4.674  18.449  0.00  0.00    +0.000 NA
ATOM      4  C   UNL     1       7.464   5.882  18.015  0.00  0.00    +0.000 A 
ATOM      5  C   UNL     1       6.578   6.821  17.566  0.00  0.00    +0.000 A 
ATOM      6  C   UNL     1       5.248   6.452  17.549  0.00  0.00    +0.000 A 
ATOM      7  N   UNL     1       4.838   5.228  17.952  0.00  0.00    +0.000 NA
ATOM      8  H   UNL     1       6.366   2.725  19.118  0.00  0.00    +0.000 HD
ENDROOT
BRANCH   6   9
ATOM      9  N   UNL     1       4.346   7.401  17.036  0.00  0.00    +0.000 N 
ATOM     10  H   UNL     1       4.735   8.338  17.103  0.00  0.00    +0.000 HD
BRANCH   9  11
ATOM     11  C   UNL     1       2.966   7.325  17.494  0.00  0.00    +0.000 C 
BRANCH  11  12
ATOM     12  C   UNL     1       2.414   8.694  17.864  0.00  0.00    +0.000 C 
BRANCH  12  13
ATOM     13  C   UNL     1       1.769   8.619  19.224  0.00  0.00    +0.000 C 
ATOM     14  O   UNL     1       2.015   7.675  19.971  0.00  0.00    +0.000 OA
ATOM     15  N   UNL     1       0.927   9.685  19.492  0.00  0.00    +0.000 N 
ATOM     16  H   UNL     1       0.669  10.274  18.708  0.00  0.00    +0.000 HD
BRANCH  15  17
ATOM     17  C   UNL     1       0.304   9.965  20.726  0.00  0.00    +0.000 A 
ATOM     18  C   UNL     1       0.418   9.134  21.843  0.00  0.00    +0.000 A 
ATOM     19  C   UNL     1      -0.232   9.456  23.036  0.00  0.00    +0.000 A 
ATOM     20  C   UNL     1      -0.997  10.615  23.125  0.00  0.00    +0.000 A 
ATOM     21  C   UNL     1      -1.097  11.467  22.027  0.00  0.00    +0.000 A 
ATOM     22  C   UNL     1      -0.442  11.144  20.831  0.00  0.00    +0.000 A 
ENDBRANCH  15  17
ENDBRANCH  12  13
ENDBRANCH  11  12
ENDBRANCH   9  11
ENDBRANCH   6   9
BRANCH   1  23
ATOM     23  C   UNL     1       4.362   2.387  18.637  0.00  0.00    +0.000 C 
BRANCH  23  30
ATOM     24  C   UNL     1       1.698   3.696  17.685  0.00  0.00    +0.000 C 
ATOM     25  C   UNL     1       1.931   3.200  19.087  0.00  0.00    +0.000 A 
ATOM     26  C   UNL     1       0.856   3.315  19.992  0.00  0.00    +0.000 A 
ATOM     27  C   UNL     1       1.013   3.018  21.342  0.00  0.00    +0.000 A 
ATOM     28  C   UNL     1       2.253   2.619  21.817  0.00  0.00    +0.000 A 
ATOM     29  C   UNL     1       3.319   2.450  20.929  0.00  0.00    +0.000 A 
ATOM     30  C   UNL     1       3.176   2.704  19.549  0.00  0.00    +0.000 A 
ENDBRANCH  23  30
ENDBRANCH   1  23
TORSDOF 7
ENDMDL
MODEL 5
REMARK VINA RESULT:      -7.8      1.688      2.005
REMARK  Name = 
REMARK  8 active torsions:
REMARK  status: ('A' for Active; 'I' for Inactive)
REMARK    1  A    between atoms: C_1  and  C_2
REMARK    2  A    between atoms: C_7  and  C_8
REMARK    3  A    between atoms: C_8  and  N_9
REMARK    4  A    between atoms: C_14  and  N_15
REMARK    5  A    between atoms: N_15  and  C_16
REMARK    6  A    between atoms: C_16  and  C_17
REMARK    7  A    between atoms: C_17  and  C_18
REMARK    8  A    between atoms: N_20  and  C_21
REMARK                            x       y       z     vdW  Elec       q    Type
REMARK                         _______ _______ _______ _____ _____    ______ ____
ROOT
ATOM      1  N   UNL     1       8.864   8.595  18.889  0.00  0.00    +0.000 N 
ATOM      2  C   UNL     1       8.230   7.460  18.442  0.00  0.00    +0.000 A 
ATOM      3  N   UNL     1       8.178   6.499  19.377  0.00  0.00    +0.000 NA
ATOM      4  C   UNL     1       7.723   5.301  18.995  0.00  0.00    +0.000 A 
ATOM      5  C   UNL     1       7.329   5.026  17.716  0.00  0.00    +0.000 A 
ATOM      6  C   UNL     1       7.390   6.071  16.816  0.00  0.00    +0.000 A 
ATOM      7  N   UNL     1       7.817   7.303  17.175  0.00  0.00    +0.000 NA
ATOM      8  H   UNL     1       8.888   8.499  19.892  0.00  0.00    +0.000 HD
ENDROOT
BRANCH   6   9
ATOM      9  N   UNL     1       6.933   5.799  15.515  0.00  0.00    +0.000 N 
ATOM     10  H   UNL     1       7.325   6.461  14.851  0.00  0.00    +0.000 HD
BRANCH   9  11
ATOM     11  C   UNL     1       5.502   5.598  15.338  0.00  0.00    +0.000 C 
BRANCH  11  12
ATOM     12  C   UNL     1       5.110   4.135  15.486  0.00  0.00    +0.000 C 
BRANCH  12  13
ATOM     13  C   UNL     1       4.276   3.967  16.730  0.00  0.00    +0.000 C 
ATOM     14  O   UNL     1       4.205   2.871  17.280  0.00  0.00    +0.000 OA
ATOM     15  N   UNL     1       3.652   5.134  17.135  0.00  0.00    +0.000 N 
ATOM     16  H   UNL     1       3.641   5.902  16.473  0.00  0.00    +0.000 HD
BRANCH  15  17
ATOM     17  C   UNL     1       2.933   5.323  18.334  0.00  0.00    +0.000 A 
ATOM     18  C   UNL     1       2.898   6.541  19.017  0.00  0.00    +0.000 A 
ATOM     19  C   UNL     1       2.180   6.665  20.209  0.00  0.00    +0.000 A 
ATOM     20  C   UNL     1       1.486   5.574  20.724  0.00  0.00    +0.000 A 
ATOM     21  C   UNL     1       1.491   4.360  20.039  0.00  0.00    +0.000 A 
ATOM     22  C   UNL     1       2.209   4.238  18.842  0.00  0.00    +0.000 A 
ENDBRANCH  15  17
ENDBRANCH  12  13
ENDBRANCH  11  12
ENDBRANCH   9  11
ENDBRANCH   6   9
BRANCH   1  23
ATOM     23  C   UNL     1       8.527   9.907  18.392  0.00  0.00    +0.000 C 
BRANCH  23  30
ATOM     24  C   UNL     1       8.989  11.145  21.215  0.00  0.00    +0.000 C 
ATOM     25  C   UNL     1       9.928  11.338  20.055  0.00  0.00    +0.000 A 
ATOM     26  C   UNL     1      11.091  12.097  20.294  0.00  0.00    +0.000 A 
ATOM     27  C   UNL     1      11.949  12.451  19.257  0.00  0.00    +0.000 A 
ATOM     28  C   UNL     1      11.649  12.069  17.958  0.00  0.00    +0.000 A 
ATOM     29  C   UNL     1      10.528  11.274  17.706  0.00  0.00    +0.000 A 
ATOM     30  C   UNL     1       9.665  10.866  18.744  0.00  0.00    +0.000 A 
ENDBRANCH  23  30
ENDBRANCH   1  23
TORSDOF 7
ENDMDL
MODEL 6
REMARK VINA RESULT:      -7.7      1.426      1.776
REMARK  Name = 
REMARK  8 active torsions:
REMARK  status: ('A' for Active; 'I' for Inactive)
REMARK    1  A    between atoms: C_1  and  C_2
REMARK    2  A    between atoms: C_7  and  C_8
REMARK    3  A    between atoms: C_8  and  N_9
REMARK    4  A    between atoms: C_14  and  N_15
REMARK    5  A    between atoms: N_15  and  C_16
REMARK    6  A    between atoms: C_16  and  C_17
REMARK    7  A    between atoms: C_17  and  C_18
REMARK    8  A    between atoms: N_20  and  C_21
REMARK                            x       y       z     vdW  Elec       q    Type
REMARK                         _______ _______ _______ _____ _____    ______ ____
ROOT
ATOM      1  N   UNL     1       9.042   8.907  18.748  0.00  0.00    +0.000 N 
ATOM      2  C   UNL     1       8.298   7.786  18.463  0.00  0.00    +0.000 A 
ATOM      3  N   UNL     1       8.405   6.845  19.414  0.00  0.00    +0.000 NA
ATOM      4  C   UNL     1       7.848   5.656  19.159  0.00  0.00    +0.000 A 
ATOM      5  C   UNL     1       7.199   5.371  17.990  0.00  0.00    +0.000 A 
ATOM      6  C   UNL     1       7.111   6.397  17.071  0.00  0.00    +0.000 A 
ATOM      7  N   UNL     1       7.638   7.620  17.308  0.00  0.00    +0.000 NA
ATOM      8  H   UNL     1       9.262   8.829  19.728  0.00  0.00    +0.000 HD
ENDROOT
BRANCH   6   9
ATOM      9  N   UNL     1       6.397   6.116  15.893  0.00  0.00    +0.000 N 
ATOM     10  H   UNL     1       6.538   6.851  15.204  0.00  0.00    +0.000 HD
BRANCH   9  11
ATOM     11  C   UNL     1       5.000   5.731  16.035  0.00  0.00    +0.000 C 
BRANCH  11  12
ATOM     12  C   UNL     1       4.821   4.221  16.006  0.00  0.00    +0.000 C 
BRANCH  12  13
ATOM     13  C   UNL     1       3.685   3.837  16.919  0.00  0.00    +0.000 C 
ATOM     14  O   UNL     1       2.716   3.227  16.474  0.00  0.00    +0.000 OA
ATOM     15  N   UNL     1       3.877   4.234  18.232  0.00  0.00    +0.000 N 
ATOM     16  H   UNL     1       4.622   4.899  18.405  0.00  0.00    +0.000 HD
BRANCH  15  17
ATOM     17  C   UNL     1       3.066   3.891  19.333  0.00  0.00    +0.000 A 
ATOM     18  C   UNL     1       1.825   4.484  19.580  0.00  0.00    +0.000 A 
ATOM     19  C   UNL     1       1.071   4.113  20.696  0.00  0.00    +0.000 A 
ATOM     20  C   UNL     1       1.548   3.142  21.570  0.00  0.00    +0.000 A 
ATOM     21  C   UNL     1       2.772   2.523  21.321  0.00  0.00    +0.000 A 
ATOM     22  C   UNL     1       3.526   2.894  20.201  0.00  0.00    +0.000 A 
ENDBRANCH  15  17
ENDBRANCH  12  13
ENDBRANCH  11  12
ENDBRANCH   9  11
ENDBRANCH   6   9
BRANCH   1  23
ATOM     23  C   UNL     1       8.653  10.220  18.295  0.00  0.00    +0.000 C 
BRANCH  23  30
ATOM     24  C   UNL     1      10.401  12.554  17.196  0.00  0.00    +0.000 C 
ATOM     25  C   UNL     1      10.059  12.380  18.652  0.00  0.00    +0.000 A 
ATOM     26  C   UNL     1      10.541  13.361  19.542  0.00  0.00    +0.000 A 
ATOM     27  C   UNL     1      10.402  13.218  20.919  0.00  0.00    +0.000 A 
ATOM     28  C   UNL     1       9.794  12.082  21.433  0.00  0.00    +0.000 A 
ATOM     29  C   UNL     1       9.264  11.122  20.566  0.00  0.00    +0.000 A 
ATOM     30  C   UNL     1       9.356  11.262  19.166  0.00  0.00    +0.000 A 
ENDBRANCH  23  30
ENDBRANCH   1  23
TORSDOF 7
ENDMDL
MODEL 7
REMARK VINA RESULT:      -7.6      4.565      7.440
REMARK  Name = 
REMARK  8 active torsions:
REMARK  status: ('A' for Active; 'I' for Inactive)
REMARK    1  A    between atoms: C_1  and  C_2
REMARK    2  A    between atoms: C_7  and  C_8
REMARK    3  A    between atoms: C_8  and  N_9
REMARK    4  A    between atoms: C_14  and  N_15
REMARK    5  A    between atoms: N_15  and  C_16
REMARK    6  A    between atoms: C_16  and  C_17
REMARK    7  A    between atoms: C_17  and  C_18
REMARK    8  A    between atoms: N_20  and  C_21
REMARK                            x       y       z     vdW  Elec       q    Type
REMARK                         _______ _______ _______ _____ _____    ______ ____
ROOT
ATOM      1  N   UNL     1       1.611   5.472  20.419  0.00  0.00    +0.000 N 
ATOM      2  C   UNL     1       2.383   4.761  19.530  0.00  0.00    +0.000 A 
ATOM      3  N   UNL     1       1.645   4.042  18.671  0.00  0.00    +0.000 NA
ATOM      4  C   UNL     1       2.298   3.194  17.868  0.00  0.00    +0.000 A 
ATOM      5  C   UNL     1       3.655   3.033  17.899  0.00  0.00    +0.000 A 
ATOM      6  C   UNL     1       4.347   3.825  18.793  0.00  0.00    +0.000 A 
ATOM      7  N   UNL     1       3.722   4.713  19.599  0.00  0.00    +0.000 NA
ATOM      8  H   UNL     1       0.687   5.469  20.018  0.00  0.00    +0.000 HD
ENDROOT
BRANCH   6   9
ATOM      9  N   UNL     1       5.747   3.695  18.784  0.00  0.00    +0.000 N 
ATOM     10  H   UNL     1       6.049   3.016  19.477  0.00  0.00    +0.000 HD
BRANCH   9  11
ATOM     11  C   UNL     1       6.531   4.922  18.812  0.00  0.00    +0.000 C 
BRANCH  11  12
ATOM     12  C   UNL     1       5.935   5.999  17.918  0.00  0.00    +0.000 C 
BRANCH  12  13
ATOM     13  C   UNL     1       6.538   5.892  16.541  0.00  0.00    +0.000 C 
ATOM     14  O   UNL     1       7.581   6.484  16.278  0.00  0.00    +0.000 OA
ATOM     15  N   UNL     1       5.807   5.089  15.681  0.00  0.00    +0.000 N 
ATOM     16  H   UNL     1       4.870   4.835  15.976  0.00  0.00    +0.000 HD
BRANCH  15  17
ATOM     17  C   UNL     1       6.194   4.683  14.387  0.00  0.00    +0.000 A 
ATOM     18  C   UNL     1       5.479   3.747  13.637  0.00  0.00    +0.000 A 
ATOM     19  C   UNL     1       5.919   3.373  12.365  0.00  0.00    +0.000 A 
ATOM     20  C   UNL     1       7.073   3.937  11.830  0.00  0.00    +0.000 A 
ATOM     21  C   UNL     1       7.781   4.892  12.557  0.00  0.00    +0.000 A 
ATOM     22  C   UNL     1       7.338   5.268  13.832  0.00  0.00    +0.000 A 
ENDBRANCH  15  17
ENDBRANCH  12  13
ENDBRANCH  11  12
ENDBRANCH   9  11
ENDBRANCH   6   9
BRANCH   1  23
ATOM     23  C   UNL     1       2.048   6.727  20.980  0.00  0.00    +0.000 C 
BRANCH  23  30
ATOM     24  C   UNL     1      -0.082   8.919  21.592  0.00  0.00    +0.000 C 
ATOM     25  C   UNL     1       0.766   8.903  20.349  0.00  0.00    +0.000 A 
ATOM     26  C   UNL     1       0.593   9.968  19.443  0.00  0.00    +0.000 A 
ATOM     27  C   UNL     1       1.223   9.973  18.203  0.00  0.00    +0.000 A 
ATOM     28  C   UNL     1       2.025   8.902  17.837  0.00  0.00    +0.000 A 
ATOM     29  C   UNL     1       2.251   7.860  18.740  0.00  0.00    +0.000 A 
ATOM     30  C   UNL     1       1.657   7.850  20.019  0.00  0.00    +0.000 A 
ENDBRANCH  23  30
ENDBRANCH   1  23
TORSDOF 7
ENDMDL
MODEL 8
REMARK VINA RESULT:      -7.5      4.403      8.661
REMARK  Name = 
REMARK  8 active torsions:
REMARK  status: ('A' for Active; 'I' for Inactive)
REMARK    1  A    between atoms: C_1  and  C_2
REMARK    2  A    between atoms: C_7  and  C_8
REMARK    3  A    between atoms: C_8  and  N_9
REMARK    4  A    between atoms: C_14  and  N_15
REMARK    5  A    between atoms: N_15  and  C_16
REMARK    6  A    between atoms: C_16  and  C_17
REMARK    7  A    between atoms: C_17  and  C_18
REMARK    8  A    between atoms: N_20  and  C_21
REMARK                            x       y       z     vdW  Elec       q    Type
REMARK                         _______ _______ _______ _____ _____    ______ ____
ROOT
ATOM      1  N   UNL     1       4.866   2.914  17.740  0.00  0.00    +0.000 N 
ATOM      2  C   UNL     1       5.070   4.224  17.372  0.00  0.00    +0.000 A 
ATOM      3  N   UNL     1       6.287   4.425  16.844  0.00  0.00    +0.000 NA
ATOM      4  C   UNL     1       6.644   5.690  16.599  0.00  0.00    +0.000 A 
ATOM      5  C   UNL     1       5.835   6.759  16.870  0.00  0.00    +0.000 A 
ATOM      6  C   UNL     1       4.590   6.470  17.391  0.00  0.00    +0.000 A 
ATOM      7  N   UNL     1       4.186   5.201  17.624  0.00  0.00    +0.000 NA
ATOM      8  H   UNL     1       5.593   2.398  17.269  0.00  0.00    +0.000 HD
ENDROOT
BRANCH   6   9
ATOM      9  N   UNL     1       3.742   7.568  17.618  0.00  0.00    +0.000 N 
ATOM     10  H   UNL     1       4.204   8.265  18.196  0.00  0.00    +0.000 HD
BRANCH   9  11
ATOM     11  C   UNL     1       2.382   7.283  18.052  0.00  0.00    +0.000 C 
BRANCH  11  12
ATOM     12  C   UNL     1       2.221   7.437  19.557  0.00  0.00    +0.000 C 
BRANCH  12  13
ATOM     13  C   UNL     1       1.486   8.719  19.851  0.00  0.00    +0.000 C 
ATOM     14  O   UNL     1       1.225   9.028  21.011  0.00  0.00    +0.000 OA
ATOM     15  N   UNL     1       1.175   9.447  18.715  0.00  0.00    +0.000 N 
ATOM     16  H   UNL     1       1.274   8.971  17.825  0.00  0.00    +0.000 HD
BRANCH  15  17
ATOM     17  C   UNL     1       0.627  10.746  18.681  0.00  0.00    +0.000 A 
ATOM     18  C   UNL     1       1.397  11.901  18.841  0.00  0.00    +0.000 A 
ATOM     19  C   UNL     1       0.797  13.162  18.811  0.00  0.00    +0.000 A 
ATOM     20  C   UNL     1      -0.575  13.279  18.614  0.00  0.00    +0.000 A 
ATOM     21  C   UNL     1      -1.351  12.137  18.426  0.00  0.00    +0.000 A 
ATOM     22  C   UNL     1      -0.748  10.872  18.454  0.00  0.00    +0.000 A 
ENDBRANCH  15  17
ENDBRANCH  12  13
ENDBRANCH  11  12
ENDBRANCH   9  11
ENDBRANCH   6   9
BRANCH   1  23
ATOM     23  C   UNL     1       3.556   2.309  17.725  0.00  0.00    +0.000 C 
BRANCH  23  30
ATOM     24  C   UNL     1       0.953   4.022  17.722  0.00  0.00    +0.000 C 
ATOM     25  C   UNL     1       1.564   3.434  18.965  0.00  0.00    +0.000 A 
ATOM     26  C   UNL     1       0.883   3.657  20.179  0.00  0.00    +0.000 A 
ATOM     27  C   UNL     1       1.436   3.279  21.398  0.00  0.00    +0.000 A 
ATOM     28  C   UNL     1       2.691   2.688  21.428  0.00  0.00    +0.000 A 
ATOM     29  C   UNL     1       3.361   2.412  20.233  0.00  0.00    +0.000 A 
ATOM     30  C   UNL     1       2.804   2.748  18.982  0.00  0.00    +0.000 A 
ENDBRANCH  23  30
ENDBRANCH   1  23
TORSDOF 7
ENDMDL
MODEL 9
REMARK VINA RESULT:      -7.5      4.699      8.721
REMARK  Name = 
REMARK  8 active torsions:
REMARK  status: ('A' for Active; 'I' for Inactive)
REMARK    1  A    between atoms: C_1  and  C_2
REMARK    2  A    between atoms: C_7  and  C_8
REMARK    3  A    between atoms: C_8  and  N_9
REMARK    4  A    between atoms: C_14  and  N_15
REMARK    5  A    between atoms: N_15  and  C_16
REMARK    6  A    between atoms: C_16  and  C_17
REMARK    7  A    between atoms: C_17  and  C_18
REMARK    8  A    between atoms: N_20  and  C_21
REMARK                            x       y       z     vdW  Elec       q    Type
REMARK                         _______ _______ _______ _____ _____    ______ ____
ROOT
ATOM      1  N   UNL     1       5.343   3.216  18.797  0.00  0.00    +0.000 N 
ATOM      2  C   UNL     1       5.580   4.455  18.251  0.00  0.00    +0.000 A 
ATOM      3  N   UNL     1       6.890   4.725  18.142  0.00  0.00    +0.000 NA
ATOM      4  C   UNL     1       7.229   5.964  17.770  0.00  0.00    +0.000 A 
ATOM      5  C   UNL     1       6.309   6.942  17.512  0.00  0.00    +0.000 A 
ATOM      6  C   UNL     1       4.981   6.582  17.624  0.00  0.00    +0.000 A 
ATOM      7  N   UNL     1       4.604   5.331  17.969  0.00  0.00    +0.000 NA
ATOM      8  H   UNL     1       6.223   2.729  18.726  0.00  0.00    +0.000 HD
ENDROOT
BRANCH   6   9
ATOM      9  N   UNL     1       4.039   7.576  17.306  0.00  0.00    +0.000 N 
ATOM     10  H   UNL     1       4.463   8.499  17.350  0.00  0.00    +0.000 HD
BRANCH   9  11
ATOM     11  C   UNL     1       2.749   7.512  17.977  0.00  0.00    +0.000 C 
BRANCH  11  12
ATOM     12  C   UNL     1       1.883   8.723  17.663  0.00  0.00    +0.000 C 
BRANCH  12  13
ATOM     13  C   UNL     1       1.359   9.307  18.950  0.00  0.00    +0.000 C 
ATOM     14  O   UNL     1       1.454   8.673  19.998  0.00  0.00    +0.000 OA
ATOM     15  N   UNL     1       0.803  10.566  18.796  0.00  0.00    +0.000 N 
ATOM     16  H   UNL     1       0.616  10.871  17.847  0.00  0.00    +0.000 HD
BRANCH  15  17
ATOM     17  C   UNL     1       0.370  11.418  19.833  0.00  0.00    +0.000 A 
ATOM     18  C   UNL     1      -0.851  11.256  20.492  0.00  0.00    +0.000 A 
ATOM     19  C   UNL     1      -1.234  12.141  21.503  0.00  0.00    +0.000 A 
ATOM     20  C   UNL     1      -0.396  13.190  21.868  0.00  0.00    +0.000 A 
ATOM     21  C   UNL     1       0.837  13.347  21.237  0.00  0.00    +0.000 A 
ATOM     22  C   UNL     1       1.221  12.458  20.225  0.00  0.00    +0.000 A 
ENDBRANCH  15  17
ENDBRANCH  12  13
ENDBRANCH  11  12
ENDBRANCH   9  11
ENDBRANCH   6   9
BRANCH   1  23
ATOM     23  C   UNL     1       4.170   2.443  18.464  0.00  0.00    +0.000 C 
BRANCH  23  30
ATOM     24  C   UNL     1       1.463   3.837  17.802  0.00  0.00    +0.000 C 
ATOM     25  C   UNL     1       1.809   3.287  19.159  0.00  0.00    +0.000 A 
ATOM     26  C   UNL     1       0.822   3.390  20.160  0.00  0.00    +0.000 A 
ATOM     27  C   UNL     1       1.092   3.043  21.480  0.00  0.00    +0.000 A 
ATOM     28  C   UNL     1       2.361   2.602  21.827  0.00  0.00    +0.000 A 
ATOM     29  C   UNL     1       3.339   2.444  20.841  0.00  0.00    +0.000 A 
ATOM     30  C   UNL     1       3.079   2.751  19.490  0.00  0.00    +0.000 A 
ENDBRANCH  23  30
ENDBRANCH   1  23
TORSDOF 7
ENDMDL
