MODEL 1
REMARK VINA RESULT:      -8.1      0.000      0.000
REMARK  Name = 
REMARK  13 active torsions:
REMARK  status: ('A' for Active; 'I' for Inactive)
REMARK    1  A    between atoms: C_1  and  C_2
REMARK    2  A    between atoms: C_2  and  O_3
REMARK    3  A    between atoms: O_3  and  C_4
REMARK    4  A    between atoms: C_4  and  C_6
REMARK    5  A    between atoms: C_6  and  N_7
REMARK    6  A    between atoms: N_10  and  C_11
REMARK    7  A    between atoms: C_11  and  C_12
REMARK    8  A    between atoms: C_12  and  N_13
REMARK    9  A    between atoms: N_13  and  S_14
REMARK   10  A    between atoms: S_14  and  C_17
REMARK   11  A    between atoms: C_21  and  N_22
REMARK   12  A    between atoms: C_27  and  C_28
REMARK   13  A    between atoms: C_27  and  C_29
REMARK                            x       y       z     vdW  Elec       q    Type
REMARK                         _______ _______ _______ _____ _____    ______ ____
ROOT
ATOM      1  N   UNL     1       5.602   3.523  16.636  0.00  0.00    +0.000 N 
ATOM      2  C   UNL     1       4.264   3.445  16.953  0.00  0.00    +0.000 C 
ATOM      3  O   UNL     1       3.405   4.233  16.586  0.00  0.00    +0.000 OA
ATOM      4  N   UNL     1       3.989   2.313  17.688  0.00  0.00    +0.000 N 
ATOM      5  H   UNL     1       6.228   2.990  17.226  0.00  0.00    +0.000 HD
ATOM      6  H   UNL     1       4.758   1.781  18.063  0.00  0.00    +0.000 HD
ENDROOT
BRANCH   1   7
ATOM      7  C   UNL     1       6.247   4.651  15.966  0.00  0.00    +0.000 C 
ATOM      8  C   UNL     1       5.489   5.674  15.139  0.00  0.00    +0.000 C 
ATOM      9  C   UNL     1       6.283   4.620  14.418  0.00  0.00    +0.000 C 
ATOM     10  C   UNL     1       7.531   5.047  13.684  0.00  0.00    +0.000 C 
ATOM     11  C   UNL     1       5.494   3.565  13.678  0.00  0.00    +0.000 C 
BRANCH   7  12
ATOM     12  C   UNL     1       7.469   5.121  16.719  0.00  0.00    +0.000 C 
ATOM     13  O   UNL     1       8.108   4.356  17.431  0.00  0.00    +0.000 OA
BRANCH  12  14
ATOM     14  O   UNL     1       7.592   6.473  16.680  0.00  0.00    +0.000 OA
BRANCH  14  16
ATOM     15  C   UNL     1       7.911   8.597  17.742  0.00  0.00    +0.000 C 
ATOM     16  C   UNL     1       7.676   7.112  17.961  0.00  0.00    +0.000 C 
ENDBRANCH  14  16
ENDBRANCH  12  14
ENDBRANCH   7  12
ENDBRANCH   1   7
BRANCH   4  17
ATOM     17  C   UNL     1       2.636   1.901  18.038  0.00  0.00    +0.000 C 
BRANCH  17  18
ATOM     18  C   UNL     1       2.173   2.545  19.354  0.00  0.00    +0.000 C 
BRANCH  18  19
ATOM     19  N   UNL     1       1.913   3.988  19.178  0.00  0.00    +0.000 NA
ATOM     20  H   UNL     1       0.932   4.276  19.205  0.00  0.00    +0.000 HD
BRANCH  19  21
ATOM     21  S   UNL     1       2.827   5.059  20.110  0.00  0.00    +0.000 S 
ATOM     22  O   UNL     1       2.390   4.883  21.474  0.00  0.00    +0.000 OA
ATOM     23  O   UNL     1       4.216   4.919  19.727  0.00  0.00    +0.000 OA
BRANCH  21  24
ATOM     24  C   UNL     1       2.257   6.659  19.587  0.00  0.00    +0.000 A 
ATOM     25  C   UNL     1       2.395   7.042  18.247  0.00  0.00    +0.000 A 
ATOM     26  C   UNL     1       2.042   8.335  17.851  0.00  0.00    +0.000 A 
ATOM     27  C   UNL     1       1.553   9.244  18.791  0.00  0.00    +0.000 A 
ATOM     28  C   UNL     1       1.419   8.853  20.132  0.00  0.00    +0.000 A 
ATOM     29  C   UNL     1       1.773   7.560  20.542  0.00  0.00    +0.000 A 
BRANCH  28  30
ATOM     30  N   UNL     1       0.909   9.816  21.116  0.00  0.00    +0.000 N 
ATOM     31  O   UNL     1       1.222   9.649  22.303  0.00  0.00    +0.000 OA
ATOM     32  O   UNL     1       0.202  10.745  20.697  0.00  0.00    +0.000 OA
ENDBRANCH  28  30
ENDBRANCH  21  24
ENDBRANCH  19  21
ENDBRANCH  18  19
ENDBRANCH  17  18
ENDBRANCH   4  17
TORSDOF 10
ENDMDL
MODEL 2
REMARK VINA RESULT:      -7.4      3.997      5.961
REMARK  Name = 
REMARK  13 active torsions:
REMARK  status: ('A' for Active; 'I' for Inactive)
REMARK    1  A    between atoms: C_1  and  C_2
REMARK    2  A    between atoms: C_2  and  O_3
REMARK    3  A    between atoms: O_3  and  C_4
REMARK    4  A    between atoms: C_4  and  C_6
REMARK    5  A    between atoms: C_6  and  N_7
REMARK    6  A    between atoms: N_10  and  C_11
REMARK    7  A    between atoms: C_11  and  C_12
REMARK    8  A    between atoms: C_12  and  N_13
REMARK    9  A    between atoms: N_13  and  S_14
REMARK   10  A    between atoms: S_14  and  C_17
REMARK   11  A    between atoms: C_21  and  N_22
REMARK   12  A    between atoms: C_27  and  C_28
REMARK   13  A    between atoms: C_27  and  C_29
REMARK                            x       y       z     vdW  Elec       q    Type
REMARK                         _______ _______ _______ _____ _____    ______ ____
ROOT
ATOM      1  N   UNL     1       2.920   4.960  19.577  0.00  0.00    +0.000 N 
ATOM      2  C   UNL     1       2.542   6.258  19.315  0.00  0.00    +0.000 C 
ATOM      3  O   UNL     1       2.400   6.740  18.201  0.00  0.00    +0.000 OA
ATOM      4  N   UNL     1       2.267   6.944  20.478  0.00  0.00    +0.000 N 
ATOM      5  H   UNL     1       3.272   4.782  20.509  0.00  0.00    +0.000 HD
ATOM      6  H   UNL     1       2.528   6.528  21.357  0.00  0.00    +0.000 HD
ENDROOT
BRANCH   1   7
ATOM      7  C   UNL     1       3.391   4.000  18.580  0.00  0.00    +0.000 C 
ATOM      8  C   UNL     1       2.538   3.519  17.418  0.00  0.00    +0.000 C 
ATOM      9  C   UNL     1       2.733   2.597  18.592  0.00  0.00    +0.000 C 
ATOM     10  C   UNL     1       3.581   1.365  18.396  0.00  0.00    +0.000 C 
ATOM     11  C   UNL     1       1.526   2.351  19.467  0.00  0.00    +0.000 C 
BRANCH   7  12
ATOM     12  C   UNL     1       4.882   4.109  18.361  0.00  0.00    +0.000 C 
ATOM     13  O   UNL     1       5.647   4.295  19.299  0.00  0.00    +0.000 OA
BRANCH  12  14
ATOM     14  O   UNL     1       5.188   4.208  17.041  0.00  0.00    +0.000 OA
BRANCH  14  16
ATOM     15  C   UNL     1       5.211   6.485  16.298  0.00  0.00    +0.000 C 
ATOM     16  C   UNL     1       6.062   5.292  16.701  0.00  0.00    +0.000 C 
ENDBRANCH  14  16
ENDBRANCH  12  14
ENDBRANCH   7  12
ENDBRANCH   1   7
BRANCH   4  17
ATOM     17  C   UNL     1       1.707   8.288  20.495  0.00  0.00    +0.000 C 
BRANCH  17  18
ATOM     18  C   UNL     1       0.373   8.333  21.258  0.00  0.00    +0.000 C 
BRANCH  18  19
ATOM     19  N   UNL     1      -0.358   9.585  20.979  0.00  0.00    +0.000 NA
ATOM     20  H   UNL     1      -1.359   9.490  20.789  0.00  0.00    +0.000 HD
BRANCH  19  21
ATOM     21  S   UNL     1      -0.120  10.875  22.043  0.00  0.00    +0.000 S 
ATOM     22  O   UNL     1       0.052  10.293  23.351  0.00  0.00    +0.000 OA
ATOM     23  O   UNL     1       0.866  11.762  21.462  0.00  0.00    +0.000 OA
BRANCH  21  24
ATOM     24  C   UNL     1      -1.691  11.707  22.048  0.00  0.00    +0.000 A 
ATOM     25  C   UNL     1      -2.111  12.406  20.911  0.00  0.00    +0.000 A 
ATOM     26  C   UNL     1      -3.297  13.145  20.945  0.00  0.00    +0.000 A 
ATOM     27  C   UNL     1      -4.061  13.186  22.112  0.00  0.00    +0.000 A 
ATOM     28  C   UNL     1      -3.632  12.483  23.248  0.00  0.00    +0.000 A 
ATOM     29  C   UNL     1      -2.443  11.742  23.228  0.00  0.00    +0.000 A 
BRANCH  28  30
ATOM     30  N   UNL     1      -4.438  12.535  24.475  0.00  0.00    +0.000 N 
ATOM     31  O   UNL     1      -3.912  13.006  25.492  0.00  0.00    +0.000 OA
ATOM     32  O   UNL     1      -5.603  12.113  24.415  0.00  0.00    +0.000 OA
ENDBRANCH  28  30
ENDBRANCH  21  24
ENDBRANCH  19  21
ENDBRANCH  18  19
ENDBRANCH  17  18
ENDBRANCH   4  17
TORSDOF 10
ENDMDL
MODEL 3
REMARK VINA RESULT:      -7.4      5.412      8.571
REMARK  Name = 
REMARK  13 active torsions:
REMARK  status: ('A' for Active; 'I' for Inactive)
REMARK    1  A    between atoms: C_1  and  C_2
REMARK    2  A    between atoms: C_2  and  O_3
REMARK    3  A    between atoms: O_3  and  C_4
REMARK    4  A    between atoms: C_4  and  C_6
REMARK    5  A    between atoms: C_6  and  N_7
REMARK    6  A    between atoms: N_10  and  C_11
REMARK    7  A    between atoms: C_11  and  C_12
REMARK    8  A    between atoms: C_12  and  N_13
REMARK    9  A    between atoms: N_13  and  S_14
REMARK   10  A    between atoms: S_14  and  C_17
REMARK   11  A    between atoms: C_21  and  N_22
REMARK   12  A    between atoms: C_27  and  C_28
REMARK   13  A    between atoms: C_27  and  C_29
REMARK                            x       y       z     vdW  Elec       q    Type
REMARK                         _______ _______ _______ _____ _____    ______ ____
ROOT
ATOM      1  N   UNL     1       9.039  12.607  18.065  0.00  0.00    +0.000 N 
ATOM      2  C   UNL     1       9.168  11.435  18.777  0.00  0.00    +0.000 C 
ATOM      3  O   UNL     1       9.517  11.354  19.945  0.00  0.00    +0.000 OA
ATOM      4  N   UNL     1       8.783  10.347  18.024  0.00  0.00    +0.000 N 
ATOM      5  H   UNL     1       9.026  12.514  17.058  0.00  0.00    +0.000 HD
ATOM      6  H   UNL     1       8.633  10.472  17.036  0.00  0.00    +0.000 HD
ENDROOT
BRANCH   1   7
ATOM      7  C   UNL     1       9.468  13.926  18.525  0.00  0.00    +0.000 C 
ATOM      8  C   UNL     1       8.790  14.676  19.659  0.00  0.00    +0.000 C 
ATOM      9  C   UNL     1       8.510  15.112  18.247  0.00  0.00    +0.000 C 
ATOM     10  C   UNL     1       9.066  16.439  17.789  0.00  0.00    +0.000 C 
ATOM     11  C   UNL     1       7.123  14.837  17.715  0.00  0.00    +0.000 C 
BRANCH   7  12
ATOM     12  C   UNL     1      10.954  14.125  18.340  0.00  0.00    +0.000 C 
ATOM     13  O   UNL     1      11.511  13.803  17.297  0.00  0.00    +0.000 OA
BRANCH  12  14
ATOM     14  O   UNL     1      11.564  14.460  19.507  0.00  0.00    +0.000 OA
BRANCH  14  16
ATOM     15  C   UNL     1      11.999  16.493  20.696  0.00  0.00    +0.000 C 
ATOM     16  C   UNL     1      12.332  15.669  19.464  0.00  0.00    +0.000 C 
ENDBRANCH  14  16
ENDBRANCH  12  14
ENDBRANCH   7  12
ENDBRANCH   1   7
BRANCH   4  17
ATOM     17  C   UNL     1       8.680   9.000  18.568  0.00  0.00    +0.000 C 
BRANCH  17  18
ATOM     18  C   UNL     1       7.883   8.075  17.634  0.00  0.00    +0.000 C 
BRANCH  18  19
ATOM     19  N   UNL     1       7.553   6.800  18.302  0.00  0.00    +0.000 NA
ATOM     20  H   UNL     1       6.856   6.850  19.049  0.00  0.00    +0.000 HD
BRANCH  19  21
ATOM     21  S   UNL     1       7.208   5.475  17.314  0.00  0.00    +0.000 S 
ATOM     22  O   UNL     1       7.465   5.901  15.961  0.00  0.00    +0.000 OA
ATOM     23  O   UNL     1       7.847   4.308  17.885  0.00  0.00    +0.000 OA
BRANCH  21  24
ATOM     24  C   UNL     1       5.447   5.285  17.471  0.00  0.00    +0.000 A 
ATOM     25  C   UNL     1       4.637   6.417  17.617  0.00  0.00    +0.000 A 
ATOM     26  C   UNL     1       3.265   6.269  17.842  0.00  0.00    +0.000 A 
ATOM     27  C   UNL     1       2.705   4.993  17.921  0.00  0.00    +0.000 A 
ATOM     28  C   UNL     1       3.524   3.864  17.775  0.00  0.00    +0.000 A 
ATOM     29  C   UNL     1       4.902   3.999  17.553  0.00  0.00    +0.000 A 
BRANCH  28  30
ATOM     30  N   UNL     1       2.928   2.524  17.864  0.00  0.00    +0.000 N 
ATOM     31  O   UNL     1       3.677   1.577  18.140  0.00  0.00    +0.000 OA
ATOM     32  O   UNL     1       1.708   2.424  17.669  0.00  0.00    +0.000 OA
ENDBRANCH  28  30
ENDBRANCH  21  24
ENDBRANCH  19  21
ENDBRANCH  18  19
ENDBRANCH  17  18
ENDBRANCH   4  17
TORSDOF 10
ENDMDL
MODEL 4
REMARK VINA RESULT:      -7.3      3.542      8.877
REMARK  Name = 
REMARK  13 active torsions:
REMARK  status: ('A' for Active; 'I' for Inactive)
REMARK    1  A    between atoms: C_1  and  C_2
REMARK    2  A    between atoms: C_2  and  O_3
REMARK    3  A    between atoms: O_3  and  C_4
REMARK    4  A    between atoms: C_4  and  C_6
REMARK    5  A    between atoms: C_6  and  N_7
REMARK    6  A    between atoms: N_10  and  C_11
REMARK    7  A    between atoms: C_11  and  C_12
REMARK    8  A    between atoms: C_12  and  N_13
REMARK    9  A    between atoms: N_13  and  S_14
REMARK   10  A    between atoms: S_14  and  C_17
REMARK   11  A    between atoms: C_21  and  N_22
REMARK   12  A    between atoms: C_27  and  C_28
REMARK   13  A    between atoms: C_27  and  C_29
REMARK                            x       y       z     vdW  Elec       q    Type
REMARK                         _______ _______ _______ _____ _____    ______ ____
ROOT
ATOM      1  N   UNL     1      -0.725  10.205  17.371  0.00  0.00    +0.000 N 
ATOM      2  C   UNL     1       0.267   9.802  18.236  0.00  0.00    +0.000 C 
ATOM      3  O   UNL     1       0.124   9.612  19.434  0.00  0.00    +0.000 OA
ATOM      4  N   UNL     1       1.449   9.567  17.568  0.00  0.00    +0.000 N 
ATOM      5  H   UNL     1      -0.414  10.594  16.491  0.00  0.00    +0.000 HD
ATOM      6  H   UNL     1       1.531   9.867  16.610  0.00  0.00    +0.000 HD
ENDROOT
BRANCH   1   7
ATOM      7  C   UNL     1      -2.062  10.645  17.765  0.00  0.00    +0.000 C 
ATOM      8  C   UNL     1      -3.218   9.690  18.005  0.00  0.00    +0.000 C 
ATOM      9  C   UNL     1      -3.194  10.474  16.721  0.00  0.00    +0.000 C 
ATOM     10  C   UNL     1      -4.219  11.566  16.535  0.00  0.00    +0.000 C 
ATOM     11  C   UNL     1      -2.925   9.695  15.456  0.00  0.00    +0.000 C 
BRANCH   7  12
ATOM     12  C   UNL     1      -2.011  11.909  18.592  0.00  0.00    +0.000 C 
ATOM     13  O   UNL     1      -1.319  12.861  18.251  0.00  0.00    +0.000 OA
BRANCH  12  14
ATOM     14  O   UNL     1      -2.609  11.743  19.800  0.00  0.00    +0.000 OA
BRANCH  14  16
ATOM     15  C   UNL     1      -3.121  13.689  21.099  0.00  0.00    +0.000 C 
ATOM     16  C   UNL     1      -3.652  12.681  20.094  0.00  0.00    +0.000 C 
ENDBRANCH  14  16
ENDBRANCH  12  14
ENDBRANCH   7  12
ENDBRANCH   1   7
BRANCH   4  17
ATOM     17  C   UNL     1       2.625   8.993  18.208  0.00  0.00    +0.000 C 
BRANCH  17  18
ATOM     18  C   UNL     1       2.817   7.519  17.818  0.00  0.00    +0.000 C 
BRANCH  18  19
ATOM     19  N   UNL     1       2.620   6.631  18.981  0.00  0.00    +0.000 NA
ATOM     20  H   UNL     1       1.725   6.718  19.468  0.00  0.00    +0.000 HD
BRANCH  19  21
ATOM     21  S   UNL     1       2.978   4.993  18.775  0.00  0.00    +0.000 S 
ATOM     22  O   UNL     1       2.890   4.392  20.083  0.00  0.00    +0.000 OA
ATOM     23  O   UNL     1       2.208   4.502  17.651  0.00  0.00    +0.000 OA
BRANCH  21  24
ATOM     24  C   UNL     1       4.697   4.996  18.322  0.00  0.00    +0.000 A 
ATOM     25  C   UNL     1       5.665   5.352  19.268  0.00  0.00    +0.000 A 
ATOM     26  C   UNL     1       7.007   5.453  18.890  0.00  0.00    +0.000 A 
ATOM     27  C   UNL     1       7.380   5.201  17.569  0.00  0.00    +0.000 A 
ATOM     28  C   UNL     1       6.404   4.846  16.626  0.00  0.00    +0.000 A 
ATOM     29  C   UNL     1       5.055   4.745  16.992  0.00  0.00    +0.000 A 
BRANCH  28  30
ATOM     30  N   UNL     1       6.804   4.587  15.237  0.00  0.00    +0.000 N 
ATOM     31  O   UNL     1       7.688   5.303  14.747  0.00  0.00    +0.000 OA
ATOM     32  O   UNL     1       6.239   3.658  14.640  0.00  0.00    +0.000 OA
ENDBRANCH  28  30
ENDBRANCH  21  24
ENDBRANCH  19  21
ENDBRANCH  18  19
ENDBRANCH  17  18
ENDBRANCH   4  17
TORSDOF 10
ENDMDL
MODEL 5
REMARK VINA RESULT:      -7.2      4.229      6.443
REMARK  Name = 
REMARK  13 active torsions:
REMARK  status: ('A' for Active; 'I' for Inactive)
REMARK    1  A    between atoms: C_1  and  C_2
REMARK    2  A    between atoms: C_2  and  O_3
REMARK    3  A    between atoms: O_3  and  C_4
REMARK    4  A    between atoms: C_4  and  C_6
REMARK    5  A    between atoms: C_6  and  N_7
REMARK    6  A    between atoms: N_10  and  C_11
REMARK    7  A    between atoms: C_11  and  C_12
REMARK    8  A    between atoms: C_12  and  N_13
REMARK    9  A    between atoms: N_13  and  S_14
REMARK   10  A    between atoms: S_14  and  C_17
REMARK   11  A    between atoms: C_21  and  N_22
REMARK   12  A    between atoms: C_27  and  C_28
REMARK   13  A    between atoms: C_27  and  C_29
REMARK                            x       y       z     vdW  Elec       q    Type
REMARK                         _______ _______ _______ _____ _____    ______ ____
ROOT
ATOM      1  N   UNL     1       2.187   5.446  19.742  0.00  0.00    +0.000 N 
ATOM      2  C   UNL     1       2.149   6.822  19.767  0.00  0.00    +0.000 C 
ATOM      3  O   UNL     1       2.290   7.550  18.796  0.00  0.00    +0.000 OA
ATOM      4  N   UNL     1       1.859   7.292  21.030  0.00  0.00    +0.000 N 
ATOM      5  H   UNL     1       2.344   4.991  20.632  0.00  0.00    +0.000 HD
ATOM      6  H   UNL     1       1.884   6.647  21.803  0.00  0.00    +0.000 HD
ENDROOT
BRANCH   1   7
ATOM      7  C   UNL     1       2.580   4.633  18.592  0.00  0.00    +0.000 C 
ATOM      8  C   UNL     1       1.630   4.266  17.466  0.00  0.00    +0.000 C 
ATOM      9  C   UNL     1       1.962   3.216  18.491  0.00  0.00    +0.000 C 
ATOM     10  C   UNL     1       2.818   2.049  18.062  0.00  0.00    +0.000 C 
ATOM     11  C   UNL     1       0.854   2.820  19.438  0.00  0.00    +0.000 C 
BRANCH   7  12
ATOM     12  C   UNL     1       4.039   4.824  18.248  0.00  0.00    +0.000 C 
ATOM     13  O   UNL     1       4.906   4.766  19.112  0.00  0.00    +0.000 OA
BRANCH  12  14
ATOM     14  O   UNL     1       4.199   5.276  16.977  0.00  0.00    +0.000 OA
BRANCH  14  16
ATOM     15  C   UNL     1       6.295   5.370  15.821  0.00  0.00    +0.000 C 
ATOM     16  C   UNL     1       5.095   4.504  16.167  0.00  0.00    +0.000 C 
ENDBRANCH  14  16
ENDBRANCH  12  14
ENDBRANCH   7  12
ENDBRANCH   1   7
BRANCH   4  17
ATOM     17  C   UNL     1       1.613   8.698  21.319  0.00  0.00    +0.000 C 
BRANCH  17  18
ATOM     18  C   UNL     1       0.110   9.021  21.312  0.00  0.00    +0.000 C 
BRANCH  18  19
ATOM     19  N   UNL     1      -0.135  10.403  20.855  0.00  0.00    +0.000 NA
ATOM     20  H   UNL     1      -0.812  10.514  20.096  0.00  0.00    +0.000 HD
BRANCH  19  21
ATOM     21  S   UNL     1      -0.441  11.568  22.039  0.00  0.00    +0.000 S 
ATOM     22  O   UNL     1      -0.474  10.865  23.298  0.00  0.00    +0.000 OA
ATOM     23  O   UNL     1       0.446  12.689  21.809  0.00  0.00    +0.000 OA
BRANCH  21  24
ATOM     24  C   UNL     1      -2.105  12.087  21.693  0.00  0.00    +0.000 A 
ATOM     25  C   UNL     1      -2.488  12.364  20.375  0.00  0.00    +0.000 A 
ATOM     26  C   UNL     1      -3.763  12.869  20.109  0.00  0.00    +0.000 A 
ATOM     27  C   UNL     1      -4.655  13.099  21.158  0.00  0.00    +0.000 A 
ATOM     28  C   UNL     1      -4.264  12.820  22.477  0.00  0.00    +0.000 A 
ATOM     29  C   UNL     1      -2.986  12.317  22.756  0.00  0.00    +0.000 A 
BRANCH  28  30
ATOM     30  N   UNL     1      -5.206  13.069  23.576  0.00  0.00    +0.000 N 
ATOM     31  O   UNL     1      -5.989  12.159  23.882  0.00  0.00    +0.000 OA
ATOM     32  O   UNL     1      -5.153  14.173  24.139  0.00  0.00    +0.000 OA
ENDBRANCH  28  30
ENDBRANCH  21  24
ENDBRANCH  19  21
ENDBRANCH  18  19
ENDBRANCH  17  18
ENDBRANCH   4  17
TORSDOF 10
ENDMDL
MODEL 6
REMARK VINA RESULT:      -7.1      3.323      5.721
REMARK  Name = 
REMARK  13 active torsions:
REMARK  status: ('A' for Active; 'I' for Inactive)
REMARK    1  A    between atoms: C_1  and  C_2
REMARK    2  A    between atoms: C_2  and  O_3
REMARK    3  A    between atoms: O_3  and  C_4
REMARK    4  A    between atoms: C_4  and  C_6
REMARK    5  A    between atoms: C_6  and  N_7
REMARK    6  A    between atoms: N_10  and  C_11
REMARK    7  A    between atoms: C_11  and  C_12
REMARK    8  A    between atoms: C_12  and  N_13
REMARK    9  A    between atoms: N_13  and  S_14
REMARK   10  A    between atoms: S_14  and  C_17
REMARK   11  A    between atoms: C_21  and  N_22
REMARK   12  A    between atoms: C_27  and  C_28
REMARK   13  A    between atoms: C_27  and  C_29
REMARK                            x       y       z     vdW  Elec       q    Type
REMARK                         _______ _______ _______ _____ _____    ______ ____
ROOT
ATOM      1  N   UNL     1       4.524   6.566  17.572  0.00  0.00    +0.000 N 
ATOM      2  C   UNL     1       3.339   6.958  18.154  0.00  0.00    +0.000 C 
ATOM      3  O   UNL     1       2.858   6.475  19.168  0.00  0.00    +0.000 OA
ATOM      4  N   UNL     1       2.783   8.027  17.485  0.00  0.00    +0.000 N 
ATOM      5  H   UNL     1       4.655   6.840  16.607  0.00  0.00    +0.000 HD
ATOM      6  H   UNL     1       3.163   8.287  16.590  0.00  0.00    +0.000 HD
ENDROOT
BRANCH   1   7
ATOM      7  C   UNL     1       5.309   5.395  17.960  0.00  0.00    +0.000 C 
ATOM      8  C   UNL     1       6.047   5.287  19.283  0.00  0.00    +0.000 C 
ATOM      9  C   UNL     1       6.846   5.576  18.042  0.00  0.00    +0.000 C 
ATOM     10  C   UNL     1       7.760   4.497  17.517  0.00  0.00    +0.000 C 
ATOM     11  C   UNL     1       7.437   6.961  17.924  0.00  0.00    +0.000 C 
BRANCH   7  12
ATOM     12  C   UNL     1       4.750   4.127  17.360  0.00  0.00    +0.000 C 
ATOM     13  O   UNL     1       4.547   4.032  16.156  0.00  0.00    +0.000 OA
BRANCH  12  14
ATOM     14  O   UNL     1       4.314   3.269  18.319  0.00  0.00    +0.000 OA
BRANCH  14  16
ATOM     15  C   UNL     1       1.950   3.369  17.947  0.00  0.00    +0.000 C 
ATOM     16  C   UNL     1       3.178   2.475  17.951  0.00  0.00    +0.000 C 
ENDBRANCH  14  16
ENDBRANCH  12  14
ENDBRANCH   7  12
ENDBRANCH   1   7
BRANCH   4  17
ATOM     17  C   UNL     1       1.606   8.739  17.963  0.00  0.00    +0.000 C 
BRANCH  17  18
ATOM     18  C   UNL     1       1.875  10.246  18.098  0.00  0.00    +0.000 C 
BRANCH  18  19
ATOM     19  N   UNL     1       0.614  11.001  18.240  0.00  0.00    +0.000 NA
ATOM     20  H   UNL     1      -0.220  10.449  18.457  0.00  0.00    +0.000 HD
BRANCH  19  21
ATOM     21  S   UNL     1       0.639  12.371  19.228  0.00  0.00    +0.000 S 
ATOM     22  O   UNL     1       2.029  12.670  19.469  0.00  0.00    +0.000 OA
ATOM     23  O   UNL     1      -0.270  13.348  18.667  0.00  0.00    +0.000 OA
BRANCH  21  24
ATOM     24  C   UNL     1      -0.039  11.789  20.765  0.00  0.00    +0.000 A 
ATOM     25  C   UNL     1       0.538  10.686  21.406  0.00  0.00    +0.000 A 
ATOM     26  C   UNL     1      -0.051  10.163  22.560  0.00  0.00    +0.000 A 
ATOM     27  C   UNL     1      -1.214  10.739  23.073  0.00  0.00    +0.000 A 
ATOM     28  C   UNL     1      -1.787  11.843  22.424  0.00  0.00    +0.000 A 
ATOM     29  C   UNL     1      -1.208  12.375  21.264  0.00  0.00    +0.000 A 
BRANCH  28  30
ATOM     30  N   UNL     1      -3.014  12.442  22.966  0.00  0.00    +0.000 N 
ATOM     31  O   UNL     1      -3.473  13.438  22.391  0.00  0.00    +0.000 OA
ATOM     32  O   UNL     1      -3.524  11.905  23.962  0.00  0.00    +0.000 OA
ENDBRANCH  28  30
ENDBRANCH  21  24
ENDBRANCH  19  21
ENDBRANCH  18  19
ENDBRANCH  17  18
ENDBRANCH   4  17
TORSDOF 10
ENDMDL
MODEL 7
REMARK VINA RESULT:      -7.1      3.756      6.266
REMARK  Name = 
REMARK  13 active torsions:
REMARK  status: ('A' for Active; 'I' for Inactive)
REMARK    1  A    between atoms: C_1  and  C_2
REMARK    2  A    between atoms: C_2  and  O_3
REMARK    3  A    between atoms: O_3  and  C_4
REMARK    4  A    between atoms: C_4  and  C_6
REMARK    5  A    between atoms: C_6  and  N_7
REMARK    6  A    between atoms: N_10  and  C_11
REMARK    7  A    between atoms: C_11  and  C_12
REMARK    8  A    between atoms: C_12  and  N_13
REMARK    9  A    between atoms: N_13  and  S_14
REMARK   10  A    between atoms: S_14  and  C_17
REMARK   11  A    between atoms: C_21  and  N_22
REMARK   12  A    between atoms: C_27  and  C_28
REMARK   13  A    between atoms: C_27  and  C_29
REMARK                            x       y       z     vdW  Elec       q    Type
REMARK                         _______ _______ _______ _____ _____    ______ ____
ROOT
ATOM      1  N   UNL     1       2.152   5.474  19.872  0.00  0.00    +0.000 N 
ATOM      2  C   UNL     1       2.117   6.849  19.911  0.00  0.00    +0.000 C 
ATOM      3  O   UNL     1       2.310   7.587  18.956  0.00  0.00    +0.000 OA
ATOM      4  N   UNL     1       1.762   7.306  21.161  0.00  0.00    +0.000 N 
ATOM      5  H   UNL     1       2.260   5.008  20.763  0.00  0.00    +0.000 HD
ATOM      6  H   UNL     1       1.745   6.652  21.928  0.00  0.00    +0.000 HD
ENDROOT
BRANCH   1   7
ATOM      7  C   UNL     1       2.602   4.672  18.735  0.00  0.00    +0.000 C 
ATOM      8  C   UNL     1       1.721   4.350  17.540  0.00  0.00    +0.000 C 
ATOM      9  C   UNL     1       1.958   3.273  18.563  0.00  0.00    +0.000 C 
ATOM     10  C   UNL     1       2.812   2.093  18.170  0.00  0.00    +0.000 C 
ATOM     11  C   UNL     1       0.779   2.888  19.427  0.00  0.00    +0.000 C 
BRANCH   7  12
ATOM     12  C   UNL     1       4.085   4.831  18.493  0.00  0.00    +0.000 C 
ATOM     13  O   UNL     1       4.887   4.777  19.418  0.00  0.00    +0.000 OA
BRANCH  12  14
ATOM     14  O   UNL     1       4.343   5.256  17.229  0.00  0.00    +0.000 OA
BRANCH  14  16
ATOM     15  C   UNL     1       5.553   5.116  15.166  0.00  0.00    +0.000 C 
ATOM     16  C   UNL     1       5.237   4.422  16.480  0.00  0.00    +0.000 C 
ENDBRANCH  14  16
ENDBRANCH  12  14
ENDBRANCH   7  12
ENDBRANCH   1   7
BRANCH   4  17
ATOM     17  C   UNL     1       1.506   8.710  21.453  0.00  0.00    +0.000 C 
BRANCH  17  18
ATOM     18  C   UNL     1       0.025   9.067  21.252  0.00  0.00    +0.000 C 
BRANCH  18  19
ATOM     19  N   UNL     1      -0.302  10.359  21.887  0.00  0.00    +0.000 NA
ATOM     20  H   UNL     1       0.100  10.521  22.814  0.00  0.00    +0.000 HD
BRANCH  19  21
ATOM     21  S   UNL     1      -0.109  11.752  20.952  0.00  0.00    +0.000 S 
ATOM     22  O   UNL     1       0.152  12.827  21.878  0.00  0.00    +0.000 OA
ATOM     23  O   UNL     1       0.793  11.443  19.863  0.00  0.00    +0.000 OA
BRANCH  21  24
ATOM     24  C   UNL     1      -1.730  12.031  20.279  0.00  0.00    +0.000 A 
ATOM     25  C   UNL     1      -2.692  12.708  21.039  0.00  0.00    +0.000 A 
ATOM     26  C   UNL     1      -3.997  12.840  20.556  0.00  0.00    +0.000 A 
ATOM     27  C   UNL     1      -4.341  12.297  19.317  0.00  0.00    +0.000 A 
ATOM     28  C   UNL     1      -3.372  11.619  18.562  0.00  0.00    +0.000 A 
ATOM     29  C   UNL     1      -2.061  11.476  19.037  0.00  0.00    +0.000 A 
BRANCH  28  30
ATOM     30  N   UNL     1      -3.742  11.045  17.261  0.00  0.00    +0.000 N 
ATOM     31  O   UNL     1      -4.589  11.645  16.586  0.00  0.00    +0.000 OA
ATOM     32  O   UNL     1      -3.175   9.998  16.913  0.00  0.00    +0.000 OA
ENDBRANCH  28  30
ENDBRANCH  21  24
ENDBRANCH  19  21
ENDBRANCH  18  19
ENDBRANCH  17  18
ENDBRANCH   4  17
TORSDOF 10
ENDMDL
MODEL 8
REMARK VINA RESULT:      -7.1      2.854      7.986
REMARK  Name = 
REMARK  13 active torsions:
REMARK  status: ('A' for Active; 'I' for Inactive)
REMARK    1  A    between atoms: C_1  and  C_2
REMARK    2  A    between atoms: C_2  and  O_3
REMARK    3  A    between atoms: O_3  and  C_4
REMARK    4  A    between atoms: C_4  and  C_6
REMARK    5  A    between atoms: C_6  and  N_7
REMARK    6  A    between atoms: N_10  and  C_11
REMARK    7  A    between atoms: C_11  and  C_12
REMARK    8  A    between atoms: C_12  and  N_13
REMARK    9  A    between atoms: N_13  and  S_14
REMARK   10  A    between atoms: S_14  and  C_17
REMARK   11  A    between atoms: C_21  and  N_22
REMARK   12  A    between atoms: C_27  and  C_28
REMARK   13  A    between atoms: C_27  and  C_29
REMARK                            x       y       z     vdW  Elec       q    Type
REMARK                         _______ _______ _______ _____ _____    ______ ____
ROOT
ATOM      1  N   UNL     1       1.117   9.729  18.023  0.00  0.00    +0.000 N 
ATOM      2  C   UNL     1       1.795   8.699  18.635  0.00  0.00    +0.000 C 
ATOM      3  O   UNL     1       1.750   8.435  19.827  0.00  0.00    +0.000 OA
ATOM      4  N   UNL     1       2.490   7.942  17.717  0.00  0.00    +0.000 N 
ATOM      5  H   UNL     1       1.461  10.006  17.112  0.00  0.00    +0.000 HD
ATOM      6  H   UNL     1       2.588   8.291  16.777  0.00  0.00    +0.000 HD
ENDROOT
BRANCH   1   7
ATOM      7  C   UNL     1       0.379  10.784  18.715  0.00  0.00    +0.000 C 
ATOM      8  C   UNL     1      -0.773  10.509  19.667  0.00  0.00    +0.000 C 
ATOM      9  C   UNL     1      -1.093  11.009  18.285  0.00  0.00    +0.000 C 
ATOM     10  C   UNL     1      -1.630  12.413  18.143  0.00  0.00    +0.000 C 
ATOM     11  C   UNL     1      -1.750  10.027  17.344  0.00  0.00    +0.000 C 
BRANCH   7  12
ATOM     12  C   UNL     1       1.253  11.983  18.996  0.00  0.00    +0.000 C 
ATOM     13  O   UNL     1       2.114  12.340  18.201  0.00  0.00    +0.000 OA
BRANCH  12  14
ATOM     14  O   UNL     1       1.111  12.418  20.275  0.00  0.00    +0.000 OA
BRANCH  14  16
ATOM     15  C   UNL     1       0.481  14.117  21.842  0.00  0.00    +0.000 C 
ATOM     16  C   UNL     1       0.927  13.833  20.418  0.00  0.00    +0.000 C 
ENDBRANCH  14  16
ENDBRANCH  12  14
ENDBRANCH   7  12
ENDBRANCH   1   7
BRANCH   4  17
ATOM     17  C   UNL     1       3.179   6.706  18.064  0.00  0.00    +0.000 C 
BRANCH  17  18
ATOM     18  C   UNL     1       2.190   5.611  18.493  0.00  0.00    +0.000 C 
BRANCH  18  19
ATOM     19  N   UNL     1       2.373   4.384  17.691  0.00  0.00    +0.000 NA
ATOM     20  H   UNL     1       2.529   4.520  16.689  0.00  0.00    +0.000 HD
BRANCH  19  21
ATOM     21  S   UNL     1       3.471   3.238  18.269  0.00  0.00    +0.000 S 
ATOM     22  O   UNL     1       3.440   3.339  19.708  0.00  0.00    +0.000 OA
ATOM     23  O   UNL     1       3.222   1.989  17.582  0.00  0.00    +0.000 OA
BRANCH  21  24
ATOM     24  C   UNL     1       5.047   3.867  17.740  0.00  0.00    +0.000 A 
ATOM     25  C   UNL     1       5.934   4.402  18.682  0.00  0.00    +0.000 A 
ATOM     26  C   UNL     1       7.130   4.989  18.260  0.00  0.00    +0.000 A 
ATOM     27  C   UNL     1       7.439   5.042  16.900  0.00  0.00    +0.000 A 
ATOM     28  C   UNL     1       6.545   4.505  15.962  0.00  0.00    +0.000 A 
ATOM     29  C   UNL     1       5.340   3.917  16.373  0.00  0.00    +0.000 A 
BRANCH  28  30
ATOM     30  N   UNL     1       6.874   4.569  14.532  0.00  0.00    +0.000 N 
ATOM     31  O   UNL     1       6.304   3.775  13.772  0.00  0.00    +0.000 OA
ATOM     32  O   UNL     1       7.698   5.423  14.170  0.00  0.00    +0.000 OA
ENDBRANCH  28  30
ENDBRANCH  21  24
ENDBRANCH  19  21
ENDBRANCH  18  19
ENDBRANCH  17  18
ENDBRANCH   4  17
TORSDOF 10
ENDMDL
MODEL 9
REMARK VINA RESULT:      -7.0      4.122      6.513
REMARK  Name = 
REMARK  13 active torsions:
REMARK  status: ('A' for Active; 'I' for Inactive)
REMARK    1  A    between atoms: C_1  and  C_2
REMARK    2  A    between atoms: C_2  and  O_3
REMARK    3  A    between atoms: O_3  and  C_4
REMARK    4  A    between atoms: C_4  and  C_6
REMARK    5  A    between atoms: C_6  and  N_7
REMARK    6  A    between atoms: N_10  and  C_11
REMARK    7  A    between atoms: C_11  and  C_12
REMARK    8  A    between atoms: C_12  and  N_13
REMARK    9  A    between atoms: N_13  and  S_14
REMARK   10  A    between atoms: S_14  and  C_17
REMARK   11  A    between atoms: C_21  and  N_22
REMARK   12  A    between atoms: C_27  and  C_28
REMARK   13  A    between atoms: C_27  and  C_29
REMARK                            x       y       z     vdW  Elec       q    Type
REMARK                         _______ _______ _______ _____ _____    ______ ____
ROOT
ATOM      1  N   UNL     1       2.202   6.014  20.231  0.00  0.00    +0.000 N 
ATOM      2  C   UNL     1       1.979   7.370  20.152  0.00  0.00    +0.000 C 
ATOM      3  O   UNL     1       1.922   8.017  19.117  0.00  0.00    +0.000 OA
ATOM      4  N   UNL     1       1.751   7.914  21.397  0.00  0.00    +0.000 N 
ATOM      5  H   UNL     1       2.506   5.667  21.131  0.00  0.00    +0.000 HD
ATOM      6  H   UNL     1       1.940   7.352  22.212  0.00  0.00    +0.000 HD
ENDROOT
BRANCH   1   7
ATOM      7  C   UNL     1       2.589   5.156  19.112  0.00  0.00    +0.000 C 
ATOM      8  C   UNL     1       1.587   4.518  18.165  0.00  0.00    +0.000 C 
ATOM      9  C   UNL     1       2.222   3.654  19.221  0.00  0.00    +0.000 C 
ATOM     10  C   UNL     1       3.210   2.603  18.780  0.00  0.00    +0.000 C 
ATOM     11  C   UNL     1       1.325   3.189  20.344  0.00  0.00    +0.000 C 
BRANCH   7  12
ATOM     12  C   UNL     1       3.938   5.542  18.554  0.00  0.00    +0.000 C 
ATOM     13  O   UNL     1       4.105   5.697  17.350  0.00  0.00    +0.000 OA
BRANCH  12  14
ATOM     14  O   UNL     1       4.913   5.456  19.496  0.00  0.00    +0.000 OA
BRANCH  14  16
ATOM     15  C   UNL     1       7.266   5.722  19.132  0.00  0.00    +0.000 C 
ATOM     16  C   UNL     1       6.094   4.756  19.083  0.00  0.00    +0.000 C 
ENDBRANCH  14  16
ENDBRANCH  12  14
ENDBRANCH   7  12
ENDBRANCH   1   7
BRANCH   4  17
ATOM     17  C   UNL     1       1.345   9.297  21.600  0.00  0.00    +0.000 C 
BRANCH  17  18
ATOM     18  C   UNL     1      -0.143   9.502  21.272  0.00  0.00    +0.000 C 
BRANCH  18  19
ATOM     19  N   UNL     1      -0.318  10.034  19.906  0.00  0.00    +0.000 NA
ATOM     20  H   UNL     1      -0.722   9.392  19.220  0.00  0.00    +0.000 HD
BRANCH  19  21
ATOM     21  S   UNL     1      -1.061  11.543  19.752  0.00  0.00    +0.000 S 
ATOM     22  O   UNL     1      -1.665  11.828  21.030  0.00  0.00    +0.000 OA
ATOM     23  O   UNL     1      -0.118  12.449  19.130  0.00  0.00    +0.000 OA
BRANCH  21  24
ATOM     24  C   UNL     1      -2.387  11.240  18.608  0.00  0.00    +0.000 A 
ATOM     25  C   UNL     1      -2.147  10.496  17.446  0.00  0.00    +0.000 A 
ATOM     26  C   UNL     1      -3.160  10.341  16.495  0.00  0.00    +0.000 A 
ATOM     27  C   UNL     1      -4.409  10.929  16.703  0.00  0.00    +0.000 A 
ATOM     28  C   UNL     1      -4.640  11.674  17.869  0.00  0.00    +0.000 A 
ATOM     29  C   UNL     1      -3.632  11.840  18.828  0.00  0.00    +0.000 A 
BRANCH  28  30
ATOM     30  N   UNL     1      -5.955  12.295  18.079  0.00  0.00    +0.000 N 
ATOM     31  O   UNL     1      -6.958  11.647  17.751  0.00  0.00    +0.000 OA
ATOM     32  O   UNL     1      -5.981  13.428  18.582  0.00  0.00    +0.000 OA
ENDBRANCH  28  30
ENDBRANCH  21  24
ENDBRANCH  19  21
ENDBRANCH  18  19
ENDBRANCH  17  18
ENDBRANCH   4  17
TORSDOF 10
ENDMDL
