MODEL 1
REMARK VINA RESULT:      -8.4      0.000      0.000
REMARK  Name = 
REMARK  4 active torsions:
REMARK  status: ('A' for Active; 'I' for Inactive)
REMARK    1  A    between atoms: C_2  and  C_3
REMARK    2  A    between atoms: C_8  and  N_9
REMARK    3  A    between atoms: C_11  and  C_12
REMARK    4  A    between atoms: N_16  and  C_17
REMARK                            x       y       z     vdW  Elec       q    Type
REMARK                         _______ _______ _______ _____ _____    ______ ____
ROOT
ATOM      1  N   UNL     1       4.420   5.076  18.630  0.00  0.00    +0.000 N 
ATOM      2  C   UNL     1       5.436   5.486  19.437  0.00  0.00    +0.000 A 
ATOM      3  C   UNL     1       6.491   5.808  18.594  0.00  0.00    +0.000 A 
ATOM      4  C   UNL     1       5.993   5.539  17.280  0.00  0.00    +0.000 A 
ATOM      5  N   UNL     1       6.745   5.642  16.151  0.00  0.00    +0.000 N 
ATOM      6  N   UNL     1       4.731   5.116  17.340  0.00  0.00    +0.000 NA
ATOM      7  H   UNL     1       7.691   6.002  16.262  0.00  0.00    +0.000 HD
ENDROOT
BRANCH   5   8
ATOM      8  C   UNL     1       6.522   5.045  14.885  0.00  0.00    +0.000 A 
ATOM      9  C   UNL     1       5.416   4.227  14.604  0.00  0.00    +0.000 A 
ATOM     10  C   UNL     1       5.312   3.523  13.401  0.00  0.00    +0.000 A 
ATOM     11  C   UNL     1       6.313   3.650  12.454  0.00  0.00    +0.000 A 
ATOM     12  F   UNL     1       6.233   2.957  11.310  0.00  0.00    +0.000 F 
ATOM     13  C   UNL     1       7.402   4.480  12.679  0.00  0.00    +0.000 A 
ATOM     14  C   UNL     1       7.506   5.176  13.890  0.00  0.00    +0.000 A 
ENDBRANCH   5   8
BRANCH   1  20
ATOM     15  C   UNL     1       3.278   3.265  19.886  0.00  0.00    +0.000 C 
ATOM     16  C   UNL     1       3.562   2.008  19.047  0.00  0.00    +0.000 C 
ATOM     17  C   UNL     1       2.611   1.838  17.865  0.00  0.00    +0.000 C 
ATOM     18  C   UNL     1       2.460   3.095  17.015  0.00  0.00    +0.000 C 
ATOM     19  C   UNL     1       2.171   4.348  17.841  0.00  0.00    +0.000 C 
ATOM     20  C   UNL     1       3.118   4.545  19.037  0.00  0.00    +0.000 C 
BRANCH  15  22
ATOM     21  N   UNL     1       1.107   2.879  21.330  0.00  0.00    +0.000 NA
ATOM     22  C   UNL     1       2.058   3.066  20.695  0.00  0.00    +0.000 C 
ENDBRANCH  15  22
ENDBRANCH   1  20
BRANCH   3  23
ATOM     23  C   UNL     1       7.814   6.265  18.963  0.00  0.00    +0.000 C 
ATOM     24  N   UNL     1       8.482   5.507  19.885  0.00  0.00    +0.000 N 
ATOM     25  O   UNL     1       8.341   7.263  18.472  0.00  0.00    +0.000 OA
ATOM     26  H   UNL     1       8.136   4.621  20.221  0.00  0.00    +0.000 HD
ATOM     27  H   UNL     1       9.425   5.778  20.118  0.00  0.00    +0.000 HD
ENDBRANCH   3  23
TORSDOF 4
ENDMDL
MODEL 2
REMARK VINA RESULT:      -8.2      4.679      7.645
REMARK  Name = 
REMARK  4 active torsions:
REMARK  status: ('A' for Active; 'I' for Inactive)
REMARK    1  A    between atoms: C_2  and  C_3
REMARK    2  A    between atoms: C_8  and  N_9
REMARK    3  A    between atoms: C_11  and  C_12
REMARK    4  A    between atoms: N_16  and  C_17
REMARK                            x       y       z     vdW  Elec       q    Type
REMARK                         _______ _______ _______ _____ _____    ______ ____
ROOT
ATOM      1  N   UNL     1       4.313   5.360  19.155  0.00  0.00    +0.000 N 
ATOM      2  C   UNL     1       3.884   4.198  19.718  0.00  0.00    +0.000 A 
ATOM      3  C   UNL     1       2.663   4.486  20.313  0.00  0.00    +0.000 A 
ATOM      4  C   UNL     1       2.457   5.877  20.051  0.00  0.00    +0.000 A 
ATOM      5  N   UNL     1       1.407   6.591  20.538  0.00  0.00    +0.000 N 
ATOM      6  N   UNL     1       3.466   6.368  19.332  0.00  0.00    +0.000 NA
ATOM      7  H   UNL     1       0.700   6.070  21.055  0.00  0.00    +0.000 HD
ENDROOT
BRANCH   5   8
ATOM      8  C   UNL     1       1.291   7.994  20.695  0.00  0.00    +0.000 A 
ATOM      9  C   UNL     1       1.089   8.615  21.939  0.00  0.00    +0.000 A 
ATOM     10  C   UNL     1       0.814   9.982  22.040  0.00  0.00    +0.000 A 
ATOM     11  C   UNL     1       0.759  10.748  20.889  0.00  0.00    +0.000 A 
ATOM     12  F   UNL     1       0.469  12.053  20.977  0.00  0.00    +0.000 F 
ATOM     13  C   UNL     1       0.992  10.178  19.645  0.00  0.00    +0.000 A 
ATOM     14  C   UNL     1       1.258   8.807  19.549  0.00  0.00    +0.000 A 
ENDBRANCH   5   8
BRANCH   1  20
ATOM     15  C   UNL     1       5.503   6.832  17.550  0.00  0.00    +0.000 C 
ATOM     16  C   UNL     1       4.821   6.528  16.206  0.00  0.00    +0.000 C 
ATOM     17  C   UNL     1       5.364   5.278  15.517  0.00  0.00    +0.000 C 
ATOM     18  C   UNL     1       5.439   4.060  16.433  0.00  0.00    +0.000 C 
ATOM     19  C   UNL     1       6.121   4.353  17.768  0.00  0.00    +0.000 C 
ATOM     20  C   UNL     1       5.590   5.606  18.484  0.00  0.00    +0.000 C 
BRANCH  15  22
ATOM     21  N   UNL     1       7.917   7.798  17.119  0.00  0.00    +0.000 NA
ATOM     22  C   UNL     1       6.863   7.361  17.318  0.00  0.00    +0.000 C 
ENDBRANCH  15  22
ENDBRANCH   1  20
BRANCH   3  23
ATOM     23  C   UNL     1       1.813   3.593  21.073  0.00  0.00    +0.000 C 
ATOM     24  N   UNL     1       0.654   3.197  20.467  0.00  0.00    +0.000 N 
ATOM     25  O   UNL     1       2.106   3.183  22.196  0.00  0.00    +0.000 OA
ATOM     26  H   UNL     1       0.435   3.414  19.506  0.00  0.00    +0.000 HD
ATOM     27  H   UNL     1       0.072   2.534  20.958  0.00  0.00    +0.000 HD
ENDBRANCH   3  23
TORSDOF 4
ENDMDL
MODEL 3
REMARK VINA RESULT:      -8.1      0.233      1.001
REMARK  Name = 
REMARK  4 active torsions:
REMARK  status: ('A' for Active; 'I' for Inactive)
REMARK    1  A    between atoms: C_2  and  C_3
REMARK    2  A    between atoms: C_8  and  N_9
REMARK    3  A    between atoms: C_11  and  C_12
REMARK    4  A    between atoms: N_16  and  C_17
REMARK                            x       y       z     vdW  Elec       q    Type
REMARK                         _______ _______ _______ _____ _____    ______ ____
ROOT
ATOM      1  N   UNL     1       4.532   5.024  18.654  0.00  0.00    +0.000 N 
ATOM      2  C   UNL     1       5.509   5.449  19.501  0.00  0.00    +0.000 A 
ATOM      3  C   UNL     1       6.611   5.733  18.705  0.00  0.00    +0.000 A 
ATOM      4  C   UNL     1       6.181   5.428  17.376  0.00  0.00    +0.000 A 
ATOM      5  N   UNL     1       6.992   5.486  16.286  0.00  0.00    +0.000 N 
ATOM      6  N   UNL     1       4.913   5.020  17.381  0.00  0.00    +0.000 NA
ATOM      7  H   UNL     1       7.936   5.840  16.436  0.00  0.00    +0.000 HD
ENDROOT
BRANCH   5   8
ATOM      8  C   UNL     1       6.829   4.852  15.029  0.00  0.00    +0.000 A 
ATOM      9  C   UNL     1       7.601   5.173  13.900  0.00  0.00    +0.000 A 
ATOM     10  C   UNL     1       7.305   4.649  12.638  0.00  0.00    +0.000 A 
ATOM     11  C   UNL     1       6.239   3.778  12.499  0.00  0.00    +0.000 A 
ATOM     12  F   UNL     1       5.934   3.294  11.288  0.00  0.00    +0.000 F 
ATOM     13  C   UNL     1       5.478   3.407  13.599  0.00  0.00    +0.000 A 
ATOM     14  C   UNL     1       5.773   3.941  14.859  0.00  0.00    +0.000 A 
ENDBRANCH   5   8
BRANCH   1  20
ATOM     15  C   UNL     1       3.303   3.230  19.850  0.00  0.00    +0.000 C 
ATOM     16  C   UNL     1       3.590   1.973  19.011  0.00  0.00    +0.000 C 
ATOM     17  C   UNL     1       2.680   1.834  17.792  0.00  0.00    +0.000 C 
ATOM     18  C   UNL     1       2.591   3.102  16.948  0.00  0.00    +0.000 C 
ATOM     19  C   UNL     1       2.299   4.354  17.775  0.00  0.00    +0.000 C 
ATOM     20  C   UNL     1       3.205   4.519  19.007  0.00  0.00    +0.000 C 
BRANCH  15  22
ATOM     21  N   UNL     1       1.052   2.930  21.186  0.00  0.00    +0.000 NA
ATOM     22  C   UNL     1       2.050   3.053  20.611  0.00  0.00    +0.000 C 
ENDBRANCH  15  22
ENDBRANCH   1  20
BRANCH   3  23
ATOM     23  C   UNL     1       7.919   6.186  19.130  0.00  0.00    +0.000 C 
ATOM     24  N   UNL     1       8.551   5.420  20.069  0.00  0.00    +0.000 N 
ATOM     25  O   UNL     1       8.463   7.190  18.670  0.00  0.00    +0.000 OA
ATOM     26  H   UNL     1       8.194   4.530  20.382  0.00  0.00    +0.000 HD
ATOM     27  H   UNL     1       9.485   5.689  20.341  0.00  0.00    +0.000 HD
ENDBRANCH   3  23
TORSDOF 4
ENDMDL
MODEL 4
REMARK VINA RESULT:      -8.1      1.119      1.834
REMARK  Name = 
REMARK  4 active torsions:
REMARK  status: ('A' for Active; 'I' for Inactive)
REMARK    1  A    between atoms: C_2  and  C_3
REMARK    2  A    between atoms: C_8  and  N_9
REMARK    3  A    between atoms: C_11  and  C_12
REMARK    4  A    between atoms: N_16  and  C_17
REMARK                            x       y       z     vdW  Elec       q    Type
REMARK                         _______ _______ _______ _____ _____    ______ ____
ROOT
ATOM      1  N   UNL     1       4.647   3.963  18.233  0.00  0.00    +0.000 N 
ATOM      2  C   UNL     1       5.477   4.531  19.150  0.00  0.00    +0.000 A 
ATOM      3  C   UNL     1       6.419   5.248  18.425  0.00  0.00    +0.000 A 
ATOM      4  C   UNL     1       6.060   5.030  17.058  0.00  0.00    +0.000 A 
ATOM      5  N   UNL     1       6.784   5.491  16.003  0.00  0.00    +0.000 N 
ATOM      6  N   UNL     1       4.973   4.264  16.981  0.00  0.00    +0.000 NA
ATOM      7  H   UNL     1       7.583   6.085  16.220  0.00  0.00    +0.000 HD
ENDROOT
BRANCH   5   8
ATOM      8  C   UNL     1       6.780   5.033  14.662  0.00  0.00    +0.000 A 
ATOM      9  C   UNL     1       5.950   3.996  14.205  0.00  0.00    +0.000 A 
ATOM     10  C   UNL     1       6.088   3.458  12.922  0.00  0.00    +0.000 A 
ATOM     11  C   UNL     1       7.053   3.972  12.073  0.00  0.00    +0.000 A 
ATOM     12  F   UNL     1       7.208   3.443  10.852  0.00  0.00    +0.000 F 
ATOM     13  C   UNL     1       7.865   5.023  12.475  0.00  0.00    +0.000 A 
ATOM     14  C   UNL     1       7.729   5.552  13.764  0.00  0.00    +0.000 A 
ENDBRANCH   5   8
BRANCH   1  20
ATOM     15  C   UNL     1       2.262   3.793  18.898  0.00  0.00    +0.000 C 
ATOM     16  C   UNL     1       2.264   4.237  20.370  0.00  0.00    +0.000 C 
ATOM     17  C   UNL     1       2.653   3.123  21.341  0.00  0.00    +0.000 C 
ATOM     18  C   UNL     1       3.925   2.382  20.944  0.00  0.00    +0.000 C 
ATOM     19  C   UNL     1       3.927   1.932  19.483  0.00  0.00    +0.000 C 
ATOM     20  C   UNL     1       3.543   3.037  18.484  0.00  0.00    +0.000 C 
BRANCH  15  22
ATOM     21  N   UNL     1       0.183   2.242  18.433  0.00  0.00    +0.000 NA
ATOM     22  C   UNL     1       1.088   2.938  18.631  0.00  0.00    +0.000 C 
ENDBRANCH  15  22
ENDBRANCH   1  20
BRANCH   3  23
ATOM     23  C   UNL     1       7.544   6.005  18.935  0.00  0.00    +0.000 C 
ATOM     24  N   UNL     1       8.151   5.509  20.055  0.00  0.00    +0.000 N 
ATOM     25  O   UNL     1       7.963   7.028  18.395  0.00  0.00    +0.000 OA
ATOM     26  H   UNL     1       7.914   4.614  20.457  0.00  0.00    +0.000 HD
ATOM     27  H   UNL     1       8.968   5.992  20.397  0.00  0.00    +0.000 HD
ENDBRANCH   3  23
TORSDOF 4
ENDMDL
MODEL 5
REMARK VINA RESULT:      -7.8      1.131      2.054
REMARK  Name = 
REMARK  4 active torsions:
REMARK  status: ('A' for Active; 'I' for Inactive)
REMARK    1  A    between atoms: C_2  and  C_3
REMARK    2  A    between atoms: C_8  and  N_9
REMARK    3  A    between atoms: C_11  and  C_12
REMARK    4  A    between atoms: N_16  and  C_17
REMARK                            x       y       z     vdW  Elec       q    Type
REMARK                         _______ _______ _______ _____ _____    ______ ____
ROOT
ATOM      1  N   UNL     1       4.757   3.986  18.235  0.00  0.00    +0.000 N 
ATOM      2  C   UNL     1       5.548   4.560  19.182  0.00  0.00    +0.000 A 
ATOM      3  C   UNL     1       6.537   5.248  18.492  0.00  0.00    +0.000 A 
ATOM      4  C   UNL     1       6.245   5.007  17.113  0.00  0.00    +0.000 A 
ATOM      5  N   UNL     1       7.029   5.435  16.088  0.00  0.00    +0.000 N 
ATOM      6  N   UNL     1       5.151   4.256  16.995  0.00  0.00    +0.000 NA
ATOM      7  H   UNL     1       7.825   6.022  16.334  0.00  0.00    +0.000 HD
ENDROOT
BRANCH   5   8
ATOM      8  C   UNL     1       7.087   4.950  14.758  0.00  0.00    +0.000 A 
ATOM      9  C   UNL     1       7.885   5.533  13.759  0.00  0.00    +0.000 A 
ATOM     10  C   UNL     1       7.793   5.134  12.423  0.00  0.00    +0.000 A 
ATOM     11  C   UNL     1       6.911   4.126  12.076  0.00  0.00    +0.000 A 
ATOM     12  F   UNL     1       6.799   3.758  10.793  0.00  0.00    +0.000 F 
ATOM     13  C   UNL     1       6.135   3.499  13.041  0.00  0.00    +0.000 A 
ATOM     14  C   UNL     1       6.223   3.908  14.377  0.00  0.00    +0.000 A 
ENDBRANCH   5   8
BRANCH   1  20
ATOM     15  C   UNL     1       2.389   3.845  18.965  0.00  0.00    +0.000 C 
ATOM     16  C   UNL     1       2.454   4.165  20.467  0.00  0.00    +0.000 C 
ATOM     17  C   UNL     1       2.830   2.962  21.330  0.00  0.00    +0.000 C 
ATOM     18  C   UNL     1       4.060   2.212  20.830  0.00  0.00    +0.000 C 
ATOM     19  C   UNL     1       4.000   1.884  19.339  0.00  0.00    +0.000 C 
ATOM     20  C   UNL     1       3.627   3.082  18.447  0.00  0.00    +0.000 C 
BRANCH  15  22
ATOM     21  N   UNL     1       0.233   2.437  18.407  0.00  0.00    +0.000 NA
ATOM     22  C   UNL     1       1.176   3.058  18.669  0.00  0.00    +0.000 C 
ENDBRANCH  15  22
ENDBRANCH   1  20
BRANCH   3  23
ATOM     23  C   UNL     1       7.646   5.998  19.044  0.00  0.00    +0.000 C 
ATOM     24  N   UNL     1       8.227   5.482  20.170  0.00  0.00    +0.000 N 
ATOM     25  O   UNL     1       8.076   7.033  18.535  0.00  0.00    +0.000 OA
ATOM     26  H   UNL     1       7.983   4.579  20.548  0.00  0.00    +0.000 HD
ATOM     27  H   UNL     1       9.033   5.961  20.541  0.00  0.00    +0.000 HD
ENDBRANCH   3  23
TORSDOF 4
ENDMDL
MODEL 6
REMARK VINA RESULT:      -7.8      4.381      7.222
REMARK  Name = 
REMARK  4 active torsions:
REMARK  status: ('A' for Active; 'I' for Inactive)
REMARK    1  A    between atoms: C_2  and  C_3
REMARK    2  A    between atoms: C_8  and  N_9
REMARK    3  A    between atoms: C_11  and  C_12
REMARK    4  A    between atoms: N_16  and  C_17
REMARK                            x       y       z     vdW  Elec       q    Type
REMARK                         _______ _______ _______ _____ _____    ______ ____
ROOT
ATOM      1  N   UNL     1       3.858   4.996  17.818  0.00  0.00    +0.000 N 
ATOM      2  C   UNL     1       3.919   3.929  18.660  0.00  0.00    +0.000 A 
ATOM      3  C   UNL     1       3.117   4.250  19.747  0.00  0.00    +0.000 A 
ATOM      4  C   UNL     1       2.623   5.559  19.452  0.00  0.00    +0.000 A 
ATOM      5  N   UNL     1       1.857   6.289  20.307  0.00  0.00    +0.000 N 
ATOM      6  N   UNL     1       3.076   5.971  18.269  0.00  0.00    +0.000 NA
ATOM      7  H   UNL     1       1.570   5.829  21.170  0.00  0.00    +0.000 HD
ENDROOT
BRANCH   5   8
ATOM      8  C   UNL     1       1.643   7.689  20.325  0.00  0.00    +0.000 A 
ATOM      9  C   UNL     1       1.262   8.395  21.478  0.00  0.00    +0.000 A 
ATOM     10  C   UNL     1       0.900   9.744  21.425  0.00  0.00    +0.000 A 
ATOM     11  C   UNL     1       0.936  10.408  20.211  0.00  0.00    +0.000 A 
ATOM     12  F   UNL     1       0.564  11.693  20.150  0.00  0.00    +0.000 F 
ATOM     13  C   UNL     1       1.346   9.754  19.057  0.00  0.00    +0.000 A 
ATOM     14  C   UNL     1       1.699   8.401  19.114  0.00  0.00    +0.000 A 
ENDBRANCH   5   8
BRANCH   1  20
ATOM     15  C   UNL     1       5.802   4.228  16.480  0.00  0.00    +0.000 C 
ATOM     16  C   UNL     1       7.014   4.686  17.308  0.00  0.00    +0.000 C 
ATOM     17  C   UNL     1       7.389   6.149  17.080  0.00  0.00    +0.000 C 
ATOM     18  C   UNL     1       6.206   7.106  17.182  0.00  0.00    +0.000 C 
ATOM     19  C   UNL     1       5.000   6.661  16.357  0.00  0.00    +0.000 C 
ATOM     20  C   UNL     1       4.599   5.191  16.571  0.00  0.00    +0.000 C 
BRANCH  15  22
ATOM     21  N   UNL     1       6.463   3.940  13.946  0.00  0.00    +0.000 NA
ATOM     22  C   UNL     1       6.189   4.069  15.064  0.00  0.00    +0.000 C 
ENDBRANCH  15  22
ENDBRANCH   1  20
BRANCH   3  23
ATOM     23  C   UNL     1       2.875   3.459  20.936  0.00  0.00    +0.000 C 
ATOM     24  N   UNL     1       3.581   2.293  21.042  0.00  0.00    +0.000 N 
ATOM     25  O   UNL     1       2.099   3.806  21.825  0.00  0.00    +0.000 OA
ATOM     26  H   UNL     1       4.310   2.032  20.396  0.00  0.00    +0.000 HD
ATOM     27  H   UNL     1       3.466   1.753  21.886  0.00  0.00    +0.000 HD
ENDBRANCH   3  23
TORSDOF 4
ENDMDL
MODEL 7
REMARK VINA RESULT:      -7.7      1.037      1.451
REMARK  Name = 
REMARK  4 active torsions:
REMARK  status: ('A' for Active; 'I' for Inactive)
REMARK    1  A    between atoms: C_2  and  C_3
REMARK    2  A    between atoms: C_8  and  N_9
REMARK    3  A    between atoms: C_11  and  C_12
REMARK    4  A    between atoms: N_16  and  C_17
REMARK                            x       y       z     vdW  Elec       q    Type
REMARK                         _______ _______ _______ _____ _____    ______ ____
ROOT
ATOM      1  N   UNL     1       4.376   5.209  18.041  0.00  0.00    +0.000 N 
ATOM      2  C   UNL     1       5.292   5.941  18.732  0.00  0.00    +0.000 A 
ATOM      3  C   UNL     1       6.287   6.271  17.821  0.00  0.00    +0.000 A 
ATOM      4  C   UNL     1       5.864   5.667  16.595  0.00  0.00    +0.000 A 
ATOM      5  N   UNL     1       6.602   5.676  15.453  0.00  0.00    +0.000 N 
ATOM      6  N   UNL     1       4.695   5.050  16.762  0.00  0.00    +0.000 NA
ATOM      7  H   UNL     1       7.469   6.211  15.473  0.00  0.00    +0.000 HD
ENDROOT
BRANCH   5   8
ATOM      8  C   UNL     1       6.506   4.814  14.333  0.00  0.00    +0.000 A 
ATOM      9  C   UNL     1       7.447   4.798  13.290  0.00  0.00    +0.000 A 
ATOM     10  C   UNL     1       7.236   4.057  12.124  0.00  0.00    +0.000 A 
ATOM     11  C   UNL     1       6.082   3.303  12.001  0.00  0.00    +0.000 A 
ATOM     12  F   UNL     1       5.862   2.612  10.874  0.00  0.00    +0.000 F 
ATOM     13  C   UNL     1       5.148   3.262  13.026  0.00  0.00    +0.000 A 
ATOM     14  C   UNL     1       5.360   4.013  14.188  0.00  0.00    +0.000 A 
ENDBRANCH   5   8
BRANCH   1  20
ATOM     15  C   UNL     1       3.498   3.786  19.875  0.00  0.00    +0.000 C 
ATOM     16  C   UNL     1       4.180   2.429  19.639  0.00  0.00    +0.000 C 
ATOM     17  C   UNL     1       3.480   1.570  18.588  0.00  0.00    +0.000 C 
ATOM     18  C   UNL     1       3.178   2.316  17.291  0.00  0.00    +0.000 C 
ATOM     19  C   UNL     1       2.493   3.663  17.518  0.00  0.00    +0.000 C 
ATOM     20  C   UNL     1       3.182   4.549  18.571  0.00  0.00    +0.000 C 
BRANCH  15  22
ATOM     21  N   UNL     1       1.280   3.422  21.252  0.00  0.00    +0.000 NA
ATOM     22  C   UNL     1       2.248   3.596  20.639  0.00  0.00    +0.000 C 
ENDBRANCH  15  22
ENDBRANCH   1  20
BRANCH   3  23
ATOM     23  C   UNL     1       7.504   7.015  18.067  0.00  0.00    +0.000 C 
ATOM     24  N   UNL     1       7.677   8.156  17.332  0.00  0.00    +0.000 N 
ATOM     25  O   UNL     1       8.343   6.673  18.900  0.00  0.00    +0.000 OA
ATOM     26  H   UNL     1       6.963   8.532  16.728  0.00  0.00    +0.000 HD
ATOM     27  H   UNL     1       8.494   8.716  17.524  0.00  0.00    +0.000 HD
ENDBRANCH   3  23
TORSDOF 4
ENDMDL
MODEL 8
REMARK VINA RESULT:      -7.7      4.563      6.039
REMARK  Name = 
REMARK  4 active torsions:
REMARK  status: ('A' for Active; 'I' for Inactive)
REMARK    1  A    between atoms: C_2  and  C_3
REMARK    2  A    between atoms: C_8  and  N_9
REMARK    3  A    between atoms: C_11  and  C_12
REMARK    4  A    between atoms: N_16  and  C_17
REMARK                            x       y       z     vdW  Elec       q    Type
REMARK                         _______ _______ _______ _____ _____    ______ ____
ROOT
ATOM      1  N   UNL     1       2.826   5.389  18.665  0.00  0.00    +0.000 N 
ATOM      2  C   UNL     1       3.901   5.258  17.841  0.00  0.00    +0.000 A 
ATOM      3  C   UNL     1       4.179   6.532  17.365  0.00  0.00    +0.000 A 
ATOM      4  C   UNL     1       3.186   7.364  17.969  0.00  0.00    +0.000 A 
ATOM      5  N   UNL     1       3.043   8.690  17.700  0.00  0.00    +0.000 N 
ATOM      6  N   UNL     1       2.397   6.642  18.764  0.00  0.00    +0.000 NA
ATOM      7  H   UNL     1       3.740   9.110  17.086  0.00  0.00    +0.000 HD
ENDROOT
BRANCH   5   8
ATOM      8  C   UNL     1       1.908   9.514  17.899  0.00  0.00    +0.000 A 
ATOM      9  C   UNL     1       1.965  10.759  18.546  0.00  0.00    +0.000 A 
ATOM     10  C   UNL     1       0.806  11.469  18.872  0.00  0.00    +0.000 A 
ATOM     11  C   UNL     1      -0.429  10.943  18.532  0.00  0.00    +0.000 A 
ATOM     12  F   UNL     1      -1.544  11.606  18.866  0.00  0.00    +0.000 F 
ATOM     13  C   UNL     1      -0.523   9.734  17.857  0.00  0.00    +0.000 A 
ATOM     14  C   UNL     1       0.640   9.023  17.541  0.00  0.00    +0.000 A 
ENDBRANCH   5   8
BRANCH   1  20
ATOM     15  C   UNL     1       2.988   3.587  20.364  0.00  0.00    +0.000 C 
ATOM     16  C   UNL     1       3.933   2.562  19.715  0.00  0.00    +0.000 C 
ATOM     17  C   UNL     1       3.232   1.624  18.734  0.00  0.00    +0.000 C 
ATOM     18  C   UNL     1       2.355   2.348  17.717  0.00  0.00    +0.000 C 
ATOM     19  C   UNL     1       1.408   3.364  18.356  0.00  0.00    +0.000 C 
ATOM     20  C   UNL     1       2.091   4.323  19.346  0.00  0.00    +0.000 C 
BRANCH  15  22
ATOM     21  N   UNL     1       1.460   2.427  22.170  0.00  0.00    +0.000 NA
ATOM     22  C   UNL     1       2.135   2.921  21.369  0.00  0.00    +0.000 C 
ENDBRANCH  15  22
ENDBRANCH   1  20
BRANCH   3  23
ATOM     23  C   UNL     1       5.210   6.924  16.427  0.00  0.00    +0.000 C 
ATOM     24  N   UNL     1       6.426   7.249  16.962  0.00  0.00    +0.000 N 
ATOM     25  O   UNL     1       5.034   6.950  15.209  0.00  0.00    +0.000 OA
ATOM     26  H   UNL     1       6.645   7.126  17.939  0.00  0.00    +0.000 HD
ATOM     27  H   UNL     1       7.173   7.475  16.322  0.00  0.00    +0.000 HD
ENDBRANCH   3  23
TORSDOF 4
ENDMDL
MODEL 9
REMARK VINA RESULT:      -7.6      4.615      6.028
REMARK  Name = 
REMARK  4 active torsions:
REMARK  status: ('A' for Active; 'I' for Inactive)
REMARK    1  A    between atoms: C_2  and  C_3
REMARK    2  A    between atoms: C_8  and  N_9
REMARK    3  A    between atoms: C_11  and  C_12
REMARK    4  A    between atoms: N_16  and  C_17
REMARK                            x       y       z     vdW  Elec       q    Type
REMARK                         _______ _______ _______ _____ _____    ______ ____
ROOT
ATOM      1  N   UNL     1       2.802   5.352  18.681  0.00  0.00    +0.000 N 
ATOM      2  C   UNL     1       3.854   5.252  17.822  0.00  0.00    +0.000 A 
ATOM      3  C   UNL     1       4.112   6.541  17.377  0.00  0.00    +0.000 A 
ATOM      4  C   UNL     1       3.132   7.350  18.035  0.00  0.00    +0.000 A 
ATOM      5  N   UNL     1       2.976   8.682  17.811  0.00  0.00    +0.000 N 
ATOM      6  N   UNL     1       2.370   6.599  18.830  0.00  0.00    +0.000 NA
ATOM      7  H   UNL     1       3.653   9.124  17.190  0.00  0.00    +0.000 HD
ENDROOT
BRANCH   5   8
ATOM      8  C   UNL     1       1.844   9.494  18.068  0.00  0.00    +0.000 A 
ATOM      9  C   UNL     1       0.530   9.103  17.758  0.00  0.00    +0.000 A 
ATOM     10  C   UNL     1      -0.544   9.990  17.871  0.00  0.00    +0.000 A 
ATOM     11  C   UNL     1      -0.313  11.279  18.318  0.00  0.00    +0.000 A 
ATOM     12  F   UNL     1      -1.334  12.142  18.403  0.00  0.00    +0.000 F 
ATOM     13  C   UNL     1       0.965  11.690  18.671  0.00  0.00    +0.000 A 
ATOM     14  C   UNL     1       2.039  10.800  18.548  0.00  0.00    +0.000 A 
ENDBRANCH   5   8
BRANCH   1  20
ATOM     15  C   UNL     1       3.000   3.549  20.374  0.00  0.00    +0.000 C 
ATOM     16  C   UNL     1       3.981   2.555  19.731  0.00  0.00    +0.000 C 
ATOM     17  C   UNL     1       3.319   1.601  18.739  0.00  0.00    +0.000 C 
ATOM     18  C   UNL     1       2.431   2.302  17.716  0.00  0.00    +0.000 C 
ATOM     19  C   UNL     1       1.448   3.287  18.349  0.00  0.00    +0.000 C 
ATOM     20  C   UNL     1       2.092   4.262  19.350  0.00  0.00    +0.000 C 
BRANCH  15  22
ATOM     21  N   UNL     1       1.507   2.326  22.169  0.00  0.00    +0.000 NA
ATOM     22  C   UNL     1       2.157   2.854  21.367  0.00  0.00    +0.000 C 
ENDBRANCH  15  22
ENDBRANCH   1  20
BRANCH   3  23
ATOM     23  C   UNL     1       5.113   6.967  16.422  0.00  0.00    +0.000 C 
ATOM     24  N   UNL     1       6.334   7.309  16.934  0.00  0.00    +0.000 N 
ATOM     25  O   UNL     1       4.909   7.007  15.209  0.00  0.00    +0.000 OA
ATOM     26  H   UNL     1       6.578   7.178  17.904  0.00  0.00    +0.000 HD
ATOM     27  H   UNL     1       7.061   7.559  16.282  0.00  0.00    +0.000 HD
ENDBRANCH   3  23
TORSDOF 4
ENDMDL
