MODEL 1
REMARK VINA RESULT:      -9.1      0.000      0.000
REMARK  Name = 
REMARK  5 active torsions:
REMARK  status: ('A' for Active; 'I' for Inactive)
REMARK    1  A    between atoms: C_1  and  C_2
REMARK    2  A    between atoms: C_5  and  C_6
REMARK    3  A    between atoms: C_10  and  C_11
REMARK    4  A    between atoms: C_16  and  N_17
REMARK    5  A    between atoms: C_18  and  C_20
REMARK                            x       y       z     vdW  Elec       q    Type
REMARK                         _______ _______ _______ _____ _____    ______ ____
ROOT
ATOM      1  C   UNL     1       2.648   7.129  18.365  0.00  0.00    +0.000 A 
ATOM      2  C   UNL     1       2.216   8.153  17.506  0.00  0.00    +0.000 A 
ATOM      3  C   UNL     1       1.538   9.287  17.970  0.00  0.00    +0.000 A 
ATOM      4  C   UNL     1       1.179   9.399  19.317  0.00  0.00    +0.000 A 
ATOM      5  C   UNL     1       0.476  10.507  19.810  0.00  0.00    +0.000 A 
ATOM      6  C   UNL     1       0.099  10.534  21.151  0.00  0.00    +0.000 A 
ATOM      7  N   UNL     1       0.391   9.531  21.987  0.00  0.00    +0.000 NA
ATOM      8  C   UNL     1       1.088   8.475  21.507  0.00  0.00    +0.000 A 
ATOM      9  C   UNL     1       1.519   8.356  20.189  0.00  0.00    +0.000 A 
ATOM     10  C   UNL     1       2.268   7.252  19.717  0.00  0.00    +0.000 A 
ENDROOT
BRANCH   1  17
ATOM     11  C   UNL     1       1.462   4.302  17.843  0.00  0.00    +0.000 C 
ATOM     12  C   UNL     1       2.915   4.663  17.652  0.00  0.00    +0.000 A 
ATOM     13  C   UNL     1       3.755   3.623  17.205  0.00  0.00    +0.000 A 
ATOM     14  C   UNL     1       5.106   3.838  16.936  0.00  0.00    +0.000 A 
ATOM     15  C   UNL     1       5.653   5.102  17.127  0.00  0.00    +0.000 A 
ATOM     16  C   UNL     1       4.829   6.134  17.612  0.00  0.00    +0.000 A 
ATOM     17  C   UNL     1       3.448   5.958  17.887  0.00  0.00    +0.000 A 
BRANCH  15  18
ATOM     18  C   UNL     1       7.080   5.421  16.825  0.00  0.00    +0.000 C 
ATOM     19  N   UNL     1       7.469   6.731  16.785  0.00  0.00    +0.000 N 
ATOM     20  O   UNL     1       7.903   4.536  16.622  0.00  0.00    +0.000 OA
ATOM     21  H   UNL     1       6.872   7.526  16.942  0.00  0.00    +0.000 HD
ATOM     22  H   UNL     1       8.445   6.908  16.585  0.00  0.00    +0.000 HD
ENDBRANCH  15  18
ENDBRANCH   1  17
BRANCH   6  23
ATOM     23  N   UNL     1      -0.606  11.659  21.599  0.00  0.00    +0.000 N 
ATOM     24  C   UNL     1      -0.051  12.905  21.804  0.00  0.00    +0.000 C 
ATOM     25  O   UNL     1       1.107  13.247  21.642  0.00  0.00    +0.000 OA
ATOM     26  H   UNL     1      -1.591  11.548  21.768  0.00  0.00    +0.000 HD
BRANCH  24  27
ATOM     27  C   UNL     1      -1.055  13.912  22.268  0.00  0.00    +0.000 C 
ATOM     28  C   UNL     1      -1.305  14.117  23.743  0.00  0.00    +0.000 C 
ATOM     29  C   UNL     1      -0.569  15.164  22.958  0.00  0.00    +0.000 C 
ENDBRANCH  24  27
ENDBRANCH   6  23
TORSDOF 4
ENDMDL
MODEL 2
REMARK VINA RESULT:      -9.0      1.146      1.281
REMARK  Name = 
REMARK  5 active torsions:
REMARK  status: ('A' for Active; 'I' for Inactive)
REMARK    1  A    between atoms: C_1  and  C_2
REMARK    2  A    between atoms: C_5  and  C_6
REMARK    3  A    between atoms: C_10  and  C_11
REMARK    4  A    between atoms: C_16  and  N_17
REMARK    5  A    between atoms: C_18  and  C_20
REMARK                            x       y       z     vdW  Elec       q    Type
REMARK                         _______ _______ _______ _____ _____    ______ ____
ROOT
ATOM      1  C   UNL     1       2.678   7.203  18.315  0.00  0.00    +0.000 A 
ATOM      2  C   UNL     1       2.246   8.263  17.501  0.00  0.00    +0.000 A 
ATOM      3  C   UNL     1       1.606   9.395  18.020  0.00  0.00    +0.000 A 
ATOM      4  C   UNL     1       1.288   9.473  19.378  0.00  0.00    +0.000 A 
ATOM      5  C   UNL     1       0.623  10.580  19.926  0.00  0.00    +0.000 A 
ATOM      6  C   UNL     1       0.285  10.572  21.277  0.00  0.00    +0.000 A 
ATOM      7  N   UNL     1       0.578   9.537  22.073  0.00  0.00    +0.000 NA
ATOM      8  C   UNL     1       1.238   8.482  21.541  0.00  0.00    +0.000 A 
ATOM      9  C   UNL     1       1.630   8.396  20.208  0.00  0.00    +0.000 A 
ATOM     10  C   UNL     1       2.340   7.292  19.680  0.00  0.00    +0.000 A 
ENDROOT
BRANCH   1  17
ATOM     11  C   UNL     1       1.490   4.346  18.005  0.00  0.00    +0.000 C 
ATOM     12  C   UNL     1       2.906   4.723  17.639  0.00  0.00    +0.000 A 
ATOM     13  C   UNL     1       3.706   3.683  17.125  0.00  0.00    +0.000 A 
ATOM     14  C   UNL     1       5.014   3.910  16.698  0.00  0.00    +0.000 A 
ATOM     15  C   UNL     1       5.557   5.187  16.792  0.00  0.00    +0.000 A 
ATOM     16  C   UNL     1       4.776   6.220  17.342  0.00  0.00    +0.000 A 
ATOM     17  C   UNL     1       3.439   6.031  17.778  0.00  0.00    +0.000 A 
BRANCH  15  18
ATOM     18  C   UNL     1       6.935   5.518  16.320  0.00  0.00    +0.000 C 
ATOM     19  N   UNL     1       7.491   6.710  16.692  0.00  0.00    +0.000 N 
ATOM     20  O   UNL     1       7.572   4.742  15.617  0.00  0.00    +0.000 OA
ATOM     21  H   UNL     1       7.052   7.409  17.268  0.00  0.00    +0.000 HD
ATOM     22  H   UNL     1       8.428   6.896  16.360  0.00  0.00    +0.000 HD
ENDBRANCH  15  18
ENDBRANCH   1  17
BRANCH   6  23
ATOM     23  N   UNL     1      -0.382  11.697  21.780  0.00  0.00    +0.000 N 
ATOM     24  C   UNL     1      -1.307  11.671  22.802  0.00  0.00    +0.000 C 
ATOM     25  O   UNL     1      -1.701  10.706  23.434  0.00  0.00    +0.000 OA
ATOM     26  H   UNL     1      -0.156  12.588  21.371  0.00  0.00    +0.000 HD
BRANCH  24  27
ATOM     27  C   UNL     1      -1.837  13.030  23.133  0.00  0.00    +0.000 C 
ATOM     28  C   UNL     1      -3.051  13.571  22.414  0.00  0.00    +0.000 C 
ATOM     29  C   UNL     1      -3.162  13.144  23.849  0.00  0.00    +0.000 C 
ENDBRANCH  24  27
ENDBRANCH   6  23
TORSDOF 4
ENDMDL
MODEL 3
REMARK VINA RESULT:      -8.9      1.004      1.613
REMARK  Name = 
REMARK  5 active torsions:
REMARK  status: ('A' for Active; 'I' for Inactive)
REMARK    1  A    between atoms: C_1  and  C_2
REMARK    2  A    between atoms: C_5  and  C_6
REMARK    3  A    between atoms: C_10  and  C_11
REMARK    4  A    between atoms: C_16  and  N_17
REMARK    5  A    between atoms: C_18  and  C_20
REMARK                            x       y       z     vdW  Elec       q    Type
REMARK                         _______ _______ _______ _____ _____    ______ ____
ROOT
ATOM      1  C   UNL     1       2.670   6.814  18.804  0.00  0.00    +0.000 A 
ATOM      2  C   UNL     1       2.279   6.695  20.148  0.00  0.00    +0.000 A 
ATOM      3  C   UNL     1       1.511   7.671  20.795  0.00  0.00    +0.000 A 
ATOM      4  C   UNL     1       1.178   8.862  20.143  0.00  0.00    +0.000 A 
ATOM      5  C   UNL     1       0.435   9.872  20.771  0.00  0.00    +0.000 A 
ATOM      6  C   UNL     1       0.183  11.059  20.087  0.00  0.00    +0.000 A 
ATOM      7  N   UNL     1       0.630  11.266  18.843  0.00  0.00    +0.000 NA
ATOM      8  C   UNL     1       1.329  10.277  18.237  0.00  0.00    +0.000 A 
ATOM      9  C   UNL     1       1.624   9.053  18.828  0.00  0.00    +0.000 A 
ATOM     10  C   UNL     1       2.337   8.025  18.166  0.00  0.00    +0.000 A 
ENDROOT
BRANCH   1  17
ATOM     11  C   UNL     1       1.361   4.205  17.733  0.00  0.00    +0.000 C 
ATOM     12  C   UNL     1       2.827   4.540  17.596  0.00  0.00    +0.000 A 
ATOM     13  C   UNL     1       3.618   3.580  16.930  0.00  0.00    +0.000 A 
ATOM     14  C   UNL     1       4.974   3.792  16.689  0.00  0.00    +0.000 A 
ATOM     15  C   UNL     1       5.576   4.967  17.126  0.00  0.00    +0.000 A 
ATOM     16  C   UNL     1       4.801   5.909  17.826  0.00  0.00    +0.000 A 
ATOM     17  C   UNL     1       3.416   5.736  18.082  0.00  0.00    +0.000 A 
BRANCH  15  18
ATOM     18  C   UNL     1       7.013   5.284  16.871  0.00  0.00    +0.000 C 
ATOM     19  N   UNL     1       7.958   4.341  17.163  0.00  0.00    +0.000 N 
ATOM     20  O   UNL     1       7.355   6.364  16.401  0.00  0.00    +0.000 OA
ATOM     21  H   UNL     1       7.778   3.428  17.545  0.00  0.00    +0.000 HD
ATOM     22  H   UNL     1       8.920   4.588  16.970  0.00  0.00    +0.000 HD
ENDBRANCH  15  18
ENDBRANCH   1  17
BRANCH   6  23
ATOM     23  N   UNL     1      -0.559  12.042  20.755  0.00  0.00    +0.000 N 
ATOM     24  C   UNL     1      -0.015  13.094  21.461  0.00  0.00    +0.000 C 
ATOM     25  O   UNL     1       1.163  13.356  21.629  0.00  0.00    +0.000 OA
ATOM     26  H   UNL     1      -1.561  11.978  20.701  0.00  0.00    +0.000 HD
BRANCH  24  27
ATOM     27  C   UNL     1      -1.057  13.990  22.051  0.00  0.00    +0.000 C 
ATOM     28  C   UNL     1      -1.517  13.791  23.476  0.00  0.00    +0.000 C 
ATOM     29  C   UNL     1      -0.655  14.970  23.128  0.00  0.00    +0.000 C 
ENDBRANCH  24  27
ENDBRANCH   6  23
TORSDOF 4
ENDMDL
MODEL 4
REMARK VINA RESULT:      -8.8      1.442      1.972
REMARK  Name = 
REMARK  5 active torsions:
REMARK  status: ('A' for Active; 'I' for Inactive)
REMARK    1  A    between atoms: C_1  and  C_2
REMARK    2  A    between atoms: C_5  and  C_6
REMARK    3  A    between atoms: C_10  and  C_11
REMARK    4  A    between atoms: C_16  and  N_17
REMARK    5  A    between atoms: C_18  and  C_20
REMARK                            x       y       z     vdW  Elec       q    Type
REMARK                         _______ _______ _______ _____ _____    ______ ____
ROOT
ATOM      1  C   UNL     1       2.700   6.819  18.738  0.00  0.00    +0.000 A 
ATOM      2  C   UNL     1       2.320   6.699  20.085  0.00  0.00    +0.000 A 
ATOM      3  C   UNL     1       1.536   7.662  20.732  0.00  0.00    +0.000 A 
ATOM      4  C   UNL     1       1.173   8.842  20.076  0.00  0.00    +0.000 A 
ATOM      5  C   UNL     1       0.412   9.839  20.702  0.00  0.00    +0.000 A 
ATOM      6  C   UNL     1       0.130  11.016  20.014  0.00  0.00    +0.000 A 
ATOM      7  N   UNL     1       0.564  11.225  18.765  0.00  0.00    +0.000 NA
ATOM      8  C   UNL     1       1.280  10.249  18.160  0.00  0.00    +0.000 A 
ATOM      9  C   UNL     1       1.606   9.034  18.756  0.00  0.00    +0.000 A 
ATOM     10  C   UNL     1       2.336   8.019  18.095  0.00  0.00    +0.000 A 
ENDROOT
BRANCH   1  17
ATOM     11  C   UNL     1       1.464   4.129  17.785  0.00  0.00    +0.000 C 
ATOM     12  C   UNL     1       2.909   4.520  17.585  0.00  0.00    +0.000 A 
ATOM     13  C   UNL     1       3.715   3.576  16.916  0.00  0.00    +0.000 A 
ATOM     14  C   UNL     1       5.052   3.837  16.618  0.00  0.00    +0.000 A 
ATOM     15  C   UNL     1       5.619   5.048  17.001  0.00  0.00    +0.000 A 
ATOM     16  C   UNL     1       4.830   5.976  17.704  0.00  0.00    +0.000 A 
ATOM     17  C   UNL     1       3.464   5.753  18.017  0.00  0.00    +0.000 A 
BRANCH  15  18
ATOM     18  C   UNL     1       7.031   5.417  16.684  0.00  0.00    +0.000 C 
ATOM     19  N   UNL     1       7.387   6.737  16.699  0.00  0.00    +0.000 N 
ATOM     20  O   UNL     1       7.870   4.564  16.421  0.00  0.00    +0.000 OA
ATOM     21  H   UNL     1       6.774   7.508  16.906  0.00  0.00    +0.000 HD
ATOM     22  H   UNL     1       8.353   6.948  16.487  0.00  0.00    +0.000 HD
ENDBRANCH  15  18
ENDBRANCH   1  17
BRANCH   6  23
ATOM     23  N   UNL     1      -0.629  11.987  20.681  0.00  0.00    +0.000 N 
ATOM     24  C   UNL     1      -1.917  12.346  20.344  0.00  0.00    +0.000 C 
ATOM     25  O   UNL     1      -2.608  11.906  19.441  0.00  0.00    +0.000 OA
ATOM     26  H   UNL     1      -0.204  12.441  21.471  0.00  0.00    +0.000 HD
BRANCH  24  27
ATOM     27  C   UNL     1      -2.476  13.398  21.249  0.00  0.00    +0.000 C 
ATOM     28  C   UNL     1      -3.499  13.035  22.300  0.00  0.00    +0.000 C 
ATOM     29  C   UNL     1      -2.097  13.382  22.710  0.00  0.00    +0.000 C 
ENDBRANCH  24  27
ENDBRANCH   6  23
TORSDOF 4
ENDMDL
MODEL 5
REMARK VINA RESULT:      -8.7      1.173      1.734
REMARK  Name = 
REMARK  5 active torsions:
REMARK  status: ('A' for Active; 'I' for Inactive)
REMARK    1  A    between atoms: C_1  and  C_2
REMARK    2  A    between atoms: C_5  and  C_6
REMARK    3  A    between atoms: C_10  and  C_11
REMARK    4  A    between atoms: C_16  and  N_17
REMARK    5  A    between atoms: C_18  and  C_20
REMARK                            x       y       z     vdW  Elec       q    Type
REMARK                         _______ _______ _______ _____ _____    ______ ____
ROOT
ATOM      1  C   UNL     1       2.711   6.787  18.737  0.00  0.00    +0.000 A 
ATOM      2  C   UNL     1       2.337   6.534  20.068  0.00  0.00    +0.000 A 
ATOM      3  C   UNL     1       1.529   7.412  20.801  0.00  0.00    +0.000 A 
ATOM      4  C   UNL     1       1.133   8.636  20.256  0.00  0.00    +0.000 A 
ATOM      5  C   UNL     1       0.347   9.551  20.972  0.00  0.00    +0.000 A 
ATOM      6  C   UNL     1       0.032  10.778  20.394  0.00  0.00    +0.000 A 
ATOM      7  N   UNL     1       0.457  11.113  19.170  0.00  0.00    +0.000 NA
ATOM      8  C   UNL     1       1.197  10.216  18.477  0.00  0.00    +0.000 A 
ATOM      9  C   UNL     1       1.557   8.961  18.960  0.00  0.00    +0.000 A 
ATOM     10  C   UNL     1       2.313   8.031  18.208  0.00  0.00    +0.000 A 
ENDROOT
BRANCH   1  17
ATOM     11  C   UNL     1       1.677   3.979  17.891  0.00  0.00    +0.000 C 
ATOM     12  C   UNL     1       3.039   4.527  17.536  0.00  0.00    +0.000 A 
ATOM     13  C   UNL     1       3.864   3.679  16.769  0.00  0.00    +0.000 A 
ATOM     14  C   UNL     1       5.122   4.086  16.328  0.00  0.00    +0.000 A 
ATOM     15  C   UNL     1       5.593   5.351  16.663  0.00  0.00    +0.000 A 
ATOM     16  C   UNL     1       4.791   6.186  17.463  0.00  0.00    +0.000 A 
ATOM     17  C   UNL     1       3.501   5.813  17.922  0.00  0.00    +0.000 A 
BRANCH  15  18
ATOM     18  C   UNL     1       6.912   5.874  16.197  0.00  0.00    +0.000 C 
ATOM     19  N   UNL     1       7.504   6.888  16.897  0.00  0.00    +0.000 N 
ATOM     20  O   UNL     1       7.471   5.408  15.211  0.00  0.00    +0.000 OA
ATOM     21  H   UNL     1       7.128   7.333  17.718  0.00  0.00    +0.000 HD
ATOM     22  H   UNL     1       8.400   7.211  16.556  0.00  0.00    +0.000 HD
ENDBRANCH  15  18
ENDBRANCH   1  17
BRANCH   6  23
ATOM     23  N   UNL     1      -0.752  11.663  21.148  0.00  0.00    +0.000 N 
ATOM     24  C   UNL     1      -0.885  11.621  22.520  0.00  0.00    +0.000 C 
ATOM     25  O   UNL     1      -0.368  10.841  23.301  0.00  0.00    +0.000 OA
ATOM     26  H   UNL     1      -1.239  12.386  20.648  0.00  0.00    +0.000 HD
BRANCH  24  27
ATOM     27  C   UNL     1      -1.774  12.704  23.044  0.00  0.00    +0.000 C 
ATOM     28  C   UNL     1      -1.190  14.033  23.463  0.00  0.00    +0.000 C 
ATOM     29  C   UNL     1      -1.999  13.937  22.201  0.00  0.00    +0.000 C 
ENDBRANCH  24  27
ENDBRANCH   6  23
TORSDOF 4
ENDMDL
MODEL 6
REMARK VINA RESULT:      -8.6      2.445      3.024
REMARK  Name = 
REMARK  5 active torsions:
REMARK  status: ('A' for Active; 'I' for Inactive)
REMARK    1  A    between atoms: C_1  and  C_2
REMARK    2  A    between atoms: C_5  and  C_6
REMARK    3  A    between atoms: C_10  and  C_11
REMARK    4  A    between atoms: C_16  and  N_17
REMARK    5  A    between atoms: C_18  and  C_20
REMARK                            x       y       z     vdW  Elec       q    Type
REMARK                         _______ _______ _______ _____ _____    ______ ____
ROOT
ATOM      1  C   UNL     1       2.210   7.380  18.620  0.00  0.00    +0.000 A 
ATOM      2  C   UNL     1       1.819   8.443  17.788  0.00  0.00    +0.000 A 
ATOM      3  C   UNL     1       1.312   9.645  18.295  0.00  0.00    +0.000 A 
ATOM      4  C   UNL     1       1.087   9.801  19.666  0.00  0.00    +0.000 A 
ATOM      5  C   UNL     1       0.555  10.982  20.204  0.00  0.00    +0.000 A 
ATOM      6  C   UNL     1       0.303  11.055  21.572  0.00  0.00    +0.000 A 
ATOM      7  N   UNL     1       0.556  10.028  22.393  0.00  0.00    +0.000 NA
ATOM      8  C   UNL     1       1.089   8.900  21.868  0.00  0.00    +0.000 A 
ATOM      9  C   UNL     1       1.387   8.730  20.519  0.00  0.00    +0.000 A 
ATOM     10  C   UNL     1       1.966   7.550  19.998  0.00  0.00    +0.000 A 
ENDROOT
BRANCH   1  17
ATOM     11  C   UNL     1       4.923   7.288  17.102  0.00  0.00    +0.000 C 
ATOM     12  C   UNL     1       4.067   6.077  17.391  0.00  0.00    +0.000 A 
ATOM     13  C   UNL     1       4.569   4.844  16.927  0.00  0.00    +0.000 A 
ATOM     14  C   UNL     1       3.904   3.644  17.176  0.00  0.00    +0.000 A 
ATOM     15  C   UNL     1       2.707   3.654  17.884  0.00  0.00    +0.000 A 
ATOM     16  C   UNL     1       2.182   4.886  18.314  0.00  0.00    +0.000 A 
ATOM     17  C   UNL     1       2.833   6.127  18.090  0.00  0.00    +0.000 A 
BRANCH  15  18
ATOM     18  C   UNL     1       1.957   2.409  18.225  0.00  0.00    +0.000 C 
ATOM     19  N   UNL     1       2.660   1.262  18.469  0.00  0.00    +0.000 N 
ATOM     20  O   UNL     1       0.733   2.400  18.296  0.00  0.00    +0.000 OA
ATOM     21  H   UNL     1       3.661   1.169  18.440  0.00  0.00    +0.000 HD
ATOM     22  H   UNL     1       2.118   0.440  18.704  0.00  0.00    +0.000 HD
ENDBRANCH  15  18
ENDBRANCH   1  17
BRANCH   6  23
ATOM     23  N   UNL     1      -0.233  12.252  22.064  0.00  0.00    +0.000 N 
ATOM     24  C   UNL     1      -1.359  12.342  22.857  0.00  0.00    +0.000 C 
ATOM     25  O   UNL     1      -2.068  11.437  23.260  0.00  0.00    +0.000 OA
ATOM     26  H   UNL     1       0.249  13.103  21.832  0.00  0.00    +0.000 HD
BRANCH  24  27
ATOM     27  C   UNL     1      -1.679  13.752  23.242  0.00  0.00    +0.000 C 
ATOM     28  C   UNL     1      -2.855  14.465  22.616  0.00  0.00    +0.000 C 
ATOM     29  C   UNL     1      -2.926  14.024  24.050  0.00  0.00    +0.000 C 
ENDBRANCH  24  27
ENDBRANCH   6  23
TORSDOF 4
ENDMDL
MODEL 7
REMARK VINA RESULT:      -8.5      1.043      1.178
REMARK  Name = 
REMARK  5 active torsions:
REMARK  status: ('A' for Active; 'I' for Inactive)
REMARK    1  A    between atoms: C_1  and  C_2
REMARK    2  A    between atoms: C_5  and  C_6
REMARK    3  A    between atoms: C_10  and  C_11
REMARK    4  A    between atoms: C_16  and  N_17
REMARK    5  A    between atoms: C_18  and  C_20
REMARK                            x       y       z     vdW  Elec       q    Type
REMARK                         _______ _______ _______ _____ _____    ______ ____
ROOT
ATOM      1  C   UNL     1       2.670   7.229  18.360  0.00  0.00    +0.000 A 
ATOM      2  C   UNL     1       2.295   8.327  17.567  0.00  0.00    +0.000 A 
ATOM      3  C   UNL     1       1.652   9.451  18.099  0.00  0.00    +0.000 A 
ATOM      4  C   UNL     1       1.272   9.483  19.444  0.00  0.00    +0.000 A 
ATOM      5  C   UNL     1       0.602  10.582  20.003  0.00  0.00    +0.000 A 
ATOM      6  C   UNL     1       0.201  10.531  21.335  0.00  0.00    +0.000 A 
ATOM      7  N   UNL     1       0.438   9.460  22.103  0.00  0.00    +0.000 NA
ATOM      8  C   UNL     1       1.103   8.413  21.562  0.00  0.00    +0.000 A 
ATOM      9  C   UNL     1       1.555   8.370  20.247  0.00  0.00    +0.000 A 
ATOM     10  C   UNL     1       2.269   7.273  19.710  0.00  0.00    +0.000 A 
ENDROOT
BRANCH   1  17
ATOM     11  C   UNL     1       1.480   4.379  17.997  0.00  0.00    +0.000 C 
ATOM     12  C   UNL     1       2.900   4.758  17.651  0.00  0.00    +0.000 A 
ATOM     13  C   UNL     1       3.704   3.724  17.130  0.00  0.00    +0.000 A 
ATOM     14  C   UNL     1       5.016   3.955  16.719  0.00  0.00    +0.000 A 
ATOM     15  C   UNL     1       5.561   5.229  16.837  0.00  0.00    +0.000 A 
ATOM     16  C   UNL     1       4.776   6.255  17.394  0.00  0.00    +0.000 A 
ATOM     17  C   UNL     1       3.434   6.063  17.814  0.00  0.00    +0.000 A 
BRANCH  15  18
ATOM     18  C   UNL     1       6.943   5.564  16.383  0.00  0.00    +0.000 C 
ATOM     19  N   UNL     1       7.487   6.763  16.754  0.00  0.00    +0.000 N 
ATOM     20  O   UNL     1       7.596   4.787  15.697  0.00  0.00    +0.000 OA
ATOM     21  H   UNL     1       7.035   7.464  17.317  0.00  0.00    +0.000 HD
ATOM     22  H   UNL     1       8.428   6.952  16.435  0.00  0.00    +0.000 HD
ENDBRANCH  15  18
ENDBRANCH   1  17
BRANCH   6  23
ATOM     23  N   UNL     1      -0.469  11.649  21.849  0.00  0.00    +0.000 N 
ATOM     24  C   UNL     1      -1.581  12.231  21.277  0.00  0.00    +0.000 C 
ATOM     25  O   UNL     1      -2.164  11.898  20.260  0.00  0.00    +0.000 OA
ATOM     26  H   UNL     1      -0.119  12.042  22.705  0.00  0.00    +0.000 HD
BRANCH  24  27
ATOM     27  C   UNL     1      -2.086  13.399  22.062  0.00  0.00    +0.000 C 
ATOM     28  C   UNL     1      -1.810  14.809  21.595  0.00  0.00    +0.000 C 
ATOM     29  C   UNL     1      -3.196  14.244  21.484  0.00  0.00    +0.000 C 
ENDBRANCH  24  27
ENDBRANCH   6  23
TORSDOF 4
ENDMDL
MODEL 8
REMARK VINA RESULT:      -8.2      2.013      2.603
REMARK  Name = 
REMARK  5 active torsions:
REMARK  status: ('A' for Active; 'I' for Inactive)
REMARK    1  A    between atoms: C_1  and  C_2
REMARK    2  A    between atoms: C_5  and  C_6
REMARK    3  A    between atoms: C_10  and  C_11
REMARK    4  A    between atoms: C_16  and  N_17
REMARK    5  A    between atoms: C_18  and  C_20
REMARK                            x       y       z     vdW  Elec       q    Type
REMARK                         _______ _______ _______ _____ _____    ______ ____
ROOT
ATOM      1  C   UNL     1       2.528   7.149  18.446  0.00  0.00    +0.000 A 
ATOM      2  C   UNL     1       2.055   8.140  17.568  0.00  0.00    +0.000 A 
ATOM      3  C   UNL     1       1.399   9.291  18.020  0.00  0.00    +0.000 A 
ATOM      4  C   UNL     1       1.104   9.456  19.376  0.00  0.00    +0.000 A 
ATOM      5  C   UNL     1       0.424  10.584  19.859  0.00  0.00    +0.000 A 
ATOM      6  C   UNL     1       0.111  10.663  21.214  0.00  0.00    +0.000 A 
ATOM      7  N   UNL     1       0.443   9.692  22.074  0.00  0.00    +0.000 NA
ATOM      8  C   UNL     1       1.118   8.618  21.603  0.00  0.00    +0.000 A 
ATOM      9  C   UNL     1       1.486   8.447  20.272  0.00  0.00    +0.000 A 
ATOM     10  C   UNL     1       2.212   7.326  19.808  0.00  0.00    +0.000 A 
ENDROOT
BRANCH   1  17
ATOM     11  C   UNL     1       5.301   7.320  17.047  0.00  0.00    +0.000 C 
ATOM     12  C   UNL     1       4.569   6.030  17.332  0.00  0.00    +0.000 A 
ATOM     13  C   UNL     1       5.221   4.849  16.922  0.00  0.00    +0.000 A 
ATOM     14  C   UNL     1       4.679   3.589  17.176  0.00  0.00    +0.000 A 
ATOM     15  C   UNL     1       3.457   3.485  17.832  0.00  0.00    +0.000 A 
ATOM     16  C   UNL     1       2.783   4.661  18.206  0.00  0.00    +0.000 A 
ATOM     17  C   UNL     1       3.306   5.960  17.976  0.00  0.00    +0.000 A 
BRANCH  15  18
ATOM     18  C   UNL     1       2.832   2.172  18.174  0.00  0.00    +0.000 C 
ATOM     19  N   UNL     1       3.637   1.078  18.330  0.00  0.00    +0.000 N 
ATOM     20  O   UNL     1       1.620   2.062  18.323  0.00  0.00    +0.000 OA
ATOM     21  H   UNL     1       4.638   1.067  18.233  0.00  0.00    +0.000 HD
ATOM     22  H   UNL     1       3.178   0.209  18.569  0.00  0.00    +0.000 HD
ENDBRANCH  15  18
ENDBRANCH   1  17
BRANCH   6  23
ATOM     23  N   UNL     1      -0.573  11.805  21.651  0.00  0.00    +0.000 N 
ATOM     24  C   UNL     1       0.002  13.046  21.832  0.00  0.00    +0.000 C 
ATOM     25  O   UNL     1       1.164  13.367  21.653  0.00  0.00    +0.000 OA
ATOM     26  H   UNL     1      -1.558  11.711  21.830  0.00  0.00    +0.000 HD
BRANCH  24  27
ATOM     27  C   UNL     1      -0.982  14.075  22.288  0.00  0.00    +0.000 C 
ATOM     28  C   UNL     1      -1.319  14.210  23.755  0.00  0.00    +0.000 C 
ATOM     29  C   UNL     1      -0.486  15.261  23.081  0.00  0.00    +0.000 C 
ENDBRANCH  24  27
ENDBRANCH   6  23
TORSDOF 4
ENDMDL
MODEL 9
REMARK VINA RESULT:      -8.0      1.605      1.814
REMARK  Name = 
REMARK  5 active torsions:
REMARK  status: ('A' for Active; 'I' for Inactive)
REMARK    1  A    between atoms: C_1  and  C_2
REMARK    2  A    between atoms: C_5  and  C_6
REMARK    3  A    between atoms: C_10  and  C_11
REMARK    4  A    between atoms: C_16  and  N_17
REMARK    5  A    between atoms: C_18  and  C_20
REMARK                            x       y       z     vdW  Elec       q    Type
REMARK                         _______ _______ _______ _____ _____    ______ ____
ROOT
ATOM      1  C   UNL     1       2.104   7.605  19.114  0.00  0.00    +0.000 A 
ATOM      2  C   UNL     1       1.644   8.625  18.264  0.00  0.00    +0.000 A 
ATOM      3  C   UNL     1       1.046   9.794  18.750  0.00  0.00    +0.000 A 
ATOM      4  C   UNL     1       0.796   9.950  20.117  0.00  0.00    +0.000 A 
ATOM      5  C   UNL     1       0.173  11.095  20.635  0.00  0.00    +0.000 A 
ATOM      6  C   UNL     1      -0.098  11.166  21.999  0.00  0.00    +0.000 A 
ATOM      7  N   UNL     1       0.221  10.171  22.835  0.00  0.00    +0.000 NA
ATOM      8  C   UNL     1       0.841   9.079  22.331  0.00  0.00    +0.000 A 
ATOM      9  C   UNL     1       1.165   8.915  20.987  0.00  0.00    +0.000 A 
ATOM     10  C   UNL     1       1.835   7.773  20.487  0.00  0.00    +0.000 A 
ENDROOT
BRANCH   1  17
ATOM     11  C   UNL     1       1.393   4.687  19.923  0.00  0.00    +0.000 C 
ATOM     12  C   UNL     1       2.508   5.060  18.975  0.00  0.00    +0.000 A 
ATOM     13  C   UNL     1       3.249   3.985  18.443  0.00  0.00    +0.000 A 
ATOM     14  C   UNL     1       4.269   4.189  17.514  0.00  0.00    +0.000 A 
ATOM     15  C   UNL     1       4.582   5.482  17.108  0.00  0.00    +0.000 A 
ATOM     16  C   UNL     1       3.873   6.561  17.667  0.00  0.00    +0.000 A 
ATOM     17  C   UNL     1       2.822   6.394  18.606  0.00  0.00    +0.000 A 
BRANCH  15  18
ATOM     18  C   UNL     1       5.632   5.778  16.089  0.00  0.00    +0.000 C 
ATOM     19  N   UNL     1       5.356   6.682  15.101  0.00  0.00    +0.000 N 
ATOM     20  O   UNL     1       6.731   5.236  16.128  0.00  0.00    +0.000 OA
ATOM     21  H   UNL     1       4.490   7.181  14.986  0.00  0.00    +0.000 HD
ATOM     22  H   UNL     1       6.095   6.863  14.434  0.00  0.00    +0.000 HD
ENDBRANCH  15  18
ENDBRANCH   1  17
BRANCH   6  23
ATOM     23  N   UNL     1      -0.725  12.327  22.470  0.00  0.00    +0.000 N 
ATOM     24  C   UNL     1      -1.933  12.353  23.136  0.00  0.00    +0.000 C 
ATOM     25  O   UNL     1      -2.650  11.411  23.426  0.00  0.00    +0.000 OA
ATOM     26  H   UNL     1      -0.250  13.200  22.323  0.00  0.00    +0.000 HD
BRANCH  24  27
ATOM     27  C   UNL     1      -2.342  13.736  23.532  0.00  0.00    +0.000 C 
ATOM     28  C   UNL     1      -3.482  14.427  22.822  0.00  0.00    +0.000 C 
ATOM     29  C   UNL     1      -3.667  13.936  24.229  0.00  0.00    +0.000 C 
ENDBRANCH  24  27
ENDBRANCH   6  23
TORSDOF 4
ENDMDL
