MODEL 1
REMARK VINA RESULT:      -8.1      0.000      0.000
REMARK  Name = 
REMARK  8 active torsions:
REMARK  status: ('A' for Active; 'I' for Inactive)
REMARK    1  A    between atoms: CD1_1  and  CG_2
REMARK    2  A    between atoms: CG_2  and  CD2_3
REMARK    3  A    between atoms: CG_2  and  CB_4
REMARK    4  A    between atoms: CB_4  and  CA_5
REMARK    5  A    between atoms: CA_5  and  N_6
REMARK    6  A    between atoms: CA_5  and  C_21
REMARK    7  A    between atoms: C_7  and  CA_9
REMARK    8  A    between atoms: C_21  and  OXT_23
REMARK                            x       y       z     vdW  Elec       q    Type
REMARK                         _______ _______ _______ _____ _____    ______ ____
ROOT
ATOM      1  CA  UNL     1       6.030   4.526  17.064  0.00  0.00    +0.000 A 
ATOM      2  C   UNL     1       7.002   5.510  16.900  0.00  0.00    +0.000 A 
ATOM      3  N   UNL     1       7.589   5.765  15.706  0.00  0.00    +0.000 NA
ATOM      4  C   UNL     1       7.135   4.986  14.686  0.00  0.00    +0.000 A 
ATOM      5  C   UNL     1       7.684   5.190  13.330  0.00  0.00    +0.000 A 
ATOM      6  O   UNL     1       8.556   6.009  13.064  0.00  0.00    +0.000 OA
ATOM      7  N   UNL     1       7.144   4.384  12.353  0.00  0.00    +0.000 N 
ATOM      8  C   UNL     1       6.154   3.473  12.576  0.00  0.00    +0.000 A 
ATOM      9  N   UNL     1       5.704   2.804  11.490  0.00  0.00    +0.000 N 
ATOM     10  N   UNL     1       5.660   3.250  13.752  0.00  0.00    +0.000 NA
ATOM     11  C   UNL     1       6.151   4.009  14.828  0.00  0.00    +0.000 A 
ATOM     12  N   UNL     1       5.581   3.747  16.034  0.00  0.00    +0.000 NA
ATOM     13  H   UNL     1       7.489   4.546  11.419  0.00  0.00    +0.000 HD
ATOM     14  H   UNL     1       6.335   2.650  10.714  0.00  0.00    +0.000 HD
ATOM     15  H   UNL     1       5.127   1.999  11.717  0.00  0.00    +0.000 HD
ENDROOT
BRANCH   1  17
ATOM     16  N   UNL     1       5.001   3.057  18.726  0.00  0.00    +0.000 N 
ATOM     17  C   UNL     1       5.440   4.326  18.421  0.00  0.00    +0.000 C 
ATOM     18  O   UNL     1       5.360   5.262  19.211  0.00  0.00    +0.000 OA
ATOM     19  H   UNL     1       5.113   2.319  18.027  0.00  0.00    +0.000 HD
BRANCH  16  20
ATOM     20  CA  UNL     1       4.364   2.737  20.007  0.00  0.00    +0.000 C 
BRANCH  20  21
ATOM     21  C   UNL     1       5.006   1.457  20.555  0.00  0.00    +0.000 C 
ATOM     22  O   UNL     1       5.428   1.335  21.698  0.00  0.00    +0.000 OA
BRANCH  21  23
ATOM     23  OXT UNL     1       5.092   0.447  19.654  0.00  0.00    +0.000 OA
ATOM     24  HXT UNL     1       4.664   0.630  18.794  0.00  0.00    +0.000 HD
ENDBRANCH  21  23
ENDBRANCH  20  21
BRANCH  20  25
ATOM     25  CB  UNL     1       2.842   2.583  19.826  0.00  0.00    +0.000 C 
BRANCH  25  27
ATOM     26  CD1 UNL     1       1.587   3.933  18.028  0.00  0.00    +0.000 C 
ATOM     27  CG  UNL     1       2.066   3.872  19.480  0.00  0.00    +0.000 C 
ATOM     28  CD2 UNL     1       0.857   4.024  20.411  0.00  0.00    +0.000 C 
ENDBRANCH  25  27
ENDBRANCH  20  25
ENDBRANCH  16  20
ENDBRANCH   1  17
TORSDOF 6
ENDMDL
MODEL 2
REMARK VINA RESULT:      -7.9      2.734      7.134
REMARK  Name = 
REMARK  8 active torsions:
REMARK  status: ('A' for Active; 'I' for Inactive)
REMARK    1  A    between atoms: CD1_1  and  CG_2
REMARK    2  A    between atoms: CG_2  and  CD2_3
REMARK    3  A    between atoms: CG_2  and  CB_4
REMARK    4  A    between atoms: CB_4  and  CA_5
REMARK    5  A    between atoms: CA_5  and  N_6
REMARK    6  A    between atoms: CA_5  and  C_21
REMARK    7  A    between atoms: C_7  and  CA_9
REMARK    8  A    between atoms: C_21  and  OXT_23
REMARK                            x       y       z     vdW  Elec       q    Type
REMARK                         _______ _______ _______ _____ _____    ______ ____
ROOT
ATOM      1  CA  UNL     1       5.541   4.811  16.230  0.00  0.00    +0.000 A 
ATOM      2  C   UNL     1       5.401   6.027  16.895  0.00  0.00    +0.000 A 
ATOM      3  N   UNL     1       4.389   6.274  17.761  0.00  0.00    +0.000 NA
ATOM      4  C   UNL     1       3.535   5.227  17.932  0.00  0.00    +0.000 A 
ATOM      5  C   UNL     1       2.405   5.370  18.872  0.00  0.00    +0.000 A 
ATOM      6  O   UNL     1       2.166   6.395  19.499  0.00  0.00    +0.000 OA
ATOM      7  N   UNL     1       1.614   4.252  19.010  0.00  0.00    +0.000 N 
ATOM      8  C   UNL     1       1.840   3.073  18.363  0.00  0.00    +0.000 A 
ATOM      9  N   UNL     1       0.992   2.060  18.656  0.00  0.00    +0.000 N 
ATOM     10  N   UNL     1       2.806   2.913  17.517  0.00  0.00    +0.000 NA
ATOM     11  C   UNL     1       3.670   3.998  17.288  0.00  0.00    +0.000 A 
ATOM     12  N   UNL     1       4.678   3.766  16.407  0.00  0.00    +0.000 NA
ATOM     13  H   UNL     1       0.863   4.333  19.679  0.00  0.00    +0.000 HD
ATOM     14  H   UNL     1       0.047   2.281  18.941  0.00  0.00    +0.000 HD
ATOM     15  H   UNL     1       1.058   1.275  18.015  0.00  0.00    +0.000 HD
ENDROOT
BRANCH   1  17
ATOM     16  N   UNL     1       6.404   4.577  13.956  0.00  0.00    +0.000 N 
ATOM     17  C   UNL     1       6.695   4.636  15.300  0.00  0.00    +0.000 C 
ATOM     18  O   UNL     1       7.840   4.552  15.734  0.00  0.00    +0.000 OA
ATOM     19  H   UNL     1       5.430   4.671  13.661  0.00  0.00    +0.000 HD
BRANCH  16  20
ATOM     20  CA  UNL     1       7.440   4.366  12.940  0.00  0.00    +0.000 C 
BRANCH  20  21
ATOM     21  C   UNL     1       8.083   5.721  12.620  0.00  0.00    +0.000 C 
ATOM     22  O   UNL     1       7.771   6.422  11.667  0.00  0.00    +0.000 OA
BRANCH  21  23
ATOM     23  OXT UNL     1       9.062   6.090  13.483  0.00  0.00    +0.000 OA
ATOM     24  HXT UNL     1       9.951   5.752  13.260  0.00  0.00    +0.000 HD
ENDBRANCH  21  23
ENDBRANCH  20  21
BRANCH  20  25
ATOM     25  CB  UNL     1       6.836   3.708  11.685  0.00  0.00    +0.000 C 
BRANCH  25  27
ATOM     26  CD1 UNL     1       4.323   3.237  11.382  0.00  0.00    +0.000 C 
ATOM     27  CG  UNL     1       5.661   2.736  11.927  0.00  0.00    +0.000 C 
ATOM     28  CD2 UNL     1       5.974   1.369  11.305  0.00  0.00    +0.000 C 
ENDBRANCH  25  27
ENDBRANCH  20  25
ENDBRANCH  16  20
ENDBRANCH   1  17
TORSDOF 6
ENDMDL
MODEL 3
REMARK VINA RESULT:      -7.7      0.763      1.011
REMARK  Name = 
REMARK  8 active torsions:
REMARK  status: ('A' for Active; 'I' for Inactive)
REMARK    1  A    between atoms: CD1_1  and  CG_2
REMARK    2  A    between atoms: CG_2  and  CD2_3
REMARK    3  A    between atoms: CG_2  and  CB_4
REMARK    4  A    between atoms: CB_4  and  CA_5
REMARK    5  A    between atoms: CA_5  and  N_6
REMARK    6  A    between atoms: CA_5  and  C_21
REMARK    7  A    between atoms: C_7  and  CA_9
REMARK    8  A    between atoms: C_21  and  OXT_23
REMARK                            x       y       z     vdW  Elec       q    Type
REMARK                         _______ _______ _______ _____ _____    ______ ____
ROOT
ATOM      1  CA  UNL     1       6.060   4.859  17.161  0.00  0.00    +0.000 A 
ATOM      2  C   UNL     1       7.034   5.821  16.903  0.00  0.00    +0.000 A 
ATOM      3  N   UNL     1       7.622   5.959  15.691  0.00  0.00    +0.000 NA
ATOM      4  C   UNL     1       7.166   5.087  14.749  0.00  0.00    +0.000 A 
ATOM      5  C   UNL     1       7.716   5.159  13.380  0.00  0.00    +0.000 A 
ATOM      6  O   UNL     1       8.589   5.947  13.037  0.00  0.00    +0.000 OA
ATOM      7  N   UNL     1       7.173   4.265  12.484  0.00  0.00    +0.000 N 
ATOM      8  C   UNL     1       6.181   3.382  12.793  0.00  0.00    +0.000 A 
ATOM      9  N   UNL     1       5.730   2.613  11.776  0.00  0.00    +0.000 N 
ATOM     10  N   UNL     1       5.687   3.274  13.985  0.00  0.00    +0.000 NA
ATOM     11  C   UNL     1       6.180   4.131  14.984  0.00  0.00    +0.000 A 
ATOM     12  N   UNL     1       5.609   3.987  16.209  0.00  0.00    +0.000 NA
ATOM     13  H   UNL     1       7.519   4.336  11.539  0.00  0.00    +0.000 HD
ATOM     14  H   UNL     1       6.360   2.385  11.019  0.00  0.00    +0.000 HD
ATOM     15  H   UNL     1       5.150   1.835  12.079  0.00  0.00    +0.000 HD
ENDROOT
BRANCH   1  17
ATOM     16  N   UNL     1       4.571   3.775  18.768  0.00  0.00    +0.000 N 
ATOM     17  C   UNL     1       5.469   4.791  18.530  0.00  0.00    +0.000 C 
ATOM     18  O   UNL     1       5.784   5.612  19.386  0.00  0.00    +0.000 OA
ATOM     19  H   UNL     1       4.367   3.116  18.015  0.00  0.00    +0.000 HD
BRANCH  16  20
ATOM     20  CA  UNL     1       3.888   3.622  20.057  0.00  0.00    +0.000 C 
BRANCH  20  21
ATOM     21  C   UNL     1       4.266   2.256  20.641  0.00  0.00    +0.000 C 
ATOM     22  O   UNL     1       3.835   1.818  21.699  0.00  0.00    +0.000 OA
BRANCH  21  23
ATOM     23  OXT UNL     1       5.151   1.555  19.889  0.00  0.00    +0.000 OA
ATOM     24  HXT UNL     1       4.763   1.109  19.111  0.00  0.00    +0.000 HD
ENDBRANCH  21  23
ENDBRANCH  20  21
BRANCH  20  25
ATOM     25  CB  UNL     1       2.365   3.767  19.878  0.00  0.00    +0.000 C 
BRANCH  25  27
ATOM     26  CD1 UNL     1       0.586   2.279  18.759  0.00  0.00    +0.000 C 
ATOM     27  CG  UNL     1       1.781   3.213  18.560  0.00  0.00    +0.000 C 
ATOM     28  CD2 UNL     1       1.362   4.370  17.644  0.00  0.00    +0.000 C 
ENDBRANCH  25  27
ENDBRANCH  20  25
ENDBRANCH  16  20
ENDBRANCH   1  17
TORSDOF 6
ENDMDL
MODEL 4
REMARK VINA RESULT:      -7.6      5.258      8.122
REMARK  Name = 
REMARK  8 active torsions:
REMARK  status: ('A' for Active; 'I' for Inactive)
REMARK    1  A    between atoms: CD1_1  and  CG_2
REMARK    2  A    between atoms: CG_2  and  CD2_3
REMARK    3  A    between atoms: CG_2  and  CB_4
REMARK    4  A    between atoms: CB_4  and  CA_5
REMARK    5  A    between atoms: CA_5  and  N_6
REMARK    6  A    between atoms: CA_5  and  C_21
REMARK    7  A    between atoms: C_7  and  CA_9
REMARK    8  A    between atoms: C_21  and  OXT_23
REMARK                            x       y       z     vdW  Elec       q    Type
REMARK                         _______ _______ _______ _____ _____    ______ ____
ROOT
ATOM      1  CA  UNL     1       2.508   7.842  18.647  0.00  0.00    +0.000 A 
ATOM      2  C   UNL     1       2.011   8.823  17.793  0.00  0.00    +0.000 A 
ATOM      3  N   UNL     1       1.095   9.739  18.187  0.00  0.00    +0.000 NA
ATOM      4  C   UNL     1       0.717   9.624  19.490  0.00  0.00    +0.000 A 
ATOM      5  C   UNL     1      -0.260  10.584  20.042  0.00  0.00    +0.000 A 
ATOM      6  O   UNL     1      -0.782  11.477  19.385  0.00  0.00    +0.000 OA
ATOM      7  N   UNL     1      -0.557  10.416  21.375  0.00  0.00    +0.000 N 
ATOM      8  C   UNL     1       0.007   9.461  22.168  0.00  0.00    +0.000 A 
ATOM      9  N   UNL     1      -0.362   9.472  23.470  0.00  0.00    +0.000 N 
ATOM     10  N   UNL     1       0.851   8.588  21.719  0.00  0.00    +0.000 NA
ATOM     11  C   UNL     1       1.217   8.659  20.364  0.00  0.00    +0.000 A 
ATOM     12  N   UNL     1       2.122   7.732  19.954  0.00  0.00    +0.000 NA
ATOM     13  H   UNL     1      -1.196  11.093  21.765  0.00  0.00    +0.000 HD
ATOM     14  H   UNL     1      -1.279   9.821  23.714  0.00  0.00    +0.000 HD
ATOM     15  H   UNL     1      -0.091   8.635  23.977  0.00  0.00    +0.000 HD
ENDROOT
BRANCH   1  17
ATOM     16  N   UNL     1       3.841   5.811  18.923  0.00  0.00    +0.000 N 
ATOM     17  C   UNL     1       3.520   6.881  18.117  0.00  0.00    +0.000 C 
ATOM     18  O   UNL     1       4.028   7.055  17.014  0.00  0.00    +0.000 OA
ATOM     19  H   UNL     1       3.367   5.717  19.823  0.00  0.00    +0.000 HD
BRANCH  16  20
ATOM     20  CA  UNL     1       4.849   4.819  18.539  0.00  0.00    +0.000 C 
BRANCH  20  21
ATOM     21  C   UNL     1       4.345   3.434  18.961  0.00  0.00    +0.000 C 
ATOM     22  O   UNL     1       3.231   3.000  18.702  0.00  0.00    +0.000 OA
BRANCH  21  23
ATOM     23  OXT UNL     1       5.240   2.711  19.680  0.00  0.00    +0.000 OA
ATOM     24  HXT UNL     1       5.317   1.774  19.413  0.00  0.00    +0.000 HD
ENDBRANCH  21  23
ENDBRANCH  20  21
BRANCH  20  25
ATOM     25  CB  UNL     1       6.207   5.156  19.185  0.00  0.00    +0.000 C 
BRANCH  25  27
ATOM     26  CD1 UNL     1       7.216   4.637  16.873  0.00  0.00    +0.000 C 
ATOM     27  CG  UNL     1       7.390   5.354  18.213  0.00  0.00    +0.000 C 
ATOM     28  CD2 UNL     1       7.612   6.849  17.953  0.00  0.00    +0.000 C 
ENDBRANCH  25  27
ENDBRANCH  20  25
ENDBRANCH  16  20
ENDBRANCH   1  17
TORSDOF 6
ENDMDL
MODEL 5
REMARK VINA RESULT:      -7.6      1.804      2.050
REMARK  Name = 
REMARK  8 active torsions:
REMARK  status: ('A' for Active; 'I' for Inactive)
REMARK    1  A    between atoms: CD1_1  and  CG_2
REMARK    2  A    between atoms: CG_2  and  CD2_3
REMARK    3  A    between atoms: CG_2  and  CB_4
REMARK    4  A    between atoms: CB_4  and  CA_5
REMARK    5  A    between atoms: CA_5  and  N_6
REMARK    6  A    between atoms: CA_5  and  C_21
REMARK    7  A    between atoms: C_7  and  CA_9
REMARK    8  A    between atoms: C_21  and  OXT_23
REMARK                            x       y       z     vdW  Elec       q    Type
REMARK                         _______ _______ _______ _____ _____    ______ ____
ROOT
ATOM      1  CA  UNL     1       5.952   4.676  17.078  0.00  0.00    +0.000 A 
ATOM      2  C   UNL     1       6.970   5.608  16.892  0.00  0.00    +0.000 A 
ATOM      3  N   UNL     1       7.582   5.794  15.699  0.00  0.00    +0.000 NA
ATOM      4  C   UNL     1       7.105   5.002  14.700  0.00  0.00    +0.000 A 
ATOM      5  C   UNL     1       7.679   5.133  13.345  0.00  0.00    +0.000 A 
ATOM      6  O   UNL     1       8.591   5.902  13.063  0.00  0.00    +0.000 OA
ATOM      7  N   UNL     1       7.114   4.319  12.389  0.00  0.00    +0.000 N 
ATOM      8  C   UNL     1       6.081   3.463  12.630  0.00  0.00    +0.000 A 
ATOM      9  N   UNL     1       5.613   2.777  11.562  0.00  0.00    +0.000 N 
ATOM     10  N   UNL     1       5.563   3.304  13.806  0.00  0.00    +0.000 NA
ATOM     11  C   UNL     1       6.076   4.077  14.863  0.00  0.00    +0.000 A 
ATOM     12  N   UNL     1       5.480   3.883  16.069  0.00  0.00    +0.000 NA
ATOM     13  H   UNL     1       7.477   4.432  11.455  0.00  0.00    +0.000 HD
ATOM     14  H   UNL     1       6.246   2.568  10.800  0.00  0.00    +0.000 HD
ATOM     15  H   UNL     1       4.997   2.008  11.809  0.00  0.00    +0.000 HD
ENDROOT
BRANCH   1  17
ATOM     16  N   UNL     1       3.975   4.734  18.514  0.00  0.00    +0.000 N 
ATOM     17  C   UNL     1       5.337   4.551  18.432  0.00  0.00    +0.000 C 
ATOM     18  O   UNL     1       6.031   4.296  19.412  0.00  0.00    +0.000 OA
ATOM     19  H   UNL     1       3.454   4.927  17.656  0.00  0.00    +0.000 HD
BRANCH  16  20
ATOM     20  CA  UNL     1       3.254   4.680  19.790  0.00  0.00    +0.000 C 
BRANCH  20  21
ATOM     21  C   UNL     1       2.831   3.227  20.041  0.00  0.00    +0.000 C 
ATOM     22  O   UNL     1       1.734   2.771  19.748  0.00  0.00    +0.000 OA
BRANCH  21  23
ATOM     23  OXT UNL     1       3.779   2.468  20.645  0.00  0.00    +0.000 OA
ATOM     24  HXT UNL     1       4.527   2.972  21.020  0.00  0.00    +0.000 HD
ENDBRANCH  21  23
ENDBRANCH  20  21
BRANCH  20  25
ATOM     25  CB  UNL     1       2.044   5.633  19.764  0.00  0.00    +0.000 C 
BRANCH  25  27
ATOM     26  CD1 UNL     1       2.201   7.807  18.393  0.00  0.00    +0.000 C 
ATOM     27  CG  UNL     1       2.370   7.142  19.760  0.00  0.00    +0.000 C 
ATOM     28  CD2 UNL     1       1.489   7.872  20.782  0.00  0.00    +0.000 C 
ENDBRANCH  25  27
ENDBRANCH  20  25
ENDBRANCH  16  20
ENDBRANCH   1  17
TORSDOF 6
ENDMDL
MODEL 6
REMARK VINA RESULT:      -7.5      0.627      1.066
REMARK  Name = 
REMARK  8 active torsions:
REMARK  status: ('A' for Active; 'I' for Inactive)
REMARK    1  A    between atoms: CD1_1  and  CG_2
REMARK    2  A    between atoms: CG_2  and  CD2_3
REMARK    3  A    between atoms: CG_2  and  CB_4
REMARK    4  A    between atoms: CB_4  and  CA_5
REMARK    5  A    between atoms: CA_5  and  N_6
REMARK    6  A    between atoms: CA_5  and  C_21
REMARK    7  A    between atoms: C_7  and  CA_9
REMARK    8  A    between atoms: C_21  and  OXT_23
REMARK                            x       y       z     vdW  Elec       q    Type
REMARK                         _______ _______ _______ _____ _____    ______ ____
ROOT
ATOM      1  CA  UNL     1       5.843   4.644  17.105  0.00  0.00    +0.000 A 
ATOM      2  C   UNL     1       6.882   5.561  16.966  0.00  0.00    +0.000 A 
ATOM      3  N   UNL     1       7.539   5.750  15.796  0.00  0.00    +0.000 NA
ATOM      4  C   UNL     1       7.083   4.978  14.772  0.00  0.00    +0.000 A 
ATOM      5  C   UNL     1       7.705   5.115  13.439  0.00  0.00    +0.000 A 
ATOM      6  O   UNL     1       8.639   5.871  13.198  0.00  0.00    +0.000 OA
ATOM      7  N   UNL     1       7.159   4.323  12.454  0.00  0.00    +0.000 N 
ATOM      8  C   UNL     1       6.104   3.481  12.650  0.00  0.00    +0.000 A 
ATOM      9  N   UNL     1       5.662   2.816  11.557  0.00  0.00    +0.000 N 
ATOM     10  N   UNL     1       5.544   3.318  13.805  0.00  0.00    +0.000 NA
ATOM     11  C   UNL     1       6.033   4.069  14.888  0.00  0.00    +0.000 A 
ATOM     12  N   UNL     1       5.393   3.872  16.070  0.00  0.00    +0.000 NA
ATOM     13  H   UNL     1       7.557   4.440  11.535  0.00  0.00    +0.000 HD
ATOM     14  H   UNL     1       6.317   2.605  10.815  0.00  0.00    +0.000 HD
ATOM     15  H   UNL     1       5.025   2.055  11.773  0.00  0.00    +0.000 HD
ENDROOT
BRANCH   1  17
ATOM     16  N   UNL     1       4.487   3.348  18.672  0.00  0.00    +0.000 N 
ATOM     17  C   UNL     1       5.180   4.514  18.436  0.00  0.00    +0.000 C 
ATOM     18  O   UNL     1       5.262   5.415  19.265  0.00  0.00    +0.000 OA
ATOM     19  H   UNL     1       4.473   2.631  17.944  0.00  0.00    +0.000 HD
BRANCH  16  20
ATOM     20  CA  UNL     1       3.756   3.112  19.921  0.00  0.00    +0.000 C 
BRANCH  20  21
ATOM     21  C   UNL     1       4.449   1.970  20.674  0.00  0.00    +0.000 C 
ATOM     22  O   UNL     1       5.411   1.348  20.244  0.00  0.00    +0.000 OA
BRANCH  21  23
ATOM     23  OXT UNL     1       3.892   1.678  21.876  0.00  0.00    +0.000 OA
ATOM     24  HXT UNL     1       4.453   1.137  22.464  0.00  0.00    +0.000 HD
ENDBRANCH  21  23
ENDBRANCH  20  21
BRANCH  20  25
ATOM     25  CB  UNL     1       2.279   2.791  19.627  0.00  0.00    +0.000 C 
BRANCH  25  27
ATOM     26  CD1 UNL     1       1.695   5.235  20.191  0.00  0.00    +0.000 C 
ATOM     27  CG  UNL     1       1.363   4.003  19.347  0.00  0.00    +0.000 C 
ATOM     28  CD2 UNL     1       1.431   4.382  17.863  0.00  0.00    +0.000 C 
ENDBRANCH  25  27
ENDBRANCH  20  25
ENDBRANCH  16  20
ENDBRANCH   1  17
TORSDOF 6
ENDMDL
MODEL 7
REMARK VINA RESULT:      -7.5      4.030      7.450
REMARK  Name = 
REMARK  8 active torsions:
REMARK  status: ('A' for Active; 'I' for Inactive)
REMARK    1  A    between atoms: CD1_1  and  CG_2
REMARK    2  A    between atoms: CG_2  and  CD2_3
REMARK    3  A    between atoms: CG_2  and  CB_4
REMARK    4  A    between atoms: CB_4  and  CA_5
REMARK    5  A    between atoms: CA_5  and  N_6
REMARK    6  A    between atoms: CA_5  and  C_21
REMARK    7  A    between atoms: C_7  and  CA_9
REMARK    8  A    between atoms: C_21  and  OXT_23
REMARK                            x       y       z     vdW  Elec       q    Type
REMARK                         _______ _______ _______ _____ _____    ______ ____
ROOT
ATOM      1  CA  UNL     1       3.680   5.784  18.215  0.00  0.00    +0.000 A 
ATOM      2  C   UNL     1       3.205   5.389  19.463  0.00  0.00    +0.000 A 
ATOM      3  N   UNL     1       2.425   6.184  20.234  0.00  0.00    +0.000 NA
ATOM      4  C   UNL     1       2.139   7.392  19.676  0.00  0.00    +0.000 A 
ATOM      5  C   UNL     1       1.275   8.336  20.413  0.00  0.00    +0.000 A 
ATOM      6  O   UNL     1       0.814   8.110  21.525  0.00  0.00    +0.000 OA
ATOM      7  N   UNL     1       1.008   9.518  19.759  0.00  0.00    +0.000 N 
ATOM      8  C   UNL     1       1.467   9.820  18.511  0.00  0.00    +0.000 A 
ATOM      9  N   UNL     1       1.064  11.005  17.998  0.00  0.00    +0.000 N 
ATOM     10  N   UNL     1       2.242   9.029  17.840  0.00  0.00    +0.000 NA
ATOM     11  C   UNL     1       2.591   7.798  18.421  0.00  0.00    +0.000 A 
ATOM     12  N   UNL     1       3.389   7.000  17.663  0.00  0.00    +0.000 NA
ATOM     13  H   UNL     1       0.388  10.150  20.243  0.00  0.00    +0.000 HD
ATOM     14  H   UNL     1       0.853  11.765  18.631  0.00  0.00    +0.000 HD
ATOM     15  H   UNL     1       1.582  11.289  17.171  0.00  0.00    +0.000 HD
ENDROOT
BRANCH   1  17
ATOM     16  N   UNL     1       4.973   5.257  16.209  0.00  0.00    +0.000 N 
ATOM     17  C   UNL     1       4.529   4.832  17.440  0.00  0.00    +0.000 C 
ATOM     18  O   UNL     1       4.806   3.728  17.899  0.00  0.00    +0.000 OA
ATOM     19  H   UNL     1       4.719   6.196  15.894  0.00  0.00    +0.000 HD
BRANCH  16  20
ATOM     20  CA  UNL     1       5.778   4.403  15.330  0.00  0.00    +0.000 C 
BRANCH  20  21
ATOM     21  C   UNL     1       7.259   4.673  15.624  0.00  0.00    +0.000 C 
ATOM     22  O   UNL     1       7.881   4.158  16.544  0.00  0.00    +0.000 OA
BRANCH  21  23
ATOM     23  OXT UNL     1       7.840   5.561  14.781  0.00  0.00    +0.000 OA
ATOM     24  HXT UNL     1       8.459   6.185  15.208  0.00  0.00    +0.000 HD
ENDBRANCH  21  23
ENDBRANCH  20  21
BRANCH  20  25
ATOM     25  CB  UNL     1       5.429   4.671  13.854  0.00  0.00    +0.000 C 
BRANCH  25  27
ATOM     26  CD1 UNL     1       4.563   3.250  11.889  0.00  0.00    +0.000 C 
ATOM     27  CG  UNL     1       5.706   3.513  12.870  0.00  0.00    +0.000 C 
ATOM     28  CD2 UNL     1       6.989   3.793  12.078  0.00  0.00    +0.000 C 
ENDBRANCH  25  27
ENDBRANCH  20  25
ENDBRANCH  16  20
ENDBRANCH   1  17
TORSDOF 6
ENDMDL
MODEL 8
REMARK VINA RESULT:      -7.4      5.165      7.130
REMARK  Name = 
REMARK  8 active torsions:
REMARK  status: ('A' for Active; 'I' for Inactive)
REMARK    1  A    between atoms: CD1_1  and  CG_2
REMARK    2  A    between atoms: CG_2  and  CD2_3
REMARK    3  A    between atoms: CG_2  and  CB_4
REMARK    4  A    between atoms: CB_4  and  CA_5
REMARK    5  A    between atoms: CA_5  and  N_6
REMARK    6  A    between atoms: CA_5  and  C_21
REMARK    7  A    between atoms: C_7  and  CA_9
REMARK    8  A    between atoms: C_21  and  OXT_23
REMARK                            x       y       z     vdW  Elec       q    Type
REMARK                         _______ _______ _______ _____ _____    ______ ____
ROOT
ATOM      1  CA  UNL     1       2.872   7.460  18.527  0.00  0.00    +0.000 A 
ATOM      2  C   UNL     1       2.537   6.537  19.515  0.00  0.00    +0.000 A 
ATOM      3  N   UNL     1       3.213   5.377  19.690  0.00  0.00    +0.000 NA
ATOM      4  C   UNL     1       4.252   5.203  18.827  0.00  0.00    +0.000 A 
ATOM      5  C   UNL     1       5.079   3.984  18.938  0.00  0.00    +0.000 A 
ATOM      6  O   UNL     1       4.872   3.092  19.752  0.00  0.00    +0.000 OA
ATOM      7  N   UNL     1       6.129   3.907  18.050  0.00  0.00    +0.000 N 
ATOM      8  C   UNL     1       6.430   4.876  17.139  0.00  0.00    +0.000 A 
ATOM      9  N   UNL     1       7.529   4.659  16.380  0.00  0.00    +0.000 N 
ATOM     10  N   UNL     1       5.719   5.948  16.996  0.00  0.00    +0.000 NA
ATOM     11  C   UNL     1       4.612   6.123  17.845  0.00  0.00    +0.000 A 
ATOM     12  N   UNL     1       3.915   7.276  17.664  0.00  0.00    +0.000 NA
ATOM     13  H   UNL     1       6.719   3.094  18.148  0.00  0.00    +0.000 HD
ATOM     14  H   UNL     1       7.805   3.706  16.181  0.00  0.00    +0.000 HD
ATOM     15  H   UNL     1       7.605   5.285  15.584  0.00  0.00    +0.000 HD
ENDROOT
BRANCH   1  17
ATOM     16  N   UNL     1       1.476   9.172  19.575  0.00  0.00    +0.000 N 
ATOM     17  C   UNL     1       2.067   8.713  18.419  0.00  0.00    +0.000 C 
ATOM     18  O   UNL     1       1.951   9.290  17.342  0.00  0.00    +0.000 OA
ATOM     19  H   UNL     1       1.627   8.652  20.442  0.00  0.00    +0.000 HD
BRANCH  16  20
ATOM     20  CA  UNL     1       0.626  10.366  19.597  0.00  0.00    +0.000 C 
BRANCH  20  21
ATOM     21  C   UNL     1       0.808  11.060  20.953  0.00  0.00    +0.000 C 
ATOM     22  O   UNL     1       0.329  10.653  22.003  0.00  0.00    +0.000 OA
BRANCH  21  23
ATOM     23  OXT UNL     1       1.543  12.198  20.901  0.00  0.00    +0.000 OA
ATOM     24  HXT UNL     1       2.138  12.265  20.128  0.00  0.00    +0.000 HD
ENDBRANCH  21  23
ENDBRANCH  20  21
BRANCH  20  25
ATOM     25  CB  UNL     1      -0.844   9.983  19.342  0.00  0.00    +0.000 C 
BRANCH  25  27
ATOM     26  CD1 UNL     1      -2.790   9.795  17.666  0.00  0.00    +0.000 C 
ATOM     27  CG  UNL     1      -1.438  10.432  17.989  0.00  0.00    +0.000 C 
ATOM     28  CD2 UNL     1      -1.586  11.958  17.961  0.00  0.00    +0.000 C 
ENDBRANCH  25  27
ENDBRANCH  20  25
ENDBRANCH  16  20
ENDBRANCH   1  17
TORSDOF 6
ENDMDL
MODEL 9
REMARK VINA RESULT:      -7.3      2.015      2.575
REMARK  Name = 
REMARK  8 active torsions:
REMARK  status: ('A' for Active; 'I' for Inactive)
REMARK    1  A    between atoms: CD1_1  and  CG_2
REMARK    2  A    between atoms: CG_2  and  CD2_3
REMARK    3  A    between atoms: CG_2  and  CB_4
REMARK    4  A    between atoms: CB_4  and  CA_5
REMARK    5  A    between atoms: CA_5  and  N_6
REMARK    6  A    between atoms: CA_5  and  C_21
REMARK    7  A    between atoms: C_7  and  CA_9
REMARK    8  A    between atoms: C_21  and  OXT_23
REMARK                            x       y       z     vdW  Elec       q    Type
REMARK                         _______ _______ _______ _____ _____    ______ ____
ROOT
ATOM      1  CA  UNL     1       5.772   4.494  16.992  0.00  0.00    +0.000 A 
ATOM      2  C   UNL     1       6.792   5.440  16.919  0.00  0.00    +0.000 A 
ATOM      3  N   UNL     1       7.480   5.687  15.779  0.00  0.00    +0.000 NA
ATOM      4  C   UNL     1       7.076   4.942  14.713  0.00  0.00    +0.000 A 
ATOM      5  C   UNL     1       7.736   5.143  13.407  0.00  0.00    +0.000 A 
ATOM      6  O   UNL     1       8.657   5.930  13.223  0.00  0.00    +0.000 OA
ATOM      7  N   UNL     1       7.241   4.374  12.378  0.00  0.00    +0.000 N 
ATOM      8  C   UNL     1       6.202   3.501  12.509  0.00  0.00    +0.000 A 
ATOM      9  N   UNL     1       5.811   2.866  11.380  0.00  0.00    +0.000 N 
ATOM     10  N   UNL     1       5.610   3.282  13.639  0.00  0.00    +0.000 NA
ATOM     11  C   UNL     1       6.046   4.005  14.763  0.00  0.00    +0.000 A 
ATOM     12  N   UNL     1       5.374   3.749  15.917  0.00  0.00    +0.000 NA
ATOM     13  H   UNL     1       7.664   4.535  11.476  0.00  0.00    +0.000 HD
ATOM     14  H   UNL     1       6.493   2.698  10.652  0.00  0.00    +0.000 HD
ATOM     15  H   UNL     1       5.186   2.083  11.548  0.00  0.00    +0.000 HD
ENDROOT
BRANCH   1  17
ATOM     16  N   UNL     1       3.695   4.316  18.268  0.00  0.00    +0.000 N 
ATOM     17  C   UNL     1       5.071   4.299  18.295  0.00  0.00    +0.000 C 
ATOM     18  O   UNL     1       5.711   4.134  19.329  0.00  0.00    +0.000 OA
ATOM     19  H   UNL     1       3.224   4.442  17.370  0.00  0.00    +0.000 HD
BRANCH  16  20
ATOM     20  CA  UNL     1       2.887   4.179  19.484  0.00  0.00    +0.000 C 
BRANCH  20  21
ATOM     21  C   UNL     1       1.473   3.750  19.075  0.00  0.00    +0.000 C 
ATOM     22  O   UNL     1       1.086   3.673  17.916  0.00  0.00    +0.000 OA
BRANCH  21  23
ATOM     23  OXT UNL     1       0.653   3.471  20.118  0.00  0.00    +0.000 OA
ATOM     24  HXT UNL     1       0.789   2.592  20.521  0.00  0.00    +0.000 HD
ENDBRANCH  21  23
ENDBRANCH  20  21
BRANCH  20  25
ATOM     25  CB  UNL     1       2.878   5.501  20.275  0.00  0.00    +0.000 C 
BRANCH  25  27
ATOM     26  CD1 UNL     1       1.472   7.587  20.820  0.00  0.00    +0.000 C 
ATOM     27  CG  UNL     1       1.934   6.602  19.746  0.00  0.00    +0.000 C 
ATOM     28  CD2 UNL     1       2.618   7.381  18.615  0.00  0.00    +0.000 C 
ENDBRANCH  25  27
ENDBRANCH  20  25
ENDBRANCH  16  20
ENDBRANCH   1  17
TORSDOF 6
ENDMDL
