MODEL 1
REMARK VINA RESULT:      -8.6      0.000      0.000
REMARK  Name = 
REMARK  10 active torsions:
REMARK  status: ('A' for Active; 'I' for Inactive)
REMARK    1  A    between atoms: C_1  and  C_2
REMARK    2  A    between atoms: C_5  and  N_6
REMARK    3  A    between atoms: C_7  and  C_9
REMARK    4  A    between atoms: C_12  and  N_13
REMARK    5  A    between atoms: N_13  and  C_14
REMARK    6  A    between atoms: C_14  and  C_15
REMARK    7  A    between atoms: C_15  and  C_16
REMARK    8  A    between atoms: C_16  and  N_17
REMARK    9  A    between atoms: C_20  and  C_21
REMARK   10  A    between atoms: C_24  and  N_25
REMARK                            x       y       z     vdW  Elec       q    Type
REMARK                         _______ _______ _______ _____ _____    ______ ____
ROOT
ATOM      1  C   UNL     1       7.333   7.161  17.669  0.00  0.00    +0.000 A 
ATOM      2  C   UNL     1       6.756   6.421  18.699  0.00  0.00    +0.000 A 
ATOM      3  C   UNL     1       6.198   5.182  18.437  0.00  0.00    +0.000 A 
ATOM      4  C   UNL     1       6.217   4.621  17.144  0.00  0.00    +0.000 A 
ATOM      5  C   UNL     1       6.855   5.351  16.082  0.00  0.00    +0.000 A 
ATOM      6  C   UNL     1       7.376   6.625  16.379  0.00  0.00    +0.000 A 
ENDROOT
BRANCH   1   8
ATOM      7  N   UNL     1       8.802   8.734  18.885  0.00  0.00    +0.000 N 
ATOM      8  C   UNL     1       7.879   8.516  17.906  0.00  0.00    +0.000 C 
ATOM      9  O   UNL     1       7.528   9.423  17.166  0.00  0.00    +0.000 OA
ATOM     10  H   UNL     1       9.190   7.917  19.380  0.00  0.00    +0.000 HD
BRANCH   7  15
ATOM     11  C   UNL     1      11.124  13.838  20.097  0.00  0.00    +0.000 C 
ATOM     12  C   UNL     1      10.516  12.506  19.794  0.00  0.00    +0.000 A 
ATOM     13  C   UNL     1       9.821  11.807  20.786  0.00  0.00    +0.000 A 
ATOM     14  C   UNL     1       9.249  10.572  20.511  0.00  0.00    +0.000 A 
ATOM     15  C   UNL     1       9.367   9.999  19.226  0.00  0.00    +0.000 A 
ATOM     16  C   UNL     1      10.081  10.700  18.238  0.00  0.00    +0.000 A 
ATOM     17  C   UNL     1      10.646  11.943  18.513  0.00  0.00    +0.000 A 
ATOM     18  F   UNL     1      11.312  12.600  17.532  0.00  0.00    +0.000 F 
ENDBRANCH   7  15
ENDBRANCH   1   8
BRANCH   5  19
ATOM     19  N   UNL     1       6.973   4.899  14.717  0.00  0.00    +0.000 N 
ATOM     20  O   UNL     1       6.392   3.940  14.315  0.00  0.00    +0.000 OA
ATOM     21  O   UNL     1       7.761   5.539  13.879  0.00  0.00    +0.000 OA
ENDBRANCH   5  19
BRANCH   4  22
ATOM     22  N   UNL     1       5.581   3.356  16.962  0.00  0.00    +0.000 N 
ATOM     23  H   UNL     1       6.031   2.628  16.408  0.00  0.00    +0.000 HD
BRANCH  22  24
ATOM     24  C   UNL     1       4.138   3.230  17.092  0.00  0.00    +0.000 C 
BRANCH  24  25
ATOM     25  C   UNL     1       3.798   1.995  17.929  0.00  0.00    +0.000 C 
BRANCH  25  26
ATOM     26  C   UNL     1       3.614   2.347  19.403  0.00  0.00    +0.000 C 
BRANCH  26  27
ATOM     27  N   UNL     1       2.202   2.181  19.840  0.00  0.00    +0.000 NA
ATOM     28  C   UNL     1       1.196   2.888  19.012  0.00  0.00    +0.000 C 
ATOM     29  C   UNL     1       1.351   4.414  19.108  0.00  0.00    +0.000 C 
ATOM     30  C   UNL     1       1.299   4.886  20.576  0.00  0.00    +0.000 C 
ATOM     31  C   UNL     1       1.691   6.367  20.651  0.00  0.00    +0.000 C 
ATOM     32  C   UNL     1       2.240   4.060  21.476  0.00  0.00    +0.000 C 
ATOM     33  C   UNL     1       2.019   2.553  21.259  0.00  0.00    +0.000 C 
ENDBRANCH  26  27
ENDBRANCH  25  26
ENDBRANCH  24  25
ENDBRANCH  22  24
ENDBRANCH   4  22
TORSDOF 8
ENDMDL
MODEL 2
REMARK VINA RESULT:      -8.5      1.465      2.071
REMARK  Name = 
REMARK  10 active torsions:
REMARK  status: ('A' for Active; 'I' for Inactive)
REMARK    1  A    between atoms: C_1  and  C_2
REMARK    2  A    between atoms: C_5  and  N_6
REMARK    3  A    between atoms: C_7  and  C_9
REMARK    4  A    between atoms: C_12  and  N_13
REMARK    5  A    between atoms: N_13  and  C_14
REMARK    6  A    between atoms: C_14  and  C_15
REMARK    7  A    between atoms: C_15  and  C_16
REMARK    8  A    between atoms: C_16  and  N_17
REMARK    9  A    between atoms: C_20  and  C_21
REMARK   10  A    between atoms: C_24  and  N_25
REMARK                            x       y       z     vdW  Elec       q    Type
REMARK                         _______ _______ _______ _____ _____    ______ ____
ROOT
ATOM      1  C   UNL     1       8.088   7.992  18.254  0.00  0.00    +0.000 A 
ATOM      2  C   UNL     1       8.413   7.036  19.215  0.00  0.00    +0.000 A 
ATOM      3  C   UNL     1       7.918   5.748  19.110  0.00  0.00    +0.000 A 
ATOM      4  C   UNL     1       7.103   5.355  18.029  0.00  0.00    +0.000 A 
ATOM      5  C   UNL     1       6.803   6.317  17.003  0.00  0.00    +0.000 A 
ATOM      6  C   UNL     1       7.292   7.627  17.165  0.00  0.00    +0.000 A 
ENDROOT
BRANCH   1   8
ATOM      7  N   UNL     1       9.473   9.745  19.311  0.00  0.00    +0.000 N 
ATOM      8  C   UNL     1       8.550   9.393  18.373  0.00  0.00    +0.000 C 
ATOM      9  O   UNL     1       8.127  10.215  17.574  0.00  0.00    +0.000 OA
ATOM     10  H   UNL     1       9.923   8.997  19.859  0.00  0.00    +0.000 HD
BRANCH   7  15
ATOM     11  C   UNL     1      11.514  15.051  20.088  0.00  0.00    +0.000 C 
ATOM     12  C   UNL     1      10.977  13.668  19.898  0.00  0.00    +0.000 A 
ATOM     13  C   UNL     1      10.092  13.122  20.833  0.00  0.00    +0.000 A 
ATOM     14  C   UNL     1       9.584  11.840  20.660  0.00  0.00    +0.000 A 
ATOM     15  C   UNL     1       9.960  11.067  19.541  0.00  0.00    +0.000 A 
ATOM     16  C   UNL     1      10.862  11.616  18.613  0.00  0.00    +0.000 A 
ATOM     17  C   UNL     1      11.363  12.906  18.783  0.00  0.00    +0.000 A 
ATOM     18  F   UNL     1      12.217  13.411  17.860  0.00  0.00    +0.000 F 
ENDBRANCH   7  15
ENDBRANCH   1   8
BRANCH   5  19
ATOM     19  N   UNL     1       6.004   6.058  15.830  0.00  0.00    +0.000 N 
ATOM     20  O   UNL     1       6.140   5.072  15.176  0.00  0.00    +0.000 OA
ATOM     21  O   UNL     1       5.107   6.938  15.438  0.00  0.00    +0.000 OA
ENDBRANCH   5  19
BRANCH   4  22
ATOM     22  N   UNL     1       6.607   4.017  18.028  0.00  0.00    +0.000 N 
ATOM     23  H   UNL     1       6.671   3.445  17.186  0.00  0.00    +0.000 HD
BRANCH  22  24
ATOM     24  C   UNL     1       5.583   3.608  18.976  0.00  0.00    +0.000 C 
BRANCH  24  25
ATOM     25  C   UNL     1       4.447   4.633  18.988  0.00  0.00    +0.000 C 
BRANCH  25  26
ATOM     26  C   UNL     1       3.448   4.379  17.862  0.00  0.00    +0.000 C 
BRANCH  26  27
ATOM     27  N   UNL     1       2.126   5.000  18.145  0.00  0.00    +0.000 NA
ATOM     28  C   UNL     1       2.031   5.727  19.434  0.00  0.00    +0.000 C 
ATOM     29  C   UNL     1       2.169   4.777  20.634  0.00  0.00    +0.000 C 
ATOM     30  C   UNL     1       1.134   3.634  20.559  0.00  0.00    +0.000 C 
ATOM     31  C   UNL     1       1.453   2.586  21.632  0.00  0.00    +0.000 C 
ATOM     32  C   UNL     1       1.125   2.961  19.171  0.00  0.00    +0.000 C 
ATOM     33  C   UNL     1       1.027   4.015  18.054  0.00  0.00    +0.000 C 
ENDBRANCH  26  27
ENDBRANCH  25  26
ENDBRANCH  24  25
ENDBRANCH  22  24
ENDBRANCH   4  22
TORSDOF 8
ENDMDL
MODEL 3
REMARK VINA RESULT:      -8.5      0.886      1.242
REMARK  Name = 
REMARK  10 active torsions:
REMARK  status: ('A' for Active; 'I' for Inactive)
REMARK    1  A    between atoms: C_1  and  C_2
REMARK    2  A    between atoms: C_5  and  N_6
REMARK    3  A    between atoms: C_7  and  C_9
REMARK    4  A    between atoms: C_12  and  N_13
REMARK    5  A    between atoms: N_13  and  C_14
REMARK    6  A    between atoms: C_14  and  C_15
REMARK    7  A    between atoms: C_15  and  C_16
REMARK    8  A    between atoms: C_16  and  N_17
REMARK    9  A    between atoms: C_20  and  C_21
REMARK   10  A    between atoms: C_24  and  N_25
REMARK                            x       y       z     vdW  Elec       q    Type
REMARK                         _______ _______ _______ _____ _____    ______ ____
ROOT
ATOM      1  C   UNL     1       7.369   7.158  17.813  0.00  0.00    +0.000 A 
ATOM      2  C   UNL     1       6.829   6.484  18.908  0.00  0.00    +0.000 A 
ATOM      3  C   UNL     1       6.243   5.242  18.739  0.00  0.00    +0.000 A 
ATOM      4  C   UNL     1       6.196   4.611  17.480  0.00  0.00    +0.000 A 
ATOM      5  C   UNL     1       6.796   5.272  16.352  0.00  0.00    +0.000 A 
ATOM      6  C   UNL     1       7.347   6.551  16.555  0.00  0.00    +0.000 A 
ENDROOT
BRANCH   1   8
ATOM      7  N   UNL     1       8.828   8.799  18.948  0.00  0.00    +0.000 N 
ATOM      8  C   UNL     1       7.945   8.514  17.951  0.00  0.00    +0.000 C 
ATOM      9  O   UNL     1       7.655   9.357  17.114  0.00  0.00    +0.000 OA
ATOM     10  H   UNL     1       9.169   8.023  19.535  0.00  0.00    +0.000 HD
BRANCH   7  15
ATOM     11  C   UNL     1      11.143  13.917  20.116  0.00  0.00    +0.000 C 
ATOM     12  C   UNL     1      10.542  12.586  19.798  0.00  0.00    +0.000 A 
ATOM     13  C   UNL     1      10.620  12.069  18.501  0.00  0.00    +0.000 A 
ATOM     14  C   UNL     1      10.068  10.830  18.200  0.00  0.00    +0.000 A 
ATOM     15  C   UNL     1       9.414  10.077  19.198  0.00  0.00    +0.000 A 
ATOM     16  C   UNL     1       9.326  10.608  20.496  0.00  0.00    +0.000 A 
ATOM     17  C   UNL     1       9.888  11.847  20.799  0.00  0.00    +0.000 A 
ATOM     18  F   UNL     1       9.799  12.323  22.065  0.00  0.00    +0.000 F 
ENDBRANCH   7  15
ENDBRANCH   1   8
BRANCH   5  19
ATOM     19  N   UNL     1       6.846   4.744  15.010  0.00  0.00    +0.000 N 
ATOM     20  O   UNL     1       6.290   3.736  14.705  0.00  0.00    +0.000 OA
ATOM     21  O   UNL     1       7.542   5.368  14.084  0.00  0.00    +0.000 OA
ENDBRANCH   5  19
BRANCH   4  22
ATOM     22  N   UNL     1       5.535   3.348  17.396  0.00  0.00    +0.000 N 
ATOM     23  H   UNL     1       6.058   2.509  17.149  0.00  0.00    +0.000 HD
BRANCH  22  24
ATOM     24  C   UNL     1       4.104   3.280  17.152  0.00  0.00    +0.000 C 
BRANCH  24  25
ATOM     25  C   UNL     1       3.523   2.026  17.811  0.00  0.00    +0.000 C 
BRANCH  25  26
ATOM     26  C   UNL     1       3.463   2.166  19.330  0.00  0.00    +0.000 C 
BRANCH  26  27
ATOM     27  N   UNL     1       2.067   2.090  19.838  0.00  0.00    +0.000 NA
ATOM     28  C   UNL     1       1.059   2.813  19.026  0.00  0.00    +0.000 C 
ATOM     29  C   UNL     1       1.293   4.332  19.050  0.00  0.00    +0.000 C 
ATOM     30  C   UNL     1       1.334   4.865  20.497  0.00  0.00    +0.000 C 
ATOM     31  C   UNL     1       1.801   6.326  20.490  0.00  0.00    +0.000 C 
ATOM     32  C   UNL     1       2.275   4.029  21.388  0.00  0.00    +0.000 C 
ATOM     33  C   UNL     1       1.971   2.528  21.247  0.00  0.00    +0.000 C 
ENDBRANCH  26  27
ENDBRANCH  25  26
ENDBRANCH  24  25
ENDBRANCH  22  24
ENDBRANCH   4  22
TORSDOF 8
ENDMDL
MODEL 4
REMARK VINA RESULT:      -8.2      6.722     10.250
REMARK  Name = 
REMARK  10 active torsions:
REMARK  status: ('A' for Active; 'I' for Inactive)
REMARK    1  A    between atoms: C_1  and  C_2
REMARK    2  A    between atoms: C_5  and  N_6
REMARK    3  A    between atoms: C_7  and  C_9
REMARK    4  A    between atoms: C_12  and  N_13
REMARK    5  A    between atoms: N_13  and  C_14
REMARK    6  A    between atoms: C_14  and  C_15
REMARK    7  A    between atoms: C_15  and  C_16
REMARK    8  A    between atoms: C_16  and  N_17
REMARK    9  A    between atoms: C_20  and  C_21
REMARK   10  A    between atoms: C_24  and  N_25
REMARK                            x       y       z     vdW  Elec       q    Type
REMARK                         _______ _______ _______ _____ _____    ______ ____
ROOT
ATOM      1  C   UNL     1       1.520   9.007  19.733  0.00  0.00    +0.000 A 
ATOM      2  C   UNL     1       1.595  10.150  18.938  0.00  0.00    +0.000 A 
ATOM      3  C   UNL     1       1.114  11.358  19.411  0.00  0.00    +0.000 A 
ATOM      4  C   UNL     1       0.564  11.480  20.703  0.00  0.00    +0.000 A 
ATOM      5  C   UNL     1       0.527  10.321  21.552  0.00  0.00    +0.000 A 
ATOM      6  C   UNL     1       0.990   9.102  21.022  0.00  0.00    +0.000 A 
ENDROOT
BRANCH   1   8
ATOM      7  N   UNL     1       2.110   6.632  20.079  0.00  0.00    +0.000 N 
ATOM      8  C   UNL     1       1.967   7.689  19.231  0.00  0.00    +0.000 C 
ATOM      9  O   UNL     1       2.149   7.554  18.030  0.00  0.00    +0.000 OA
ATOM     10  H   UNL     1       1.794   6.742  21.054  0.00  0.00    +0.000 HD
BRANCH   7  15
ATOM     11  C   UNL     1       3.795   1.351  18.597  0.00  0.00    +0.000 C 
ATOM     12  C   UNL     1       3.369   2.731  18.986  0.00  0.00    +0.000 A 
ATOM     13  C   UNL     1       4.324   3.729  19.200  0.00  0.00    +0.000 A 
ATOM     14  C   UNL     1       3.936   5.015  19.556  0.00  0.00    +0.000 A 
ATOM     15  C   UNL     1       2.569   5.330  19.714  0.00  0.00    +0.000 A 
ATOM     16  C   UNL     1       1.614   4.319  19.512  0.00  0.00    +0.000 A 
ATOM     17  C   UNL     1       2.005   3.032  19.145  0.00  0.00    +0.000 A 
ATOM     18  F   UNL     1       1.058   2.085  18.942  0.00  0.00    +0.000 F 
ENDBRANCH   7  15
ENDBRANCH   1   8
BRANCH   5  19
ATOM     19  N   UNL     1       0.016  10.295  22.901  0.00  0.00    +0.000 N 
ATOM     20  O   UNL     1       0.417   9.525  23.716  0.00  0.00    +0.000 OA
ATOM     21  O   UNL     1      -0.941  11.126  23.257  0.00  0.00    +0.000 OA
ENDBRANCH   5  19
BRANCH   4  22
ATOM     22  N   UNL     1       0.056  12.758  21.087  0.00  0.00    +0.000 N 
ATOM     23  H   UNL     1      -0.203  12.939  22.056  0.00  0.00    +0.000 HD
BRANCH  22  24
ATOM     24  C   UNL     1      -0.575  13.627  20.106  0.00  0.00    +0.000 C 
BRANCH  24  25
ATOM     25  C   UNL     1      -2.028  13.197  19.890  0.00  0.00    +0.000 C 
BRANCH  25  26
ATOM     26  C   UNL     1      -2.199  12.432  18.580  0.00  0.00    +0.000 C 
BRANCH  26  27
ATOM     27  N   UNL     1      -2.934  11.154  18.778  0.00  0.00    +0.000 NA
ATOM     28  C   UNL     1      -2.190   9.930  18.394  0.00  0.00    +0.000 C 
ATOM     29  C   UNL     1      -1.921   9.879  16.882  0.00  0.00    +0.000 C 
ATOM     30  C   UNL     1      -3.233  10.011  16.080  0.00  0.00    +0.000 C 
ATOM     31  C   UNL     1      -2.906  10.193  14.593  0.00  0.00    +0.000 C 
ATOM     32  C   UNL     1      -4.084  11.201  16.568  0.00  0.00    +0.000 C 
ATOM     33  C   UNL     1      -4.247  11.165  18.097  0.00  0.00    +0.000 C 
ENDBRANCH  26  27
ENDBRANCH  25  26
ENDBRANCH  24  25
ENDBRANCH  22  24
ENDBRANCH   4  22
TORSDOF 8
ENDMDL
MODEL 5
REMARK VINA RESULT:      -7.8      6.661      9.501
REMARK  Name = 
REMARK  10 active torsions:
REMARK  status: ('A' for Active; 'I' for Inactive)
REMARK    1  A    between atoms: C_1  and  C_2
REMARK    2  A    between atoms: C_5  and  N_6
REMARK    3  A    between atoms: C_7  and  C_9
REMARK    4  A    between atoms: C_12  and  N_13
REMARK    5  A    between atoms: N_13  and  C_14
REMARK    6  A    between atoms: C_14  and  C_15
REMARK    7  A    between atoms: C_15  and  C_16
REMARK    8  A    between atoms: C_16  and  N_17
REMARK    9  A    between atoms: C_20  and  C_21
REMARK   10  A    between atoms: C_24  and  N_25
REMARK                            x       y       z     vdW  Elec       q    Type
REMARK                         _______ _______ _______ _____ _____    ______ ____
ROOT
ATOM      1  C   UNL     1      -0.016  10.360  21.033  0.00  0.00    +0.000 A 
ATOM      2  C   UNL     1       0.228   9.278  21.877  0.00  0.00    +0.000 A 
ATOM      3  C   UNL     1       1.041   8.239  21.458  0.00  0.00    +0.000 A 
ATOM      4  C   UNL     1       1.663   8.251  20.194  0.00  0.00    +0.000 A 
ATOM      5  C   UNL     1       1.462   9.386  19.334  0.00  0.00    +0.000 A 
ATOM      6  C   UNL     1       0.598  10.404  19.779  0.00  0.00    +0.000 A 
ENDROOT
BRANCH   1   8
ATOM      7  N   UNL     1      -1.035  11.841  22.730  0.00  0.00    +0.000 N 
ATOM      8  C   UNL     1      -0.931  11.454  21.428  0.00  0.00    +0.000 C 
ATOM      9  O   UNL     1      -1.547  12.042  20.552  0.00  0.00    +0.000 OA
ATOM     10  H   UNL     1      -0.382  11.430  23.415  0.00  0.00    +0.000 HD
BRANCH   7  15
ATOM     11  C   UNL     1      -4.428  16.025  24.703  0.00  0.00    +0.000 C 
ATOM     12  C   UNL     1      -3.553  14.925  24.193  0.00  0.00    +0.000 A 
ATOM     13  C   UNL     1      -4.037  13.616  24.122  0.00  0.00    +0.000 A 
ATOM     14  C   UNL     1      -3.232  12.589  23.644  0.00  0.00    +0.000 A 
ATOM     15  C   UNL     1      -1.909  12.853  23.229  0.00  0.00    +0.000 A 
ATOM     16  C   UNL     1      -1.422  14.169  23.317  0.00  0.00    +0.000 A 
ATOM     17  C   UNL     1      -2.235  15.199  23.788  0.00  0.00    +0.000 A 
ATOM     18  F   UNL     1      -1.741  16.460  23.844  0.00  0.00    +0.000 F 
ENDBRANCH   7  15
ENDBRANCH   1   8
BRANCH   5  19
ATOM     19  N   UNL     1       2.048   9.551  18.026  0.00  0.00    +0.000 N 
ATOM     20  O   UNL     1       2.401  10.613  17.619  0.00  0.00    +0.000 OA
ATOM     21  O   UNL     1       2.184   8.510  17.231  0.00  0.00    +0.000 OA
ENDBRANCH   5  19
BRANCH   4  22
ATOM     22  N   UNL     1       2.451   7.116  19.834  0.00  0.00    +0.000 N 
ATOM     23  H   UNL     1       3.114   7.173  19.061  0.00  0.00    +0.000 HD
BRANCH  22  24
ATOM     24  C   UNL     1       2.006   5.773  20.167  0.00  0.00    +0.000 C 
BRANCH  24  25
ATOM     25  C   UNL     1       2.711   4.754  19.270  0.00  0.00    +0.000 C 
BRANCH  25  26
ATOM     26  C   UNL     1       3.274   5.408  18.010  0.00  0.00    +0.000 C 
BRANCH  26  27
ATOM     27  N   UNL     1       4.726   5.701  18.141  0.00  0.00    +0.000 NA
ATOM     28  C   UNL     1       5.256   6.706  17.189  0.00  0.00    +0.000 C 
ATOM     29  C   UNL     1       5.191   6.205  15.737  0.00  0.00    +0.000 C 
ATOM     30  C   UNL     1       5.917   4.852  15.584  0.00  0.00    +0.000 C 
ATOM     31  C   UNL     1       5.631   4.273  14.194  0.00  0.00    +0.000 C 
ATOM     32  C   UNL     1       5.475   3.841  16.662  0.00  0.00    +0.000 C 
ATOM     33  C   UNL     1       5.544   4.472  18.064  0.00  0.00    +0.000 C 
ENDBRANCH  26  27
ENDBRANCH  25  26
ENDBRANCH  24  25
ENDBRANCH  22  24
ENDBRANCH   4  22
TORSDOF 8
ENDMDL
MODEL 6
REMARK VINA RESULT:      -7.8      1.633      1.989
REMARK  Name = 
REMARK  10 active torsions:
REMARK  status: ('A' for Active; 'I' for Inactive)
REMARK    1  A    between atoms: C_1  and  C_2
REMARK    2  A    between atoms: C_5  and  N_6
REMARK    3  A    between atoms: C_7  and  C_9
REMARK    4  A    between atoms: C_12  and  N_13
REMARK    5  A    between atoms: N_13  and  C_14
REMARK    6  A    between atoms: C_14  and  C_15
REMARK    7  A    between atoms: C_15  and  C_16
REMARK    8  A    between atoms: C_16  and  N_17
REMARK    9  A    between atoms: C_20  and  C_21
REMARK   10  A    between atoms: C_24  and  N_25
REMARK                            x       y       z     vdW  Elec       q    Type
REMARK                         _______ _______ _______ _____ _____    ______ ____
ROOT
ATOM      1  C   UNL     1       8.030   7.899  18.181  0.00  0.00    +0.000 A 
ATOM      2  C   UNL     1       8.273   6.940  19.163  0.00  0.00    +0.000 A 
ATOM      3  C   UNL     1       7.788   5.653  19.013  0.00  0.00    +0.000 A 
ATOM      4  C   UNL     1       7.064   5.264  17.868  0.00  0.00    +0.000 A 
ATOM      5  C   UNL     1       6.850   6.230  16.824  0.00  0.00    +0.000 A 
ATOM      6  C   UNL     1       7.325   7.538  17.030  0.00  0.00    +0.000 A 
ENDROOT
BRANCH   1   8
ATOM      7  N   UNL     1       9.400   9.630  19.292  0.00  0.00    +0.000 N 
ATOM      8  C   UNL     1       8.480   9.299  18.343  0.00  0.00    +0.000 C 
ATOM      9  O   UNL     1       8.053  10.142  17.568  0.00  0.00    +0.000 OA
ATOM     10  H   UNL     1       9.854   8.869  19.818  0.00  0.00    +0.000 HD
BRANCH   7  15
ATOM     11  C   UNL     1      11.234  14.925  20.523  0.00  0.00    +0.000 C 
ATOM     12  C   UNL     1      10.762  13.546  20.189  0.00  0.00    +0.000 A 
ATOM     13  C   UNL     1      11.200  12.915  19.022  0.00  0.00    +0.000 A 
ATOM     14  C   UNL     1      10.771  11.631  18.709  0.00  0.00    +0.000 A 
ATOM     15  C   UNL     1       9.878  10.948  19.562  0.00  0.00    +0.000 A 
ATOM     16  C   UNL     1       9.428  11.595  20.726  0.00  0.00    +0.000 A 
ATOM     17  C   UNL     1       9.868  12.878  21.044  0.00  0.00    +0.000 A 
ATOM     18  F   UNL     1       9.428  13.467  22.183  0.00  0.00    +0.000 F 
ENDBRANCH   7  15
ENDBRANCH   1   8
BRANCH   5  19
ATOM     19  N   UNL     1       6.150   5.975  15.588  0.00  0.00    +0.000 N 
ATOM     20  O   UNL     1       5.225   6.638  15.235  0.00  0.00    +0.000 OA
ATOM     21  O   UNL     1       6.515   4.969  14.822  0.00  0.00    +0.000 OA
ENDBRANCH   5  19
BRANCH   4  22
ATOM     22  N   UNL     1       6.568   3.926  17.821  0.00  0.00    +0.000 N 
ATOM     23  H   UNL     1       7.155   3.172  17.468  0.00  0.00    +0.000 HD
BRANCH  22  24
ATOM     24  C   UNL     1       5.138   3.670  17.772  0.00  0.00    +0.000 C 
BRANCH  24  25
ATOM     25  C   UNL     1       4.617   3.359  19.177  0.00  0.00    +0.000 C 
BRANCH  25  26
ATOM     26  C   UNL     1       3.371   2.478  19.132  0.00  0.00    +0.000 C 
BRANCH  26  27
ATOM     27  N   UNL     1       2.197   3.148  19.753  0.00  0.00    +0.000 NA
ATOM     28  C   UNL     1       1.187   3.666  18.799  0.00  0.00    +0.000 C 
ATOM     29  C   UNL     1       1.751   4.807  17.938  0.00  0.00    +0.000 C 
ATOM     30  C   UNL     1       2.320   5.939  18.819  0.00  0.00    +0.000 C 
ATOM     31  C   UNL     1       3.080   6.939  17.939  0.00  0.00    +0.000 C 
ATOM     32  C   UNL     1       3.266   5.394  19.910  0.00  0.00    +0.000 C 
ATOM     33  C   UNL     1       2.606   4.231  20.672  0.00  0.00    +0.000 C 
ENDBRANCH  26  27
ENDBRANCH  25  26
ENDBRANCH  24  25
ENDBRANCH  22  24
ENDBRANCH   4  22
TORSDOF 8
ENDMDL
MODEL 7
REMARK VINA RESULT:      -7.8      1.215      1.652
REMARK  Name = 
REMARK  10 active torsions:
REMARK  status: ('A' for Active; 'I' for Inactive)
REMARK    1  A    between atoms: C_1  and  C_2
REMARK    2  A    between atoms: C_5  and  N_6
REMARK    3  A    between atoms: C_7  and  C_9
REMARK    4  A    between atoms: C_12  and  N_13
REMARK    5  A    between atoms: N_13  and  C_14
REMARK    6  A    between atoms: C_14  and  C_15
REMARK    7  A    between atoms: C_15  and  C_16
REMARK    8  A    between atoms: C_16  and  N_17
REMARK    9  A    between atoms: C_20  and  C_21
REMARK   10  A    between atoms: C_24  and  N_25
REMARK                            x       y       z     vdW  Elec       q    Type
REMARK                         _______ _______ _______ _____ _____    ______ ____
ROOT
ATOM      1  C   UNL     1       7.503   7.317  17.906  0.00  0.00    +0.000 A 
ATOM      2  C   UNL     1       7.111   6.591  19.030  0.00  0.00    +0.000 A 
ATOM      3  C   UNL     1       6.512   5.353  18.883  0.00  0.00    +0.000 A 
ATOM      4  C   UNL     1       6.303   4.778  17.613  0.00  0.00    +0.000 A 
ATOM      5  C   UNL     1       6.748   5.493  16.448  0.00  0.00    +0.000 A 
ATOM      6  C   UNL     1       7.318   6.766  16.635  0.00  0.00    +0.000 A 
ENDROOT
BRANCH   1   8
ATOM      7  N   UNL     1       8.938   8.973  19.049  0.00  0.00    +0.000 N 
ATOM      8  C   UNL     1       8.087   8.671  18.028  0.00  0.00    +0.000 C 
ATOM      9  O   UNL     1       7.836   9.494  17.161  0.00  0.00    +0.000 OA
ATOM     10  H   UNL     1       9.250   8.209  19.667  0.00  0.00    +0.000 HD
BRANCH   7  15
ATOM     11  C   UNL     1      11.264  14.098  20.163  0.00  0.00    +0.000 C 
ATOM     12  C   UNL     1      10.661  12.764  19.859  0.00  0.00    +0.000 A 
ATOM     13  C   UNL     1      10.796  12.204  18.586  0.00  0.00    +0.000 A 
ATOM     14  C   UNL     1      10.243  10.962  18.298  0.00  0.00    +0.000 A 
ATOM     15  C   UNL     1       9.529  10.251  19.286  0.00  0.00    +0.000 A 
ATOM     16  C   UNL     1       9.383  10.827  20.560  0.00  0.00    +0.000 A 
ATOM     17  C   UNL     1       9.947  12.068  20.850  0.00  0.00    +0.000 A 
ATOM     18  F   UNL     1       9.802  12.587  22.094  0.00  0.00    +0.000 F 
ENDBRANCH   7  15
ENDBRANCH   1   8
BRANCH   5  19
ATOM     19  N   UNL     1       6.625   5.025  15.089  0.00  0.00    +0.000 N 
ATOM     20  O   UNL     1       7.410   5.320  14.243  0.00  0.00    +0.000 OA
ATOM     21  O   UNL     1       5.605   4.267  14.746  0.00  0.00    +0.000 OA
ENDBRANCH   5  19
BRANCH   4  22
ATOM     22  N   UNL     1       5.640   3.514  17.560  0.00  0.00    +0.000 N 
ATOM     23  H   UNL     1       5.339   3.128  16.666  0.00  0.00    +0.000 HD
BRANCH  22  24
ATOM     24  C   UNL     1       4.934   3.002  18.723  0.00  0.00    +0.000 C 
BRANCH  24  25
ATOM     25  C   UNL     1       3.605   2.378  18.292  0.00  0.00    +0.000 C 
BRANCH  25  26
ATOM     26  C   UNL     1       2.611   2.316  19.449  0.00  0.00    +0.000 C 
BRANCH  26  27
ATOM     27  N   UNL     1       1.333   3.002  19.116  0.00  0.00    +0.000 NA
ATOM     28  C   UNL     1       1.342   3.780  17.855  0.00  0.00    +0.000 C 
ATOM     29  C   UNL     1       2.302   4.978  17.932  0.00  0.00    +0.000 C 
ATOM     30  C   UNL     1       1.971   5.877  19.141  0.00  0.00    +0.000 C 
ATOM     31  C   UNL     1       3.083   6.917  19.323  0.00  0.00    +0.000 C 
ATOM     32  C   UNL     1       1.819   5.057  20.439  0.00  0.00    +0.000 C 
ATOM     33  C   UNL     1       0.870   3.866  20.223  0.00  0.00    +0.000 C 
ENDBRANCH  26  27
ENDBRANCH  25  26
ENDBRANCH  24  25
ENDBRANCH  22  24
ENDBRANCH   4  22
TORSDOF 8
ENDMDL
MODEL 8
REMARK VINA RESULT:      -7.8      4.787      7.587
REMARK  Name = 
REMARK  10 active torsions:
REMARK  status: ('A' for Active; 'I' for Inactive)
REMARK    1  A    between atoms: C_1  and  C_2
REMARK    2  A    between atoms: C_5  and  N_6
REMARK    3  A    between atoms: C_7  and  C_9
REMARK    4  A    between atoms: C_12  and  N_13
REMARK    5  A    between atoms: N_13  and  C_14
REMARK    6  A    between atoms: C_14  and  C_15
REMARK    7  A    between atoms: C_15  and  C_16
REMARK    8  A    between atoms: C_16  and  N_17
REMARK    9  A    between atoms: C_20  and  C_21
REMARK   10  A    between atoms: C_24  and  N_25
REMARK                            x       y       z     vdW  Elec       q    Type
REMARK                         _______ _______ _______ _____ _____    ______ ____
ROOT
ATOM      1  C   UNL     1       1.621   7.250  20.118  0.00  0.00    +0.000 A 
ATOM      2  C   UNL     1       1.984   7.209  18.773  0.00  0.00    +0.000 A 
ATOM      3  C   UNL     1       2.272   5.999  18.167  0.00  0.00    +0.000 A 
ATOM      4  C   UNL     1       2.186   4.781  18.870  0.00  0.00    +0.000 A 
ATOM      5  C   UNL     1       1.764   4.803  20.245  0.00  0.00    +0.000 A 
ATOM      6  C   UNL     1       1.516   6.056  20.837  0.00  0.00    +0.000 A 
ENDROOT
BRANCH   1   8
ATOM      7  N   UNL     1       0.880   9.608  20.129  0.00  0.00    +0.000 N 
ATOM      8  C   UNL     1       1.369   8.533  20.810  0.00  0.00    +0.000 C 
ATOM      9  O   UNL     1       1.554   8.591  22.016  0.00  0.00    +0.000 OA
ATOM     10  H   UNL     1       0.587   9.473  19.150  0.00  0.00    +0.000 HD
BRANCH   7  15
ATOM     11  C   UNL     1       0.022  14.865  22.260  0.00  0.00    +0.000 C 
ATOM     12  C   UNL     1       0.236  13.490  21.714  0.00  0.00    +0.000 A 
ATOM     13  C   UNL     1      -0.595  12.437  22.109  0.00  0.00    +0.000 A 
ATOM     14  C   UNL     1      -0.405  11.158  21.601  0.00  0.00    +0.000 A 
ATOM     15  C   UNL     1       0.636  10.900  20.683  0.00  0.00    +0.000 A 
ATOM     16  C   UNL     1       1.478  11.959  20.302  0.00  0.00    +0.000 A 
ATOM     17  C   UNL     1       1.280  13.244  20.805  0.00  0.00    +0.000 A 
ATOM     18  F   UNL     1       2.099  14.246  20.403  0.00  0.00    +0.000 F 
ENDBRANCH   7  15
ENDBRANCH   1   8
BRANCH   5  19
ATOM     19  N   UNL     1       1.607   3.641  21.084  0.00  0.00    +0.000 N 
ATOM     20  O   UNL     1       2.145   3.546  22.142  0.00  0.00    +0.000 OA
ATOM     21  O   UNL     1       0.868   2.631  20.676  0.00  0.00    +0.000 OA
ENDBRANCH   5  19
BRANCH   4  22
ATOM     22  N   UNL     1       2.543   3.587  18.172  0.00  0.00    +0.000 N 
ATOM     23  H   UNL     1       1.927   2.775  18.193  0.00  0.00    +0.000 HD
BRANCH  22  24
ATOM     24  C   UNL     1       3.935   3.300  17.865  0.00  0.00    +0.000 C 
BRANCH  24  25
ATOM     25  C   UNL     1       4.806   3.580  19.092  0.00  0.00    +0.000 C 
BRANCH  25  26
ATOM     26  C   UNL     1       5.624   4.857  18.920  0.00  0.00    +0.000 C 
BRANCH  26  27
ATOM     27  N   UNL     1       6.765   4.662  17.986  0.00  0.00    +0.000 NA
ATOM     28  C   UNL     1       8.093   5.049  18.518  0.00  0.00    +0.000 C 
ATOM     29  C   UNL     1       8.184   6.562  18.774  0.00  0.00    +0.000 C 
ATOM     30  C   UNL     1       7.836   7.362  17.501  0.00  0.00    +0.000 C 
ATOM     31  C   UNL     1       7.706   8.849  17.853  0.00  0.00    +0.000 C 
ATOM     32  C   UNL     1       6.524   6.870  16.857  0.00  0.00    +0.000 C 
ATOM     33  C   UNL     1       6.537   5.341  16.692  0.00  0.00    +0.000 C 
ENDBRANCH  26  27
ENDBRANCH  25  26
ENDBRANCH  24  25
ENDBRANCH  22  24
ENDBRANCH   4  22
TORSDOF 8
ENDMDL
MODEL 9
REMARK VINA RESULT:      -7.6      6.833     10.268
REMARK  Name = 
REMARK  10 active torsions:
REMARK  status: ('A' for Active; 'I' for Inactive)
REMARK    1  A    between atoms: C_1  and  C_2
REMARK    2  A    between atoms: C_5  and  N_6
REMARK    3  A    between atoms: C_7  and  C_9
REMARK    4  A    between atoms: C_12  and  N_13
REMARK    5  A    between atoms: N_13  and  C_14
REMARK    6  A    between atoms: C_14  and  C_15
REMARK    7  A    between atoms: C_15  and  C_16
REMARK    8  A    between atoms: C_16  and  N_17
REMARK    9  A    between atoms: C_20  and  C_21
REMARK   10  A    between atoms: C_24  and  N_25
REMARK                            x       y       z     vdW  Elec       q    Type
REMARK                         _______ _______ _______ _____ _____    ______ ____
ROOT
ATOM      1  C   UNL     1       0.925   9.590  19.072  0.00  0.00    +0.000 A 
ATOM      2  C   UNL     1       0.049  10.500  18.482  0.00  0.00    +0.000 A 
ATOM      3  C   UNL     1      -0.814  11.243  19.268  0.00  0.00    +0.000 A 
ATOM      4  C   UNL     1      -0.819  11.128  20.673  0.00  0.00    +0.000 A 
ATOM      5  C   UNL     1       0.115  10.231  21.298  0.00  0.00    +0.000 A 
ATOM      6  C   UNL     1       0.950   9.464  20.464  0.00  0.00    +0.000 A 
ENDROOT
BRANCH   1   8
ATOM      7  N   UNL     1       2.209   7.511  18.701  0.00  0.00    +0.000 N 
ATOM      8  C   UNL     1       1.815   8.736  18.254  0.00  0.00    +0.000 C 
ATOM      9  O   UNL     1       2.139   9.129  17.143  0.00  0.00    +0.000 OA
ATOM     10  H   UNL     1       1.787   7.149  19.569  0.00  0.00    +0.000 HD
BRANCH   7  15
ATOM     11  C   UNL     1       5.645   3.812  15.975  0.00  0.00    +0.000 C 
ATOM     12  C   UNL     1       4.760   4.786  16.685  0.00  0.00    +0.000 A 
ATOM     13  C   UNL     1       5.122   6.133  16.774  0.00  0.00    +0.000 A 
ATOM     14  C   UNL     1       4.302   7.045  17.427  0.00  0.00    +0.000 A 
ATOM     15  C   UNL     1       3.092   6.622  18.017  0.00  0.00    +0.000 A 
ATOM     16  C   UNL     1       2.740   5.263  17.938  0.00  0.00    +0.000 A 
ATOM     17  C   UNL     1       3.559   4.352  17.274  0.00  0.00    +0.000 A 
ATOM     18  F   UNL     1       3.182   3.052  17.201  0.00  0.00    +0.000 F 
ENDBRANCH   7  15
ENDBRANCH   1   8
BRANCH   5  19
ATOM     19  N   UNL     1       0.243  10.024  22.720  0.00  0.00    +0.000 N 
ATOM     20  O   UNL     1      -0.604  10.356  23.488  0.00  0.00    +0.000 OA
ATOM     21  O   UNL     1       1.334   9.472  23.207  0.00  0.00    +0.000 OA
ENDBRANCH   5  19
BRANCH   4  22
ATOM     22  N   UNL     1      -1.774  11.906  21.397  0.00  0.00    +0.000 N 
ATOM     23  H   UNL     1      -2.457  11.450  22.000  0.00  0.00    +0.000 HD
BRANCH  22  24
ATOM     24  C   UNL     1      -2.143  13.235  20.937  0.00  0.00    +0.000 C 
BRANCH  24  25
ATOM     25  C   UNL     1      -1.450  14.293  21.799  0.00  0.00    +0.000 C 
BRANCH  25  26
ATOM     26  C   UNL     1       0.033  13.983  21.986  0.00  0.00    +0.000 C 
BRANCH  26  27
ATOM     27  N   UNL     1       0.894  15.115  21.549  0.00  0.00    +0.000 NA
ATOM     28  C   UNL     1       0.609  15.639  20.192  0.00  0.00    +0.000 C 
ATOM     29  C   UNL     1       0.922  14.601  19.104  0.00  0.00    +0.000 C 
ATOM     30  C   UNL     1       2.377  14.100  19.216  0.00  0.00    +0.000 C 
ATOM     31  C   UNL     1       2.580  12.905  18.276  0.00  0.00    +0.000 C 
ATOM     32  C   UNL     1       2.729  13.683  20.659  0.00  0.00    +0.000 C 
ATOM     33  C   UNL     1       2.331  14.784  21.657  0.00  0.00    +0.000 C 
ENDBRANCH  26  27
ENDBRANCH  25  26
ENDBRANCH  24  25
ENDBRANCH  22  24
ENDBRANCH   4  22
TORSDOF 8
ENDMDL
