MODEL 1
REMARK VINA RESULT:      -7.4      0.000      0.000
REMARK  Name = 
REMARK  4 active torsions:
REMARK  status: ('A' for Active; 'I' for Inactive)
REMARK    1  A    between atoms: C_1  and  N_2
REMARK    2  A    between atoms: C_3  and  C_5
REMARK    3  A    between atoms: C_7  and  N_8
REMARK    4  A    between atoms: C_10  and  C_11
REMARK                            x       y       z     vdW  Elec       q    Type
REMARK                         _______ _______ _______ _____ _____    ______ ____
ROOT
ATOM      1  N   UNL     1       3.582   4.970  19.613  0.00  0.00    +0.000 N 
ATOM      2  C   UNL     1       3.439   6.234  19.120  0.00  0.00    +0.000 A 
ATOM      3  C   UNL     1       2.333   6.723  19.781  0.00  0.00    +0.000 A 
ATOM      4  N   UNL     1       1.857   5.762  20.632  0.00  0.00    +0.000 NA
ATOM      5  N   UNL     1       2.621   4.688  20.513  0.00  0.00    +0.000 NA
ENDROOT
BRANCH   3   6
ATOM      6  C   UNL     1       1.762   8.047  19.655  0.00  0.00    +0.000 A 
ATOM      7  C   UNL     1       1.815   8.755  18.446  0.00  0.00    +0.000 A 
ATOM      8  C   UNL     1       1.268  10.037  18.351  0.00  0.00    +0.000 A 
ATOM      9  C   UNL     1       0.666  10.619  19.464  0.00  0.00    +0.000 A 
ATOM     10 CL   UNL     1       0.005  12.202  19.347  0.00  0.00    +0.000 Cl
ATOM     11  C   UNL     1       0.598   9.925  20.670  0.00  0.00    +0.000 A 
ATOM     12  C   UNL     1       1.140   8.641  20.763  0.00  0.00    +0.000 A 
ENDBRANCH   3   6
BRANCH   1  15
ATOM     13  C   UNL     1       5.439   4.418  17.099  0.00  0.00    +0.000 C 
ATOM     14  C   UNL     1       5.799   4.629  18.559  0.00  0.00    +0.000 C 
ATOM     15  C   UNL     1       4.622   4.008  19.300  0.00  0.00    +0.000 C 
ATOM     16  C   UNL     1       4.124   2.903  18.359  0.00  0.00    +0.000 C 
ATOM     17  N   UNL     1       4.835   3.052  17.075  0.00  0.00    +0.000 NA
ATOM     18  H   UNL     1       4.152   3.031  16.313  0.00  0.00    +0.000 HD
BRANCH  13  21
ATOM     19  C   UNL     1       7.370   4.868  13.855  0.00  0.00    +0.000 C 
ATOM     20  N   UNL     1       6.358   4.773  14.867  0.00  0.00    +0.000 N 
ATOM     21  C   UNL     1       6.666   4.517  16.185  0.00  0.00    +0.000 C 
ATOM     22  O   UNL     1       7.814   4.399  16.603  0.00  0.00    +0.000 OA
ATOM     23  H   UNL     1       5.382   4.629  14.618  0.00  0.00    +0.000 HD
ENDBRANCH  13  21
ENDBRANCH   1  15
TORSDOF 3
ENDMDL
MODEL 2
REMARK VINA RESULT:      -7.4      0.143      1.064
REMARK  Name = 
REMARK  4 active torsions:
REMARK  status: ('A' for Active; 'I' for Inactive)
REMARK    1  A    between atoms: C_1  and  N_2
REMARK    2  A    between atoms: C_3  and  C_5
REMARK    3  A    between atoms: C_7  and  N_8
REMARK    4  A    between atoms: C_10  and  C_11
REMARK                            x       y       z     vdW  Elec       q    Type
REMARK                         _______ _______ _______ _____ _____    ______ ____
ROOT
ATOM      1  N   UNL     1       3.561   4.841  19.629  0.00  0.00    +0.000 N 
ATOM      2  C   UNL     1       3.425   6.124  19.186  0.00  0.00    +0.000 A 
ATOM      3  C   UNL     1       2.328   6.596  19.874  0.00  0.00    +0.000 A 
ATOM      4  N   UNL     1       1.851   5.607  20.692  0.00  0.00    +0.000 NA
ATOM      5  N   UNL     1       2.606   4.532  20.525  0.00  0.00    +0.000 NA
ENDROOT
BRANCH   3   6
ATOM      6  C   UNL     1       1.766   7.927  19.803  0.00  0.00    +0.000 A 
ATOM      7  C   UNL     1       1.191   8.540  20.926  0.00  0.00    +0.000 A 
ATOM      8  C   UNL     1       0.643   9.822  20.831  0.00  0.00    +0.000 A 
ATOM      9  C   UNL     1       0.666  10.498  19.614  0.00  0.00    +0.000 A 
ATOM     10 CL   UNL     1      -0.021  12.070  19.497  0.00  0.00    +0.000 Cl
ATOM     11  C   UNL     1       1.241   9.906  18.491  0.00  0.00    +0.000 A 
ATOM     12  C   UNL     1       1.794   8.628  18.587  0.00  0.00    +0.000 A 
ENDBRANCH   3   6
BRANCH   1  15
ATOM     13  C   UNL     1       5.414   4.389  17.092  0.00  0.00    +0.000 C 
ATOM     14  C   UNL     1       5.775   4.525  18.561  0.00  0.00    +0.000 C 
ATOM     15  C   UNL     1       4.591   3.883  19.270  0.00  0.00    +0.000 C 
ATOM     16  C   UNL     1       4.081   2.831  18.277  0.00  0.00    +0.000 C 
ATOM     17  N   UNL     1       4.795   3.032  17.002  0.00  0.00    +0.000 NA
ATOM     18  H   UNL     1       4.113   3.056  16.239  0.00  0.00    +0.000 HD
BRANCH  13  21
ATOM     19  C   UNL     1       7.351   4.887  13.858  0.00  0.00    +0.000 C 
ATOM     20  N   UNL     1       6.336   4.767  14.865  0.00  0.00    +0.000 N 
ATOM     21  C   UNL     1       6.643   4.518  16.184  0.00  0.00    +0.000 C 
ATOM     22  O   UNL     1       7.792   4.428  16.608  0.00  0.00    +0.000 OA
ATOM     23  H   UNL     1       5.365   4.600  14.611  0.00  0.00    +0.000 HD
ENDBRANCH  13  21
ENDBRANCH   1  15
TORSDOF 3
ENDMDL
MODEL 3
REMARK VINA RESULT:      -7.4      4.780      7.885
REMARK  Name = 
REMARK  4 active torsions:
REMARK  status: ('A' for Active; 'I' for Inactive)
REMARK    1  A    between atoms: C_1  and  N_2
REMARK    2  A    between atoms: C_3  and  C_5
REMARK    3  A    between atoms: C_7  and  N_8
REMARK    4  A    between atoms: C_10  and  C_11
REMARK                            x       y       z     vdW  Elec       q    Type
REMARK                         _______ _______ _______ _____ _____    ______ ____
ROOT
ATOM      1  N   UNL     1       1.382   8.859  19.721  0.00  0.00    +0.000 N 
ATOM      2  C   UNL     1       2.086   8.509  18.607  0.00  0.00    +0.000 A 
ATOM      3  C   UNL     1       2.557   7.246  18.897  0.00  0.00    +0.000 A 
ATOM      4  N   UNL     1       2.129   6.884  20.147  0.00  0.00    +0.000 NA
ATOM      5  N   UNL     1       1.421   7.884  20.648  0.00  0.00    +0.000 NA
ENDROOT
BRANCH   3   6
ATOM      6  C   UNL     1       3.342   6.393  18.032  0.00  0.00    +0.000 A 
ATOM      7  C   UNL     1       3.104   5.013  17.954  0.00  0.00    +0.000 A 
ATOM      8  C   UNL     1       3.884   4.206  17.121  0.00  0.00    +0.000 A 
ATOM      9  C   UNL     1       4.906   4.773  16.363  0.00  0.00    +0.000 A 
ATOM     10 CL   UNL     1       5.872   3.775  15.349  0.00  0.00    +0.000 Cl
ATOM     11  C   UNL     1       5.149   6.143  16.424  0.00  0.00    +0.000 A 
ATOM     12  C   UNL     1       4.366   6.951  17.252  0.00  0.00    +0.000 A 
ENDBRANCH   3   6
BRANCH   1  15
ATOM     13  C   UNL     1      -0.692  10.556  18.020  0.00  0.00    +0.000 C 
ATOM     14  C   UNL     1      -0.802   9.994  19.426  0.00  0.00    +0.000 C 
ATOM     15  C   UNL     1       0.626  10.078  19.947  0.00  0.00    +0.000 C 
ATOM     16  C   UNL     1       1.229  11.277  19.204  0.00  0.00    +0.000 C 
ATOM     17  N   UNL     1       0.267  11.693  18.166  0.00  0.00    +0.000 NA
ATOM     18  H   UNL     1       0.761  11.794  17.275  0.00  0.00    +0.000 HD
BRANCH  13  21
ATOM     19  C   UNL     1      -3.505  10.977  15.496  0.00  0.00    +0.000 C 
ATOM     20  N   UNL     1      -2.300  10.614  16.186  0.00  0.00    +0.000 N 
ATOM     21  C   UNL     1      -2.050  11.019  17.478  0.00  0.00    +0.000 C 
ATOM     22  O   UNL     1      -2.842  11.673  18.150  0.00  0.00    +0.000 OA
ATOM     23  H   UNL     1      -1.487  10.276  15.677  0.00  0.00    +0.000 HD
ENDBRANCH  13  21
ENDBRANCH   1  15
TORSDOF 3
ENDMDL
MODEL 4
REMARK VINA RESULT:      -7.4      4.778      7.837
REMARK  Name = 
REMARK  4 active torsions:
REMARK  status: ('A' for Active; 'I' for Inactive)
REMARK    1  A    between atoms: C_1  and  N_2
REMARK    2  A    between atoms: C_3  and  C_5
REMARK    3  A    between atoms: C_7  and  N_8
REMARK    4  A    between atoms: C_10  and  C_11
REMARK                            x       y       z     vdW  Elec       q    Type
REMARK                         _______ _______ _______ _____ _____    ______ ____
ROOT
ATOM      1  N   UNL     1       1.469   8.787  19.641  0.00  0.00    +0.000 N 
ATOM      2  C   UNL     1       2.191   8.467  18.529  0.00  0.00    +0.000 A 
ATOM      3  C   UNL     1       2.672   7.205  18.799  0.00  0.00    +0.000 A 
ATOM      4  N   UNL     1       2.233   6.811  20.035  0.00  0.00    +0.000 NA
ATOM      5  N   UNL     1       1.508   7.793  20.547  0.00  0.00    +0.000 NA
ENDROOT
BRANCH   3   6
ATOM      6  C   UNL     1       3.478   6.378  17.926  0.00  0.00    +0.000 A 
ATOM      7  C   UNL     1       4.465   6.933  17.099  0.00  0.00    +0.000 A 
ATOM      8  C   UNL     1       5.223   6.116  16.255  0.00  0.00    +0.000 A 
ATOM      9  C   UNL     1       4.997   4.742  16.232  0.00  0.00    +0.000 A 
ATOM     10 CL   UNL     1       5.923   3.742  15.183  0.00  0.00    +0.000 Cl
ATOM     11  C   UNL     1       4.026   4.175  17.054  0.00  0.00    +0.000 A 
ATOM     12  C   UNL     1       3.273   4.990  17.902  0.00  0.00    +0.000 A 
ENDBRANCH   3   6
BRANCH   1  15
ATOM     13  C   UNL     1      -0.680  10.438  17.990  0.00  0.00    +0.000 C 
ATOM     14  C   UNL     1      -0.743   9.879  19.400  0.00  0.00    +0.000 C 
ATOM     15  C   UNL     1       0.697   9.992  19.882  0.00  0.00    +0.000 C 
ATOM     16  C   UNL     1       1.257  11.199  19.119  0.00  0.00    +0.000 C 
ATOM     17  N   UNL     1       0.260  11.592  18.105  0.00  0.00    +0.000 NA
ATOM     18  H   UNL     1       0.729  11.699  17.202  0.00  0.00    +0.000 HD
BRANCH  13  21
ATOM     19  C   UNL     1      -3.495  10.959  15.487  0.00  0.00    +0.000 C 
ATOM     20  N   UNL     1      -2.276  10.597  16.150  0.00  0.00    +0.000 N 
ATOM     21  C   UNL     1      -2.061  10.873  17.482  0.00  0.00    +0.000 C 
ATOM     22  O   UNL     1      -2.898  11.399  18.210  0.00  0.00    +0.000 OA
ATOM     23  H   UNL     1      -1.439  10.369  15.618  0.00  0.00    +0.000 HD
ENDBRANCH  13  21
ENDBRANCH   1  15
TORSDOF 3
ENDMDL
MODEL 5
REMARK VINA RESULT:      -7.3      5.605      6.621
REMARK  Name = 
REMARK  4 active torsions:
REMARK  status: ('A' for Active; 'I' for Inactive)
REMARK    1  A    between atoms: C_1  and  N_2
REMARK    2  A    between atoms: C_3  and  C_5
REMARK    3  A    between atoms: C_7  and  N_8
REMARK    4  A    between atoms: C_10  and  C_11
REMARK                            x       y       z     vdW  Elec       q    Type
REMARK                         _______ _______ _______ _____ _____    ______ ____
ROOT
ATOM      1  N   UNL     1       7.769   7.098  18.011  0.00  0.00    +0.000 N 
ATOM      2  C   UNL     1       8.586   7.886  18.766  0.00  0.00    +0.000 A 
ATOM      3  C   UNL     1       8.392   9.150  18.253  0.00  0.00    +0.000 A 
ATOM      4  N   UNL     1       7.484   9.085  17.230  0.00  0.00    +0.000 NA
ATOM      5  N   UNL     1       7.118   7.822  17.082  0.00  0.00    +0.000 NA
ENDROOT
BRANCH   3   6
ATOM      6  C   UNL     1       8.999  10.378  18.719  0.00  0.00    +0.000 A 
ATOM      7  C   UNL     1       9.151  11.486  17.873  0.00  0.00    +0.000 A 
ATOM      8  C   UNL     1       9.752  12.658  18.341  0.00  0.00    +0.000 A 
ATOM      9  C   UNL     1      10.204  12.729  19.657  0.00  0.00    +0.000 A 
ATOM     10 CL   UNL     1      10.954  14.168  20.226  0.00  0.00    +0.000 Cl
ATOM     11  C   UNL     1      10.052  11.639  20.511  0.00  0.00    +0.000 A 
ATOM     12  C   UNL     1       9.447  10.470  20.045  0.00  0.00    +0.000 A 
ENDBRANCH   3   6
BRANCH   1  15
ATOM     13  C   UNL     1       5.204   5.274  18.425  0.00  0.00    +0.000 C 
ATOM     14  C   UNL     1       6.308   5.195  17.385  0.00  0.00    +0.000 C 
ATOM     15  C   UNL     1       7.537   5.671  18.148  0.00  0.00    +0.000 C 
ATOM     16  C   UNL     1       7.260   5.268  19.602  0.00  0.00    +0.000 C 
ATOM     17  N   UNL     1       5.863   4.802  19.680  0.00  0.00    +0.000 NA
ATOM     18  H   UNL     1       5.399   5.268  20.464  0.00  0.00    +0.000 HD
BRANCH  13  21
ATOM     19  C   UNL     1       3.202   2.082  17.914  0.00  0.00    +0.000 C 
ATOM     20  N   UNL     1       4.203   3.056  18.240  0.00  0.00    +0.000 N 
ATOM     21  C   UNL     1       3.998   4.405  18.049  0.00  0.00    +0.000 C 
ATOM     22  O   UNL     1       2.944   4.879  17.636  0.00  0.00    +0.000 OA
ATOM     23  H   UNL     1       5.175   2.784  18.371  0.00  0.00    +0.000 HD
ENDBRANCH  13  21
ENDBRANCH   1  15
TORSDOF 3
ENDMDL
MODEL 6
REMARK VINA RESULT:      -7.3      5.616      6.678
REMARK  Name = 
REMARK  4 active torsions:
REMARK  status: ('A' for Active; 'I' for Inactive)
REMARK    1  A    between atoms: C_1  and  N_2
REMARK    2  A    between atoms: C_3  and  C_5
REMARK    3  A    between atoms: C_7  and  N_8
REMARK    4  A    between atoms: C_10  and  C_11
REMARK                            x       y       z     vdW  Elec       q    Type
REMARK                         _______ _______ _______ _____ _____    ______ ____
ROOT
ATOM      1  N   UNL     1       7.835   7.137  18.045  0.00  0.00    +0.000 N 
ATOM      2  C   UNL     1       8.630   7.942  18.807  0.00  0.00    +0.000 A 
ATOM      3  C   UNL     1       8.428   9.199  18.280  0.00  0.00    +0.000 A 
ATOM      4  N   UNL     1       7.538   9.114  17.243  0.00  0.00    +0.000 NA
ATOM      5  N   UNL     1       7.191   7.845  17.099  0.00  0.00    +0.000 NA
ENDROOT
BRANCH   3   6
ATOM      6  C   UNL     1       9.011  10.439  18.746  0.00  0.00    +0.000 A 
ATOM      7  C   UNL     1       9.584  10.545  20.022  0.00  0.00    +0.000 A 
ATOM      8  C   UNL     1      10.130  11.756  20.455  0.00  0.00    +0.000 A 
ATOM      9  C   UNL     1      10.104  12.868  19.617  0.00  0.00    +0.000 A 
ATOM     10 CL   UNL     1      10.765  14.361  20.158  0.00  0.00    +0.000 Cl
ATOM     11  C   UNL     1       9.546  12.777  18.344  0.00  0.00    +0.000 A 
ATOM     12  C   UNL     1       9.006  11.565  17.908  0.00  0.00    +0.000 A 
ENDBRANCH   3   6
BRANCH   1  15
ATOM     13  C   UNL     1       5.286   5.284  18.423  0.00  0.00    +0.000 C 
ATOM     14  C   UNL     1       6.412   5.210  17.407  0.00  0.00    +0.000 C 
ATOM     15  C   UNL     1       7.619   5.709  18.190  0.00  0.00    +0.000 C 
ATOM     16  C   UNL     1       7.317   5.315  19.642  0.00  0.00    +0.000 C 
ATOM     17  N   UNL     1       5.925   4.831  19.696  0.00  0.00    +0.000 NA
ATOM     18  H   UNL     1       5.439   5.298  20.466  0.00  0.00    +0.000 HD
BRANCH  13  21
ATOM     19  C   UNL     1       3.328   2.063  17.921  0.00  0.00    +0.000 C 
ATOM     20  N   UNL     1       4.311   3.053  18.255  0.00  0.00    +0.000 N 
ATOM     21  C   UNL     1       4.099   4.395  18.031  0.00  0.00    +0.000 C 
ATOM     22  O   UNL     1       3.053   4.851  17.578  0.00  0.00    +0.000 OA
ATOM     23  H   UNL     1       5.280   2.793  18.420  0.00  0.00    +0.000 HD
ENDBRANCH  13  21
ENDBRANCH   1  15
TORSDOF 3
ENDMDL
MODEL 7
REMARK VINA RESULT:      -7.3      5.540      6.693
REMARK  Name = 
REMARK  4 active torsions:
REMARK  status: ('A' for Active; 'I' for Inactive)
REMARK    1  A    between atoms: C_1  and  N_2
REMARK    2  A    between atoms: C_3  and  C_5
REMARK    3  A    between atoms: C_7  and  N_8
REMARK    4  A    between atoms: C_10  and  C_11
REMARK                            x       y       z     vdW  Elec       q    Type
REMARK                         _______ _______ _______ _____ _____    ______ ____
ROOT
ATOM      1  N   UNL     1       7.251   7.280  17.522  0.00  0.00    +0.000 N 
ATOM      2  C   UNL     1       7.532   8.613  17.461  0.00  0.00    +0.000 A 
ATOM      3  C   UNL     1       8.435   8.808  18.484  0.00  0.00    +0.000 A 
ATOM      4  N   UNL     1       8.665   7.613  19.113  0.00  0.00    +0.000 NA
ATOM      5  N   UNL     1       7.926   6.686  18.524  0.00  0.00    +0.000 NA
ENDROOT
BRANCH   3   6
ATOM      6  C   UNL     1       9.088  10.049  18.841  0.00  0.00    +0.000 A 
ATOM      7  C   UNL     1       9.333  10.388  20.179  0.00  0.00    +0.000 A 
ATOM      8  C   UNL     1       9.954  11.598  20.500  0.00  0.00    +0.000 A 
ATOM      9  C   UNL     1      10.332  12.476  19.487  0.00  0.00    +0.000 A 
ATOM     10 CL   UNL     1      11.084  13.970  19.887  0.00  0.00    +0.000 Cl
ATOM     11  C   UNL     1      10.102  12.149  18.152  0.00  0.00    +0.000 A 
ATOM     12  C   UNL     1       9.487  10.937  17.830  0.00  0.00    +0.000 A 
ENDBRANCH   3   6
BRANCH   1  15
ATOM     13  C   UNL     1       5.392   4.731  17.869  0.00  0.00    +0.000 C 
ATOM     14  C   UNL     1       5.079   6.105  17.304  0.00  0.00    +0.000 C 
ATOM     15  C   UNL     1       6.388   6.513  16.642  0.00  0.00    +0.000 C 
ATOM     16  C   UNL     1       7.028   5.185  16.218  0.00  0.00    +0.000 C 
ATOM     17  N   UNL     1       6.233   4.094  16.812  0.00  0.00    +0.000 NA
ATOM     18  H   UNL     1       6.865   3.436  17.277  0.00  0.00    +0.000 HD
BRANCH  13  21
ATOM     19  C   UNL     1       3.273   1.654  18.582  0.00  0.00    +0.000 C 
ATOM     20  N   UNL     1       4.345   2.577  18.338  0.00  0.00    +0.000 N 
ATOM     21  C   UNL     1       4.119   3.923  18.152  0.00  0.00    +0.000 C 
ATOM     22  O   UNL     1       3.009   4.442  18.225  0.00  0.00    +0.000 OA
ATOM     23  H   UNL     1       5.259   2.249  18.037  0.00  0.00    +0.000 HD
ENDBRANCH  13  21
ENDBRANCH   1  15
TORSDOF 3
ENDMDL
MODEL 8
REMARK VINA RESULT:      -7.2      5.463      6.457
REMARK  Name = 
REMARK  4 active torsions:
REMARK  status: ('A' for Active; 'I' for Inactive)
REMARK    1  A    between atoms: C_1  and  N_2
REMARK    2  A    between atoms: C_3  and  C_5
REMARK    3  A    between atoms: C_7  and  N_8
REMARK    4  A    between atoms: C_10  and  C_11
REMARK                            x       y       z     vdW  Elec       q    Type
REMARK                         _______ _______ _______ _____ _____    ______ ____
ROOT
ATOM      1  N   UNL     1       7.126   7.211  17.534  0.00  0.00    +0.000 N 
ATOM      2  C   UNL     1       7.301   8.559  17.416  0.00  0.00    +0.000 A 
ATOM      3  C   UNL     1       8.278   8.848  18.344  0.00  0.00    +0.000 A 
ATOM      4  N   UNL     1       8.654   7.692  18.975  0.00  0.00    +0.000 NA
ATOM      5  N   UNL     1       7.933   6.697  18.481  0.00  0.00    +0.000 NA
ENDROOT
BRANCH   3   6
ATOM      6  C   UNL     1       8.868  10.142  18.608  0.00  0.00    +0.000 A 
ATOM      7  C   UNL     1       8.717  11.212  17.715  0.00  0.00    +0.000 A 
ATOM      8  C   UNL     1       9.307  12.450  17.985  0.00  0.00    +0.000 A 
ATOM      9  C   UNL     1      10.052  12.624  19.149  0.00  0.00    +0.000 A 
ATOM     10 CL   UNL     1      10.787  14.145  19.472  0.00  0.00    +0.000 Cl
ATOM     11  C   UNL     1      10.204  11.573  20.050  0.00  0.00    +0.000 A 
ATOM     12  C   UNL     1       9.610  10.338  19.783  0.00  0.00    +0.000 A 
ENDBRANCH   3   6
BRANCH   1  15
ATOM     13  C   UNL     1       5.598   4.483  18.075  0.00  0.00    +0.000 C 
ATOM     14  C   UNL     1       5.077   5.817  17.570  0.00  0.00    +0.000 C 
ATOM     15  C   UNL     1       6.244   6.359  16.756  0.00  0.00    +0.000 C 
ATOM     16  C   UNL     1       6.960   5.104  16.240  0.00  0.00    +0.000 C 
ATOM     17  N   UNL     1       6.362   3.936  16.913  0.00  0.00    +0.000 NA
ATOM     18  H   UNL     1       7.112   3.348  17.288  0.00  0.00    +0.000 HD
BRANCH  13  21
ATOM     19  C   UNL     1       2.393   2.465  17.724  0.00  0.00    +0.000 C 
ATOM     20  N   UNL     1       3.545   3.292  17.505  0.00  0.00    +0.000 N 
ATOM     21  C   UNL     1       4.460   3.547  18.502  0.00  0.00    +0.000 C 
ATOM     22  O   UNL     1       4.392   3.059  19.626  0.00  0.00    +0.000 OA
ATOM     23  H   UNL     1       3.593   3.921  16.707  0.00  0.00    +0.000 HD
ENDBRANCH  13  21
ENDBRANCH   1  15
TORSDOF 3
ENDMDL
MODEL 9
REMARK VINA RESULT:      -7.2      5.553      6.603
REMARK  Name = 
REMARK  4 active torsions:
REMARK  status: ('A' for Active; 'I' for Inactive)
REMARK    1  A    between atoms: C_1  and  N_2
REMARK    2  A    between atoms: C_3  and  C_5
REMARK    3  A    between atoms: C_7  and  N_8
REMARK    4  A    between atoms: C_10  and  C_11
REMARK                            x       y       z     vdW  Elec       q    Type
REMARK                         _______ _______ _______ _____ _____    ______ ____
ROOT
ATOM      1  N   UNL     1       7.233   7.262  17.546  0.00  0.00    +0.000 N 
ATOM      2  C   UNL     1       7.431   8.606  17.424  0.00  0.00    +0.000 A 
ATOM      3  C   UNL     1       8.364   8.892  18.397  0.00  0.00    +0.000 A 
ATOM      4  N   UNL     1       8.692   7.739  19.058  0.00  0.00    +0.000 NA
ATOM      5  N   UNL     1       7.984   6.748  18.538  0.00  0.00    +0.000 NA
ENDROOT
BRANCH   3   6
ATOM      6  C   UNL     1       8.956  10.182  18.678  0.00  0.00    +0.000 A 
ATOM      7  C   UNL     1       9.691  10.410  19.850  0.00  0.00    +0.000 A 
ATOM      8  C   UNL     1      10.244  11.667  20.107  0.00  0.00    +0.000 A 
ATOM      9  C   UNL     1      10.065  12.704  19.194  0.00  0.00    +0.000 A 
ATOM     10 CL   UNL     1      10.735  14.254  19.520  0.00  0.00    +0.000 Cl
ATOM     11  C   UNL     1       9.344  12.491  18.021  0.00  0.00    +0.000 A 
ATOM     12  C   UNL     1       8.796  11.233  17.762  0.00  0.00    +0.000 A 
ENDBRANCH   3   6
BRANCH   1  15
ATOM     13  C   UNL     1       5.242   4.862  18.140  0.00  0.00    +0.000 C 
ATOM     14  C   UNL     1       5.022   6.154  17.373  0.00  0.00    +0.000 C 
ATOM     15  C   UNL     1       6.380   6.413  16.734  0.00  0.00    +0.000 C 
ATOM     16  C   UNL     1       6.978   5.014  16.536  0.00  0.00    +0.000 C 
ATOM     17  N   UNL     1       6.104   4.050  17.231  0.00  0.00    +0.000 NA
ATOM     18  H   UNL     1       6.681   3.441  17.817  0.00  0.00    +0.000 HD
BRANCH  13  21
ATOM     19  C   UNL     1       1.529   4.078  17.894  0.00  0.00    +0.000 C 
ATOM     20  N   UNL     1       2.854   4.599  17.713  0.00  0.00    +0.000 N 
ATOM     21  C   UNL     1       3.921   4.153  18.462  0.00  0.00    +0.000 C 
ATOM     22  O   UNL     1       3.837   3.257  19.297  0.00  0.00    +0.000 OA
ATOM     23  H   UNL     1       3.008   5.479  17.227  0.00  0.00    +0.000 HD
ENDBRANCH  13  21
ENDBRANCH   1  15
TORSDOF 3
ENDMDL
