MODEL 1
REMARK VINA RESULT:      -6.7      0.000      0.000
REMARK  Name = 
REMARK  20 active torsions:
REMARK  status: ('A' for Active; 'I' for Inactive)
REMARK    1  A    between atoms: C_1  and  C_2
REMARK    2  A    between atoms: C_2  and  C_3
REMARK    3  A    between atoms: C_3  and  C_4
REMARK    4  A    between atoms: C_4  and  C_5
REMARK    5  A    between atoms: C_5  and  C_6
REMARK    6  A    between atoms: C_6  and  C_7
REMARK    7  A    between atoms: C_7  and  C_8
REMARK    8  A    between atoms: C_8  and  C_9
REMARK    9  A    between atoms: C_9  and  C_10
REMARK   10  A    between atoms: C_10  and  C_11
REMARK   11  A    between atoms: C_11  and  C_12
REMARK   12  A    between atoms: C_12  and  C_14
REMARK   13  A    between atoms: C_15  and  C_16
REMARK   14  A    between atoms: C_17  and  C_18
REMARK   15  A    between atoms: C_18  and  C_19
REMARK   16  A    between atoms: C_19  and  C_20
REMARK   17  A    between atoms: C_20  and  O_22
REMARK   18  A    between atoms: N_23  and  C_24
REMARK   19  A    between atoms: C_24  and  C_25
REMARK   20  A    between atoms: C_32  and  C_33
REMARK                            x       y       z     vdW  Elec       q    Type
REMARK                         _______ _______ _______ _____ _____    ______ ____
ROOT
ATOM      1  C   UNL     1       5.095   4.785  18.064  0.00  0.00    +0.000 A 
ATOM      2  C   UNL     1       4.015   3.873  18.386  0.00  0.00    +0.000 A 
ATOM      3  C   UNL     1       4.203   2.425  18.706  0.00  0.00    +0.000 C 
ATOM      4  C   UNL     1       2.792   4.585  18.380  0.00  0.00    +0.000 A 
ATOM      5  N   UNL     1       3.116   5.909  18.001  0.00  0.00    +0.000 N 
ATOM      6  C   UNL     1       4.497   6.026  17.875  0.00  0.00    +0.000 A 
ATOM      7  C   UNL     1       5.222   7.293  17.552  0.00  0.00    +0.000 C 
ENDROOT
BRANCH   1   8
ATOM      8  C   UNL     1       6.587   4.580  17.940  0.00  0.00    +0.000 C 
ATOM      9  O   UNL     1       7.311   4.652  18.942  0.00  0.00    +0.000 OA
BRANCH   8  10
ATOM     10  C   UNL     1       7.218   4.304  16.575  0.00  0.00    +0.000 C 
BRANCH  10  11
ATOM     11  C   UNL     1       6.288   3.724  15.522  0.00  0.00    +0.000 C 
BRANCH  11  12
ATOM     12  C   UNL     1       6.140   4.670  14.323  0.00  0.00    +0.000 C 
BRANCH  12  13
ATOM     13  C   UNL     1       7.425   5.465  14.127  0.00  0.00    +0.000 C 
BRANCH  13  14
ATOM     14  C   UNL     1       8.039   5.182  12.763  0.00  0.00    +0.000 C 
BRANCH  14  15
ATOM     15  C   UNL     1       7.069   4.380  11.908  0.00  0.00    +0.000 C 
BRANCH  15  16
ATOM     16  C   UNL     1       7.515   2.929  11.824  0.00  0.00    +0.000 C 
BRANCH  16  17
ATOM     17  C   UNL     1       6.585   2.138  10.919  0.00  0.00    +0.000 C 
BRANCH  17  18
ATOM     18  C   UNL     1       5.214   1.995  11.561  0.00  0.00    +0.000 C 
BRANCH  18  20
ATOM     19  C   UNL     1       3.278   3.176  10.521  0.00  0.00    +0.000 C 
ATOM     20  C   UNL     1       4.448   3.309  11.475  0.00  0.00    +0.000 C 
ENDBRANCH  18  20
ENDBRANCH  17  18
ENDBRANCH  16  17
ENDBRANCH  15  16
ENDBRANCH  14  15
ENDBRANCH  13  14
ENDBRANCH  12  13
ENDBRANCH  11  12
ENDBRANCH  10  11
ENDBRANCH   8  10
ENDBRANCH   1   8
BRANCH   5  21
ATOM     21  C   UNL     1       2.147   7.005  17.730  0.00  0.00    +0.000 C 
BRANCH  21  22
ATOM     22  C   UNL     1       1.915   8.035  18.814  0.00  0.00    +0.000 A 
ATOM     23  C   UNL     1       1.914   7.667  20.160  0.00  0.00    +0.000 A 
ATOM     24  C   UNL     1       1.298   8.492  21.094  0.00  0.00    +0.000 A 
ATOM     25  C   UNL     1       0.784   9.730  20.705  0.00  0.00    +0.000 A 
ATOM     26 CL   UNL     1      -0.092  10.678  21.843  0.00  0.00    +0.000 Cl
ATOM     27  C   UNL     1       0.886  10.162  19.384  0.00  0.00    +0.000 A 
ATOM     28  C   UNL     1       1.457   9.320  18.433  0.00  0.00    +0.000 A 
ENDBRANCH  21  22
ENDBRANCH   5  21
BRANCH   4  29
ATOM     29  C   UNL     1       1.334   4.141  18.725  0.00  0.00    +0.000 C 
BRANCH  29  30
ATOM     30  C   UNL     1       0.929   4.217  20.212  0.00  0.00    +0.000 C 
BRANCH  30  31
ATOM     31  C   UNL     1       1.884   3.653  21.245  0.00  0.00    +0.000 C 
ATOM     32  O   UNL     1       1.985   2.511  21.555  0.00  0.00    +0.000 OA
BRANCH  31  33
ATOM     33  O   UNL     1       2.639   4.659  21.797  0.00  0.00    +0.000 OA
ATOM     34  H   UNL     1       2.136   5.457  22.037  0.00  0.00    +0.000 HD
ENDBRANCH  31  33
ENDBRANCH  30  31
ENDBRANCH  29  30
ENDBRANCH   4  29
TORSDOF 17
ENDMDL
MODEL 2
REMARK VINA RESULT:      -6.6      3.493      6.397
REMARK  Name = 
REMARK  20 active torsions:
REMARK  status: ('A' for Active; 'I' for Inactive)
REMARK    1  A    between atoms: C_1  and  C_2
REMARK    2  A    between atoms: C_2  and  C_3
REMARK    3  A    between atoms: C_3  and  C_4
REMARK    4  A    between atoms: C_4  and  C_5
REMARK    5  A    between atoms: C_5  and  C_6
REMARK    6  A    between atoms: C_6  and  C_7
REMARK    7  A    between atoms: C_7  and  C_8
REMARK    8  A    between atoms: C_8  and  C_9
REMARK    9  A    between atoms: C_9  and  C_10
REMARK   10  A    between atoms: C_10  and  C_11
REMARK   11  A    between atoms: C_11  and  C_12
REMARK   12  A    between atoms: C_12  and  C_14
REMARK   13  A    between atoms: C_15  and  C_16
REMARK   14  A    between atoms: C_17  and  C_18
REMARK   15  A    between atoms: C_18  and  C_19
REMARK   16  A    between atoms: C_19  and  C_20
REMARK   17  A    between atoms: C_20  and  O_22
REMARK   18  A    between atoms: N_23  and  C_24
REMARK   19  A    between atoms: C_24  and  C_25
REMARK   20  A    between atoms: C_32  and  C_33
REMARK                            x       y       z     vdW  Elec       q    Type
REMARK                         _______ _______ _______ _____ _____    ______ ____
ROOT
ATOM      1  C   UNL     1       5.030   4.927  18.054  0.00  0.00    +0.000 A 
ATOM      2  C   UNL     1       4.334   4.221  19.111  0.00  0.00    +0.000 A 
ATOM      3  C   UNL     1       4.879   3.028  19.827  0.00  0.00    +0.000 C 
ATOM      4  C   UNL     1       3.099   4.865  19.360  0.00  0.00    +0.000 A 
ATOM      5  N   UNL     1       3.016   5.922  18.423  0.00  0.00    +0.000 N 
ATOM      6  C   UNL     1       4.199   5.983  17.694  0.00  0.00    +0.000 A 
ATOM      7  C   UNL     1       4.512   7.013  16.656  0.00  0.00    +0.000 C 
ENDROOT
BRANCH   1   8
ATOM      8  C   UNL     1       6.371   4.695  17.396  0.00  0.00    +0.000 C 
ATOM      9  O   UNL     1       6.429   4.287  16.228  0.00  0.00    +0.000 OA
BRANCH   8  10
ATOM     10  C   UNL     1       7.665   4.940  18.172  0.00  0.00    +0.000 C 
BRANCH  10  11
ATOM     11  C   UNL     1       7.804   6.313  18.808  0.00  0.00    +0.000 C 
BRANCH  11  12
ATOM     12  C   UNL     1       7.343   7.422  17.854  0.00  0.00    +0.000 C 
BRANCH  12  13
ATOM     13  C   UNL     1       8.513   8.337  17.516  0.00  0.00    +0.000 C 
BRANCH  13  14
ATOM     14  C   UNL     1       8.289   9.738  18.066  0.00  0.00    +0.000 C 
BRANCH  14  15
ATOM     15  C   UNL     1       9.215   9.993  19.246  0.00  0.00    +0.000 C 
BRANCH  15  16
ATOM     16  C   UNL     1       9.361  11.488  19.487  0.00  0.00    +0.000 C 
BRANCH  16  17
ATOM     17  C   UNL     1      10.241  11.746  20.700  0.00  0.00    +0.000 C 
BRANCH  17  18
ATOM     18  C   UNL     1       9.532  12.662  21.685  0.00  0.00    +0.000 C 
BRANCH  18  20
ATOM     19  C   UNL     1       8.375  12.575  23.894  0.00  0.00    +0.000 C 
ATOM     20  C   UNL     1       8.595  11.857  22.577  0.00  0.00    +0.000 C 
ENDBRANCH  18  20
ENDBRANCH  17  18
ENDBRANCH  16  17
ENDBRANCH  15  16
ENDBRANCH  14  15
ENDBRANCH  13  14
ENDBRANCH  12  13
ENDBRANCH  11  12
ENDBRANCH  10  11
ENDBRANCH   8  10
ENDBRANCH   1   8
BRANCH   5  21
ATOM     21  C   UNL     1       1.842   6.811  18.206  0.00  0.00    +0.000 C 
BRANCH  21  22
ATOM     22  C   UNL     1       1.767   8.097  18.999  0.00  0.00    +0.000 A 
ATOM     23  C   UNL     1       1.590   8.074  20.382  0.00  0.00    +0.000 A 
ATOM     24  C   UNL     1       1.107   9.206  21.029  0.00  0.00    +0.000 A 
ATOM     25  C   UNL     1       0.905  10.388  20.317  0.00  0.00    +0.000 A 
ATOM     26 CL   UNL     1       0.181  11.737  21.103  0.00  0.00    +0.000 Cl
ATOM     27  C   UNL     1       1.192  10.459  18.955  0.00  0.00    +0.000 A 
ATOM     28  C   UNL     1       1.629   9.316  18.289  0.00  0.00    +0.000 A 
ENDBRANCH  21  22
ENDBRANCH   5  21
BRANCH   4  29
ATOM     29  C   UNL     1       1.986   4.594  20.424  0.00  0.00    +0.000 C 
BRANCH  29  30
ATOM     30  C   UNL     1       0.955   3.501  20.071  0.00  0.00    +0.000 C 
BRANCH  30  31
ATOM     31  C   UNL     1       1.042   2.846  18.707  0.00  0.00    +0.000 C 
ATOM     32  O   UNL     1       0.851   3.378  17.662  0.00  0.00    +0.000 OA
BRANCH  31  33
ATOM     33  O   UNL     1       1.377   1.520  18.834  0.00  0.00    +0.000 OA
ATOM     34  H   UNL     1       0.670   0.899  18.589  0.00  0.00    +0.000 HD
ENDBRANCH  31  33
ENDBRANCH  30  31
ENDBRANCH  29  30
ENDBRANCH   4  29
TORSDOF 17
ENDMDL
MODEL 3
REMARK VINA RESULT:      -6.4      4.572      7.890
REMARK  Name = 
REMARK  20 active torsions:
REMARK  status: ('A' for Active; 'I' for Inactive)
REMARK    1  A    between atoms: C_1  and  C_2
REMARK    2  A    between atoms: C_2  and  C_3
REMARK    3  A    between atoms: C_3  and  C_4
REMARK    4  A    between atoms: C_4  and  C_5
REMARK    5  A    between atoms: C_5  and  C_6
REMARK    6  A    between atoms: C_6  and  C_7
REMARK    7  A    between atoms: C_7  and  C_8
REMARK    8  A    between atoms: C_8  and  C_9
REMARK    9  A    between atoms: C_9  and  C_10
REMARK   10  A    between atoms: C_10  and  C_11
REMARK   11  A    between atoms: C_11  and  C_12
REMARK   12  A    between atoms: C_12  and  C_14
REMARK   13  A    between atoms: C_15  and  C_16
REMARK   14  A    between atoms: C_17  and  C_18
REMARK   15  A    between atoms: C_18  and  C_19
REMARK   16  A    between atoms: C_19  and  C_20
REMARK   17  A    between atoms: C_20  and  O_22
REMARK   18  A    between atoms: N_23  and  C_24
REMARK   19  A    between atoms: C_24  and  C_25
REMARK   20  A    between atoms: C_32  and  C_33
REMARK                            x       y       z     vdW  Elec       q    Type
REMARK                         _______ _______ _______ _____ _____    ______ ____
ROOT
ATOM      1  C   UNL     1       0.345   9.532  20.803  0.00  0.00    +0.000 A 
ATOM      2  C   UNL     1      -0.152  10.102  22.040  0.00  0.00    +0.000 A 
ATOM      3  C   UNL     1       0.074   9.507  23.391  0.00  0.00    +0.000 C 
ATOM      4  C   UNL     1      -0.837  11.307  21.750  0.00  0.00    +0.000 A 
ATOM      5  N   UNL     1      -0.809  11.441  20.341  0.00  0.00    +0.000 N 
ATOM      6  C   UNL     1      -0.049  10.409  19.798  0.00  0.00    +0.000 A 
ATOM      7  C   UNL     1       0.264  10.253  18.344  0.00  0.00    +0.000 C 
ENDROOT
BRANCH   1   8
ATOM      8  C   UNL     1       1.142   8.281  20.516  0.00  0.00    +0.000 C 
ATOM      9  O   UNL     1       0.929   7.245  21.162  0.00  0.00    +0.000 OA
BRANCH   8  10
ATOM     10  C   UNL     1       2.231   8.287  19.443  0.00  0.00    +0.000 C 
BRANCH  10  11
ATOM     11  C   UNL     1       2.481   6.960  18.746  0.00  0.00    +0.000 C 
BRANCH  11  12
ATOM     12  C   UNL     1       3.579   7.083  17.683  0.00  0.00    +0.000 C 
BRANCH  12  13
ATOM     13  C   UNL     1       4.191   5.715  17.407  0.00  0.00    +0.000 C 
BRANCH  13  14
ATOM     14  C   UNL     1       4.748   5.099  18.683  0.00  0.00    +0.000 C 
BRANCH  14  15
ATOM     15  C   UNL     1       4.363   3.630  18.767  0.00  0.00    +0.000 C 
BRANCH  15  16
ATOM     16  C   UNL     1       3.792   3.157  17.439  0.00  0.00    +0.000 C 
BRANCH  16  17
ATOM     17  C   UNL     1       2.507   2.375  17.660  0.00  0.00    +0.000 C 
BRANCH  17  18
ATOM     18  C   UNL     1       2.253   2.183  19.147  0.00  0.00    +0.000 C 
BRANCH  18  20
ATOM     19  C   UNL     1       0.915   3.977  20.251  0.00  0.00    +0.000 C 
ATOM     20  C   UNL     1       0.851   2.656  19.510  0.00  0.00    +0.000 C 
ENDBRANCH  18  20
ENDBRANCH  17  18
ENDBRANCH  16  17
ENDBRANCH  15  16
ENDBRANCH  14  15
ENDBRANCH  13  14
ENDBRANCH  12  13
ENDBRANCH  11  12
ENDBRANCH  10  11
ENDBRANCH   8  10
ENDBRANCH   1   8
BRANCH   5  21
ATOM     21  C   UNL     1      -1.509  12.485  19.546  0.00  0.00    +0.000 C 
BRANCH  21  22
ATOM     22  C   UNL     1      -2.945  12.230  19.144  0.00  0.00    +0.000 A 
ATOM     23  C   UNL     1      -3.999  12.646  19.958  0.00  0.00    +0.000 A 
ATOM     24  C   UNL     1      -5.249  12.057  19.812  0.00  0.00    +0.000 A 
ATOM     25  C   UNL     1      -5.475  11.137  18.788  0.00  0.00    +0.000 A 
ATOM     26 CL   UNL     1      -6.987  10.317  18.704  0.00  0.00    +0.000 Cl
ATOM     27  C   UNL     1      -4.462  10.802  17.892  0.00  0.00    +0.000 A 
ATOM     28  C   UNL     1      -3.193  11.351  18.061  0.00  0.00    +0.000 A 
ENDBRANCH  21  22
ENDBRANCH   5  21
BRANCH   4  29
ATOM     29  C   UNL     1      -1.503  12.369  22.683  0.00  0.00    +0.000 C 
BRANCH  29  30
ATOM     30  C   UNL     1      -2.760  11.910  23.453  0.00  0.00    +0.000 C 
BRANCH  30  31
ATOM     31  C   UNL     1      -3.779  12.959  23.852  0.00  0.00    +0.000 C 
ATOM     32  O   UNL     1      -3.555  13.958  24.454  0.00  0.00    +0.000 OA
BRANCH  31  33
ATOM     33  O   UNL     1      -5.031  12.596  23.420  0.00  0.00    +0.000 OA
ATOM     34  H   UNL     1      -5.231  11.648  23.509  0.00  0.00    +0.000 HD
ENDBRANCH  31  33
ENDBRANCH  30  31
ENDBRANCH  29  30
ENDBRANCH   4  29
TORSDOF 17
ENDMDL
MODEL 4
REMARK VINA RESULT:      -6.3      3.621      8.713
REMARK  Name = 
REMARK  20 active torsions:
REMARK  status: ('A' for Active; 'I' for Inactive)
REMARK    1  A    between atoms: C_1  and  C_2
REMARK    2  A    between atoms: C_2  and  C_3
REMARK    3  A    between atoms: C_3  and  C_4
REMARK    4  A    between atoms: C_4  and  C_5
REMARK    5  A    between atoms: C_5  and  C_6
REMARK    6  A    between atoms: C_6  and  C_7
REMARK    7  A    between atoms: C_7  and  C_8
REMARK    8  A    between atoms: C_8  and  C_9
REMARK    9  A    between atoms: C_9  and  C_10
REMARK   10  A    between atoms: C_10  and  C_11
REMARK   11  A    between atoms: C_11  and  C_12
REMARK   12  A    between atoms: C_12  and  C_14
REMARK   13  A    between atoms: C_15  and  C_16
REMARK   14  A    between atoms: C_17  and  C_18
REMARK   15  A    between atoms: C_18  and  C_19
REMARK   16  A    between atoms: C_19  and  C_20
REMARK   17  A    between atoms: C_20  and  O_22
REMARK   18  A    between atoms: N_23  and  C_24
REMARK   19  A    between atoms: C_24  and  C_25
REMARK   20  A    between atoms: C_32  and  C_33
REMARK                            x       y       z     vdW  Elec       q    Type
REMARK                         _______ _______ _______ _____ _____    ______ ____
ROOT
ATOM      1  C   UNL     1       2.932   6.332  18.384  0.00  0.00    +0.000 A 
ATOM      2  C   UNL     1       2.477   4.961  18.507  0.00  0.00    +0.000 A 
ATOM      3  C   UNL     1       1.174   4.559  19.118  0.00  0.00    +0.000 C 
ATOM      4  C   UNL     1       3.442   4.101  17.929  0.00  0.00    +0.000 A 
ATOM      5  N   UNL     1       4.504   4.936  17.508  0.00  0.00    +0.000 N 
ATOM      6  C   UNL     1       4.159   6.265  17.731  0.00  0.00    +0.000 A 
ATOM      7  C   UNL     1       5.000   7.442  17.352  0.00  0.00    +0.000 C 
ENDROOT
BRANCH   1   8
ATOM      8  C   UNL     1       2.314   7.644  18.808  0.00  0.00    +0.000 C 
ATOM      9  O   UNL     1       2.097   7.871  20.006  0.00  0.00    +0.000 OA
BRANCH   8  10
ATOM     10  C   UNL     1       1.931   8.692  17.762  0.00  0.00    +0.000 C 
BRANCH  10  11
ATOM     11  C   UNL     1       0.685   9.506  18.068  0.00  0.00    +0.000 C 
BRANCH  11  12
ATOM     12  C   UNL     1       1.040  10.868  18.677  0.00  0.00    +0.000 C 
BRANCH  12  13
ATOM     13  C   UNL     1      -0.176  11.785  18.643  0.00  0.00    +0.000 C 
BRANCH  13  14
ATOM     14  C   UNL     1      -1.419  11.062  19.141  0.00  0.00    +0.000 C 
BRANCH  14  15
ATOM     15  C   UNL     1      -2.417  12.062  19.706  0.00  0.00    +0.000 C 
BRANCH  15  16
ATOM     16  C   UNL     1      -3.704  12.039  18.895  0.00  0.00    +0.000 C 
BRANCH  16  17
ATOM     17  C   UNL     1      -3.777  10.776  18.051  0.00  0.00    +0.000 C 
BRANCH  17  18
ATOM     18  C   UNL     1      -4.348  11.089  16.677  0.00  0.00    +0.000 C 
BRANCH  18  20
ATOM     19  C   UNL     1      -2.495   9.776  15.643  0.00  0.00    +0.000 C 
ATOM     20  C   UNL     1      -3.240  11.096  15.632  0.00  0.00    +0.000 C 
ENDBRANCH  18  20
ENDBRANCH  17  18
ENDBRANCH  16  17
ENDBRANCH  15  16
ENDBRANCH  14  15
ENDBRANCH  13  14
ENDBRANCH  12  13
ENDBRANCH  11  12
ENDBRANCH  10  11
ENDBRANCH   8  10
ENDBRANCH   1   8
BRANCH   5  21
ATOM     21  C   UNL     1       5.808   4.482  16.954  0.00  0.00    +0.000 C 
BRANCH  21  22
ATOM     22  C   UNL     1       6.014   4.567  15.457  0.00  0.00    +0.000 A 
ATOM     23  C   UNL     1       5.123   3.953  14.578  0.00  0.00    +0.000 A 
ATOM     24  C   UNL     1       5.529   3.674  13.277  0.00  0.00    +0.000 A 
ATOM     25  C   UNL     1       6.777   4.103  12.825  0.00  0.00    +0.000 A 
ATOM     26 CL   UNL     1       7.318   3.633  11.260  0.00  0.00    +0.000 Cl
ATOM     27  C   UNL     1       7.630   4.824  13.659  0.00  0.00    +0.000 A 
ATOM     28  C   UNL     1       7.251   5.065  14.978  0.00  0.00    +0.000 A 
ENDBRANCH  21  22
ENDBRANCH   5  21
BRANCH   4  29
ATOM     29  C   UNL     1       3.449   2.553  17.710  0.00  0.00    +0.000 C 
BRANCH  29  30
ATOM     30  C   UNL     1       3.269   1.684  18.972  0.00  0.00    +0.000 C 
BRANCH  30  31
ATOM     31  C   UNL     1       4.017   2.081  20.230  0.00  0.00    +0.000 C 
ATOM     32  O   UNL     1       5.193   2.030  20.389  0.00  0.00    +0.000 OA
BRANCH  31  33
ATOM     33  O   UNL     1       3.137   2.517  21.190  0.00  0.00    +0.000 OA
ATOM     34  H   UNL     1       3.407   2.321  22.104  0.00  0.00    +0.000 HD
ENDBRANCH  31  33
ENDBRANCH  30  31
ENDBRANCH  29  30
ENDBRANCH   4  29
TORSDOF 17
ENDMDL
MODEL 5
REMARK VINA RESULT:      -6.3      3.866      6.329
REMARK  Name = 
REMARK  20 active torsions:
REMARK  status: ('A' for Active; 'I' for Inactive)
REMARK    1  A    between atoms: C_1  and  C_2
REMARK    2  A    between atoms: C_2  and  C_3
REMARK    3  A    between atoms: C_3  and  C_4
REMARK    4  A    between atoms: C_4  and  C_5
REMARK    5  A    between atoms: C_5  and  C_6
REMARK    6  A    between atoms: C_6  and  C_7
REMARK    7  A    between atoms: C_7  and  C_8
REMARK    8  A    between atoms: C_8  and  C_9
REMARK    9  A    between atoms: C_9  and  C_10
REMARK   10  A    between atoms: C_10  and  C_11
REMARK   11  A    between atoms: C_11  and  C_12
REMARK   12  A    between atoms: C_12  and  C_14
REMARK   13  A    between atoms: C_15  and  C_16
REMARK   14  A    between atoms: C_17  and  C_18
REMARK   15  A    between atoms: C_18  and  C_19
REMARK   16  A    between atoms: C_19  and  C_20
REMARK   17  A    between atoms: C_20  and  O_22
REMARK   18  A    between atoms: N_23  and  C_24
REMARK   19  A    between atoms: C_24  and  C_25
REMARK   20  A    between atoms: C_32  and  C_33
REMARK                            x       y       z     vdW  Elec       q    Type
REMARK                         _______ _______ _______ _____ _____    ______ ____
ROOT
ATOM      1  C   UNL     1       2.406   6.279  18.790  0.00  0.00    +0.000 A 
ATOM      2  C   UNL     1       1.850   6.614  20.086  0.00  0.00    +0.000 A 
ATOM      3  C   UNL     1       1.462   5.608  21.121  0.00  0.00    +0.000 C 
ATOM      4  C   UNL     1       1.778   8.022  20.207  0.00  0.00    +0.000 A 
ATOM      5  N   UNL     1       2.232   8.542  18.972  0.00  0.00    +0.000 N 
ATOM      6  C   UNL     1       2.659   7.494  18.162  0.00  0.00    +0.000 A 
ATOM      7  C   UNL     1       3.267   7.655  16.806  0.00  0.00    +0.000 C 
ENDROOT
BRANCH   1   8
ATOM      8  C   UNL     1       2.714   4.952  18.135  0.00  0.00    +0.000 C 
ATOM      9  O   UNL     1       1.881   4.417  17.391  0.00  0.00    +0.000 OA
BRANCH   8  10
ATOM     10  C   UNL     1       4.046   4.250  18.402  0.00  0.00    +0.000 C 
BRANCH  10  11
ATOM     11  C   UNL     1       5.286   4.972  17.901  0.00  0.00    +0.000 C 
BRANCH  11  12
ATOM     12  C   UNL     1       6.471   4.779  18.856  0.00  0.00    +0.000 C 
BRANCH  12  13
ATOM     13  C   UNL     1       7.743   5.328  18.222  0.00  0.00    +0.000 C 
BRANCH  13  14
ATOM     14  C   UNL     1       7.930   6.801  18.561  0.00  0.00    +0.000 C 
BRANCH  14  15
ATOM     15  C   UNL     1       7.489   7.668  17.391  0.00  0.00    +0.000 C 
BRANCH  15  16
ATOM     16  C   UNL     1       7.909   9.112  17.617  0.00  0.00    +0.000 C 
BRANCH  16  17
ATOM     17  C   UNL     1       8.921   9.200  18.748  0.00  0.00    +0.000 C 
BRANCH  17  18
ATOM     18  C   UNL     1       8.982  10.618  19.295  0.00  0.00    +0.000 C 
BRANCH  18  20
ATOM     19  C   UNL     1      10.421  12.012  20.783  0.00  0.00    +0.000 C 
ATOM     20  C   UNL     1      10.413  10.978  19.674  0.00  0.00    +0.000 C 
ENDBRANCH  18  20
ENDBRANCH  17  18
ENDBRANCH  16  17
ENDBRANCH  15  16
ENDBRANCH  14  15
ENDBRANCH  13  14
ENDBRANCH  12  13
ENDBRANCH  11  12
ENDBRANCH  10  11
ENDBRANCH   8  10
ENDBRANCH   1   8
BRANCH   5  21
ATOM     21  C   UNL     1       2.221   9.974  18.566  0.00  0.00    +0.000 C 
BRANCH  21  22
ATOM     22  C   UNL     1       0.885  10.682  18.489  0.00  0.00    +0.000 A 
ATOM     23  C   UNL     1       0.678  11.889  19.155  0.00  0.00    +0.000 A 
ATOM     24  C   UNL     1      -0.620  12.304  19.430  0.00  0.00    +0.000 A 
ATOM     25  C   UNL     1      -1.707  11.573  18.949  0.00  0.00    +0.000 A 
ATOM     26 CL   UNL     1      -3.302  12.024  19.411  0.00  0.00    +0.000 Cl
ATOM     27  C   UNL     1      -1.512  10.428  18.179  0.00  0.00    +0.000 A 
ATOM     28  C   UNL     1      -0.215   9.979  17.940  0.00  0.00    +0.000 A 
ENDBRANCH  21  22
ENDBRANCH   5  21
BRANCH   4  29
ATOM     29  C   UNL     1       1.340   8.938  21.396  0.00  0.00    +0.000 C 
BRANCH  29  30
ATOM     30  C   UNL     1      -0.179   9.082  21.625  0.00  0.00    +0.000 C 
BRANCH  30  31
ATOM     31  C   UNL     1      -0.652   9.887  22.819  0.00  0.00    +0.000 C 
ATOM     32  O   UNL     1      -1.411  10.801  22.790  0.00  0.00    +0.000 OA
BRANCH  31  33
ATOM     33  O   UNL     1      -0.073   9.416  23.971  0.00  0.00    +0.000 OA
ATOM     34  H   UNL     1       0.152  10.104  24.621  0.00  0.00    +0.000 HD
ENDBRANCH  31  33
ENDBRANCH  30  31
ENDBRANCH  29  30
ENDBRANCH   4  29
TORSDOF 17
ENDMDL
MODEL 6
REMARK VINA RESULT:      -6.3      3.980      6.392
REMARK  Name = 
REMARK  20 active torsions:
REMARK  status: ('A' for Active; 'I' for Inactive)
REMARK    1  A    between atoms: C_1  and  C_2
REMARK    2  A    between atoms: C_2  and  C_3
REMARK    3  A    between atoms: C_3  and  C_4
REMARK    4  A    between atoms: C_4  and  C_5
REMARK    5  A    between atoms: C_5  and  C_6
REMARK    6  A    between atoms: C_6  and  C_7
REMARK    7  A    between atoms: C_7  and  C_8
REMARK    8  A    between atoms: C_8  and  C_9
REMARK    9  A    between atoms: C_9  and  C_10
REMARK   10  A    between atoms: C_10  and  C_11
REMARK   11  A    between atoms: C_11  and  C_12
REMARK   12  A    between atoms: C_12  and  C_14
REMARK   13  A    between atoms: C_15  and  C_16
REMARK   14  A    between atoms: C_17  and  C_18
REMARK   15  A    between atoms: C_18  and  C_19
REMARK   16  A    between atoms: C_19  and  C_20
REMARK   17  A    between atoms: C_20  and  O_22
REMARK   18  A    between atoms: N_23  and  C_24
REMARK   19  A    between atoms: C_24  and  C_25
REMARK   20  A    between atoms: C_32  and  C_33
REMARK                            x       y       z     vdW  Elec       q    Type
REMARK                         _______ _______ _______ _____ _____    ______ ____
ROOT
ATOM      1  C   UNL     1       4.917   5.638  17.667  0.00  0.00    +0.000 A 
ATOM      2  C   UNL     1       4.146   4.546  18.227  0.00  0.00    +0.000 A 
ATOM      3  C   UNL     1       4.679   3.169  18.454  0.00  0.00    +0.000 C 
ATOM      4  C   UNL     1       2.848   5.014  18.544  0.00  0.00    +0.000 A 
ATOM      5  N   UNL     1       2.809   6.365  18.128  0.00  0.00    +0.000 N 
ATOM      6  C   UNL     1       4.067   6.739  17.664  0.00  0.00    +0.000 A 
ATOM      7  C   UNL     1       4.434   8.112  17.201  0.00  0.00    +0.000 C 
ENDROOT
BRANCH   1   8
ATOM      8  C   UNL     1       6.342   5.718  17.168  0.00  0.00    +0.000 C 
ATOM      9  O   UNL     1       6.574   5.775  15.952  0.00  0.00    +0.000 OA
BRANCH   8  10
ATOM     10  C   UNL     1       7.508   5.706  18.156  0.00  0.00    +0.000 C 
BRANCH  10  11
ATOM     11  C   UNL     1       8.039   7.069  18.569  0.00  0.00    +0.000 C 
BRANCH  11  12
ATOM     12  C   UNL     1       8.013   8.058  17.397  0.00  0.00    +0.000 C 
BRANCH  12  13
ATOM     13  C   UNL     1       7.829   9.477  17.919  0.00  0.00    +0.000 C 
BRANCH  13  14
ATOM     14  C   UNL     1       9.049   9.932  18.707  0.00  0.00    +0.000 C 
BRANCH  14  15
ATOM     15  C   UNL     1       9.602  11.222  18.118  0.00  0.00    +0.000 C 
BRANCH  15  16
ATOM     16  C   UNL     1      11.018  11.465  18.617  0.00  0.00    +0.000 C 
BRANCH  16  17
ATOM     17  C   UNL     1      11.711  12.513  17.760  0.00  0.00    +0.000 C 
BRANCH  17  18
ATOM     18  C   UNL     1      12.330  13.590  18.637  0.00  0.00    +0.000 C 
BRANCH  18  20
ATOM     19  C   UNL     1      11.454  15.212  20.319  0.00  0.00    +0.000 C 
ATOM     20  C   UNL     1      11.531  13.750  19.924  0.00  0.00    +0.000 C 
ENDBRANCH  18  20
ENDBRANCH  17  18
ENDBRANCH  16  17
ENDBRANCH  15  16
ENDBRANCH  14  15
ENDBRANCH  13  14
ENDBRANCH  12  13
ENDBRANCH  11  12
ENDBRANCH  10  11
ENDBRANCH   8  10
ENDBRANCH   1   8
BRANCH   5  21
ATOM     21  C   UNL     1       1.613   7.251  18.135  0.00  0.00    +0.000 C 
BRANCH  21  22
ATOM     22  C   UNL     1       1.485   8.264  19.251  0.00  0.00    +0.000 A 
ATOM     23  C   UNL     1       1.590   7.874  20.586  0.00  0.00    +0.000 A 
ATOM     24  C   UNL     1       1.064   8.690  21.581  0.00  0.00    +0.000 A 
ATOM     25  C   UNL     1       0.534   9.939  21.256  0.00  0.00    +0.000 A 
ATOM     26 CL   UNL     1      -0.234  10.877  22.478  0.00  0.00    +0.000 Cl
ATOM     27  C   UNL     1       0.531  10.392  19.938  0.00  0.00    +0.000 A 
ATOM     28  C   UNL     1       1.012   9.560  18.929  0.00  0.00    +0.000 A 
ENDBRANCH  21  22
ENDBRANCH   5  21
BRANCH   4  29
ATOM     29  C   UNL     1       1.634   4.309  19.232  0.00  0.00    +0.000 C 
BRANCH  29  30
ATOM     30  C   UNL     1       1.595   4.364  20.774  0.00  0.00    +0.000 C 
BRANCH  30  31
ATOM     31  C   UNL     1       1.902   3.095  21.544  0.00  0.00    +0.000 C 
ATOM     32  O   UNL     1       1.205   2.587  22.361  0.00  0.00    +0.000 OA
BRANCH  31  33
ATOM     33  O   UNL     1       3.125   2.594  21.171  0.00  0.00    +0.000 OA
ATOM     34  H   UNL     1       3.625   2.171  21.890  0.00  0.00    +0.000 HD
ENDBRANCH  31  33
ENDBRANCH  30  31
ENDBRANCH  29  30
ENDBRANCH   4  29
TORSDOF 17
ENDMDL
MODEL 7
REMARK VINA RESULT:      -6.2      5.007      8.167
REMARK  Name = 
REMARK  20 active torsions:
REMARK  status: ('A' for Active; 'I' for Inactive)
REMARK    1  A    between atoms: C_1  and  C_2
REMARK    2  A    between atoms: C_2  and  C_3
REMARK    3  A    between atoms: C_3  and  C_4
REMARK    4  A    between atoms: C_4  and  C_5
REMARK    5  A    between atoms: C_5  and  C_6
REMARK    6  A    between atoms: C_6  and  C_7
REMARK    7  A    between atoms: C_7  and  C_8
REMARK    8  A    between atoms: C_8  and  C_9
REMARK    9  A    between atoms: C_9  and  C_10
REMARK   10  A    between atoms: C_10  and  C_11
REMARK   11  A    between atoms: C_11  and  C_12
REMARK   12  A    between atoms: C_12  and  C_14
REMARK   13  A    between atoms: C_15  and  C_16
REMARK   14  A    between atoms: C_17  and  C_18
REMARK   15  A    between atoms: C_18  and  C_19
REMARK   16  A    between atoms: C_19  and  C_20
REMARK   17  A    between atoms: C_20  and  O_22
REMARK   18  A    between atoms: N_23  and  C_24
REMARK   19  A    between atoms: C_24  and  C_25
REMARK   20  A    between atoms: C_32  and  C_33
REMARK                            x       y       z     vdW  Elec       q    Type
REMARK                         _______ _______ _______ _____ _____    ______ ____
ROOT
ATOM      1  C   UNL     1       0.238  10.915  18.690  0.00  0.00    +0.000 A 
ATOM      2  C   UNL     1      -1.134  10.779  18.242  0.00  0.00    +0.000 A 
ATOM      3  C   UNL     1      -1.602   9.750  17.264  0.00  0.00    +0.000 C 
ATOM      4  C   UNL     1      -1.933  11.741  18.905  0.00  0.00    +0.000 A 
ATOM      5  N   UNL     1      -1.046  12.496  19.708  0.00  0.00    +0.000 N 
ATOM      6  C   UNL     1       0.232  11.954  19.615  0.00  0.00    +0.000 A 
ATOM      7  C   UNL     1       1.424  12.441  20.374  0.00  0.00    +0.000 C 
ENDROOT
BRANCH   1   8
ATOM      8  C   UNL     1       1.497  10.160  18.332  0.00  0.00    +0.000 C 
ATOM      9  O   UNL     1       2.348  10.680  17.597  0.00  0.00    +0.000 OA
BRANCH   8  10
ATOM     10  C   UNL     1       1.722   8.741  18.856  0.00  0.00    +0.000 C 
BRANCH  10  11
ATOM     11  C   UNL     1       2.209   7.728  17.833  0.00  0.00    +0.000 C 
BRANCH  11  12
ATOM     12  C   UNL     1       3.514   7.060  18.284  0.00  0.00    +0.000 C 
BRANCH  12  13
ATOM     13  C   UNL     1       4.364   6.708  17.069  0.00  0.00    +0.000 C 
BRANCH  13  14
ATOM     14  C   UNL     1       4.545   5.202  16.947  0.00  0.00    +0.000 C 
BRANCH  14  15
ATOM     15  C   UNL     1       3.298   4.482  17.439  0.00  0.00    +0.000 C 
BRANCH  15  16
ATOM     16  C   UNL     1       3.507   2.976  17.396  0.00  0.00    +0.000 C 
BRANCH  16  17
ATOM     17  C   UNL     1       2.356   2.260  18.086  0.00  0.00    +0.000 C 
BRANCH  17  18
ATOM     18  C   UNL     1       1.247   3.244  18.426  0.00  0.00    +0.000 C 
BRANCH  18  20
ATOM     19  C   UNL     1       1.294   4.463  20.603  0.00  0.00    +0.000 C 
ATOM     20  C   UNL     1       0.910   3.170  19.910  0.00  0.00    +0.000 C 
ENDBRANCH  18  20
ENDBRANCH  17  18
ENDBRANCH  16  17
ENDBRANCH  15  16
ENDBRANCH  14  15
ENDBRANCH  13  14
ENDBRANCH  12  13
ENDBRANCH  11  12
ENDBRANCH  10  11
ENDBRANCH   8  10
ENDBRANCH   1   8
BRANCH   5  21
ATOM     21  C   UNL     1      -1.395  13.708  20.498  0.00  0.00    +0.000 C 
BRANCH  21  22
ATOM     22  C   UNL     1      -2.128  13.517  21.808  0.00  0.00    +0.000 A 
ATOM     23  C   UNL     1      -1.904  12.387  22.593  0.00  0.00    +0.000 A 
ATOM     24  C   UNL     1      -2.851  12.013  23.540  0.00  0.00    +0.000 A 
ATOM     25  C   UNL     1      -3.963  12.822  23.777  0.00  0.00    +0.000 A 
ATOM     26 CL   UNL     1      -5.192  12.278  24.852  0.00  0.00    +0.000 Cl
ATOM     27  C   UNL     1      -4.137  14.017  23.082  0.00  0.00    +0.000 A 
ATOM     28  C   UNL     1      -3.218  14.374  22.097  0.00  0.00    +0.000 A 
ENDBRANCH  21  22
ENDBRANCH   5  21
BRANCH   4  29
ATOM     29  C   UNL     1      -3.474  12.005  18.874  0.00  0.00    +0.000 C 
BRANCH  29  30
ATOM     30  C   UNL     1      -4.199  11.666  17.554  0.00  0.00    +0.000 C 
BRANCH  30  31
ATOM     31  C   UNL     1      -5.710  11.776  17.518  0.00  0.00    +0.000 C 
ATOM     32  O   UNL     1      -6.337  12.624  16.971  0.00  0.00    +0.000 OA
BRANCH  31  33
ATOM     33  O   UNL     1      -6.280  10.743  18.220  0.00  0.00    +0.000 OA
ATOM     34  H   UNL     1      -7.045  10.998  18.765  0.00  0.00    +0.000 HD
ENDBRANCH  31  33
ENDBRANCH  30  31
ENDBRANCH  29  30
ENDBRANCH   4  29
TORSDOF 17
ENDMDL
MODEL 8
REMARK VINA RESULT:      -6.2      3.368      8.452
REMARK  Name = 
REMARK  20 active torsions:
REMARK  status: ('A' for Active; 'I' for Inactive)
REMARK    1  A    between atoms: C_1  and  C_2
REMARK    2  A    between atoms: C_2  and  C_3
REMARK    3  A    between atoms: C_3  and  C_4
REMARK    4  A    between atoms: C_4  and  C_5
REMARK    5  A    between atoms: C_5  and  C_6
REMARK    6  A    between atoms: C_6  and  C_7
REMARK    7  A    between atoms: C_7  and  C_8
REMARK    8  A    between atoms: C_8  and  C_9
REMARK    9  A    between atoms: C_9  and  C_10
REMARK   10  A    between atoms: C_10  and  C_11
REMARK   11  A    between atoms: C_11  and  C_12
REMARK   12  A    between atoms: C_12  and  C_14
REMARK   13  A    between atoms: C_15  and  C_16
REMARK   14  A    between atoms: C_17  and  C_18
REMARK   15  A    between atoms: C_18  and  C_19
REMARK   16  A    between atoms: C_19  and  C_20
REMARK   17  A    between atoms: C_20  and  O_22
REMARK   18  A    between atoms: N_23  and  C_24
REMARK   19  A    between atoms: C_24  and  C_25
REMARK   20  A    between atoms: C_32  and  C_33
REMARK                            x       y       z     vdW  Elec       q    Type
REMARK                         _______ _______ _______ _____ _____    ______ ____
ROOT
ATOM      1  C   UNL     1       2.758   6.396  18.650  0.00  0.00    +0.000 A 
ATOM      2  C   UNL     1       2.399   5.017  18.914  0.00  0.00    +0.000 A 
ATOM      3  C   UNL     1       1.141   4.590  19.598  0.00  0.00    +0.000 C 
ATOM      4  C   UNL     1       3.406   4.170  18.391  0.00  0.00    +0.000 A 
ATOM      5  N   UNL     1       4.399   5.028  17.863  0.00  0.00    +0.000 N 
ATOM      6  C   UNL     1       3.970   6.348  17.971  0.00  0.00    +0.000 A 
ATOM      7  C   UNL     1       4.722   7.535  17.460  0.00  0.00    +0.000 C 
ENDROOT
BRANCH   1   8
ATOM      8  C   UNL     1       2.062   7.700  18.968  0.00  0.00    +0.000 C 
ATOM      9  O   UNL     1       1.651   8.426  18.053  0.00  0.00    +0.000 OA
BRANCH   8  10
ATOM     10  C   UNL     1       1.879   8.144  20.420  0.00  0.00    +0.000 C 
BRANCH  10  11
ATOM     11  C   UNL     1       0.445   8.380  20.863  0.00  0.00    +0.000 C 
BRANCH  11  12
ATOM     12  C   UNL     1       0.387   9.116  22.208  0.00  0.00    +0.000 C 
BRANCH  12  13
ATOM     13  C   UNL     1      -0.484  10.359  22.082  0.00  0.00    +0.000 C 
BRANCH  13  14
ATOM     14  C   UNL     1      -0.026  11.232  20.923  0.00  0.00    +0.000 C 
BRANCH  14  15
ATOM     15  C   UNL     1      -1.157  11.407  19.920  0.00  0.00    +0.000 C 
BRANCH  15  16
ATOM     16  C   UNL     1      -0.647  11.182  18.505  0.00  0.00    +0.000 C 
BRANCH  16  17
ATOM     17  C   UNL     1      -1.441  10.080  17.823  0.00  0.00    +0.000 C 
BRANCH  17  18
ATOM     18  C   UNL     1      -2.797  10.601  17.375  0.00  0.00    +0.000 C 
BRANCH  18  20
ATOM     19  C   UNL     1      -2.933   9.971  14.965  0.00  0.00    +0.000 C 
ATOM     20  C   UNL     1      -2.723  11.111  15.942  0.00  0.00    +0.000 C 
ENDBRANCH  18  20
ENDBRANCH  17  18
ENDBRANCH  16  17
ENDBRANCH  15  16
ENDBRANCH  14  15
ENDBRANCH  13  14
ENDBRANCH  12  13
ENDBRANCH  11  12
ENDBRANCH  10  11
ENDBRANCH   8  10
ENDBRANCH   1   8
BRANCH   5  21
ATOM     21  C   UNL     1       5.718   4.610  17.316  0.00  0.00    +0.000 C 
BRANCH  21  22
ATOM     22  C   UNL     1       5.920   4.677  15.818  0.00  0.00    +0.000 A 
ATOM     23  C   UNL     1       5.001   4.093  14.946  0.00  0.00    +0.000 A 
ATOM     24  C   UNL     1       5.389   3.789  13.646  0.00  0.00    +0.000 A 
ATOM     25  C   UNL     1       6.652   4.163  13.185  0.00  0.00    +0.000 A 
ATOM     26 CL   UNL     1       7.166   3.661  11.621  0.00  0.00    +0.000 Cl
ATOM     27  C   UNL     1       7.537   4.855  14.011  0.00  0.00    +0.000 A 
ATOM     28  C   UNL     1       7.174   5.120  15.329  0.00  0.00    +0.000 A 
ENDBRANCH  21  22
ENDBRANCH   5  21
BRANCH   4  29
ATOM     29  C   UNL     1       3.512   2.612  18.318  0.00  0.00    +0.000 C 
BRANCH  29  30
ATOM     30  C   UNL     1       3.061   1.836  19.573  0.00  0.00    +0.000 C 
BRANCH  30  31
ATOM     31  C   UNL     1       3.823   2.057  20.865  0.00  0.00    +0.000 C 
ATOM     32  O   UNL     1       5.000   1.972  21.006  0.00  0.00    +0.000 OA
BRANCH  31  33
ATOM     33  O   UNL     1       2.957   2.374  21.882  0.00  0.00    +0.000 OA
ATOM     34  H   UNL     1       2.025   2.447  21.612  0.00  0.00    +0.000 HD
ENDBRANCH  31  33
ENDBRANCH  30  31
ENDBRANCH  29  30
ENDBRANCH   4  29
TORSDOF 17
ENDMDL
MODEL 9
REMARK VINA RESULT:      -6.2      4.149      6.497
REMARK  Name = 
REMARK  20 active torsions:
REMARK  status: ('A' for Active; 'I' for Inactive)
REMARK    1  A    between atoms: C_1  and  C_2
REMARK    2  A    between atoms: C_2  and  C_3
REMARK    3  A    between atoms: C_3  and  C_4
REMARK    4  A    between atoms: C_4  and  C_5
REMARK    5  A    between atoms: C_5  and  C_6
REMARK    6  A    between atoms: C_6  and  C_7
REMARK    7  A    between atoms: C_7  and  C_8
REMARK    8  A    between atoms: C_8  and  C_9
REMARK    9  A    between atoms: C_9  and  C_10
REMARK   10  A    between atoms: C_10  and  C_11
REMARK   11  A    between atoms: C_11  and  C_12
REMARK   12  A    between atoms: C_12  and  C_14
REMARK   13  A    between atoms: C_15  and  C_16
REMARK   14  A    between atoms: C_17  and  C_18
REMARK   15  A    between atoms: C_18  and  C_19
REMARK   16  A    between atoms: C_19  and  C_20
REMARK   17  A    between atoms: C_20  and  O_22
REMARK   18  A    between atoms: N_23  and  C_24
REMARK   19  A    between atoms: C_24  and  C_25
REMARK   20  A    between atoms: C_32  and  C_33
REMARK                            x       y       z     vdW  Elec       q    Type
REMARK                         _______ _______ _______ _____ _____    ______ ____
ROOT
ATOM      1  C   UNL     1       5.131   5.558  17.971  0.00  0.00    +0.000 A 
ATOM      2  C   UNL     1       4.512   4.862  19.082  0.00  0.00    +0.000 A 
ATOM      3  C   UNL     1       5.149   3.736  19.830  0.00  0.00    +0.000 C 
ATOM      4  C   UNL     1       3.251   5.447  19.348  0.00  0.00    +0.000 A 
ATOM      5  N   UNL     1       3.075   6.454  18.370  0.00  0.00    +0.000 N 
ATOM      6  C   UNL     1       4.229   6.548  17.596  0.00  0.00    +0.000 A 
ATOM      7  C   UNL     1       4.446   7.546  16.504  0.00  0.00    +0.000 C 
ENDROOT
BRANCH   1   8
ATOM      8  C   UNL     1       6.460   5.372  17.277  0.00  0.00    +0.000 C 
ATOM      9  O   UNL     1       6.849   4.237  16.971  0.00  0.00    +0.000 OA
BRANCH   8  10
ATOM     10  C   UNL     1       7.345   6.580  16.966  0.00  0.00    +0.000 C 
BRANCH  10  11
ATOM     11  C   UNL     1       7.906   7.316  18.172  0.00  0.00    +0.000 C 
BRANCH  11  12
ATOM     12  C   UNL     1       8.070   8.814  17.888  0.00  0.00    +0.000 C 
BRANCH  12  13
ATOM     13  C   UNL     1       8.953   9.451  18.953  0.00  0.00    +0.000 C 
BRANCH  13  14
ATOM     14  C   UNL     1       9.189  10.926  18.657  0.00  0.00    +0.000 C 
BRANCH  14  15
ATOM     15  C   UNL     1      10.348  11.086  17.684  0.00  0.00    +0.000 C 
BRANCH  15  16
ATOM     16  C   UNL     1      11.212  12.271  18.084  0.00  0.00    +0.000 C 
BRANCH  16  17
ATOM     17  C   UNL     1      11.179  13.342  17.005  0.00  0.00    +0.000 C 
BRANCH  17  18
ATOM     18  C   UNL     1      10.726  14.671  17.590  0.00  0.00    +0.000 C 
BRANCH  18  20
ATOM     19  C   UNL     1      10.423  15.960  19.705  0.00  0.00    +0.000 C 
ATOM     20  C   UNL     1      10.660  14.586  19.109  0.00  0.00    +0.000 C 
ENDBRANCH  18  20
ENDBRANCH  17  18
ENDBRANCH  16  17
ENDBRANCH  15  16
ENDBRANCH  14  15
ENDBRANCH  13  14
ENDBRANCH  12  13
ENDBRANCH  11  12
ENDBRANCH  10  11
ENDBRANCH   8  10
ENDBRANCH   1   8
BRANCH   5  21
ATOM     21  C   UNL     1       1.846   7.265  18.156  0.00  0.00    +0.000 C 
BRANCH  21  22
ATOM     22  C   UNL     1       1.714   8.571  18.909  0.00  0.00    +0.000 A 
ATOM     23  C   UNL     1       1.362   8.584  20.258  0.00  0.00    +0.000 A 
ATOM     24  C   UNL     1       0.840   9.746  20.817  0.00  0.00    +0.000 A 
ATOM     25  C   UNL     1       0.771  10.917  20.063  0.00  0.00    +0.000 A 
ATOM     26 CL   UNL     1      -0.000  12.306  20.724  0.00  0.00    +0.000 Cl
ATOM     27  C   UNL     1       1.232  10.948  18.748  0.00  0.00    +0.000 A 
ATOM     28  C   UNL     1       1.711   9.777  18.165  0.00  0.00    +0.000 A 
ENDBRANCH  21  22
ENDBRANCH   5  21
BRANCH   4  29
ATOM     29  C   UNL     1       2.191   5.162  20.462  0.00  0.00    +0.000 C 
BRANCH  29  30
ATOM     30  C   UNL     1       1.000   4.267  20.059  0.00  0.00    +0.000 C 
BRANCH  30  31
ATOM     31  C   UNL     1       1.295   2.898  19.480  0.00  0.00    +0.000 C 
ATOM     32  O   UNL     1       1.793   1.987  20.057  0.00  0.00    +0.000 OA
BRANCH  31  33
ATOM     33  O   UNL     1       0.905   2.842  18.164  0.00  0.00    +0.000 OA
ATOM     34  H   UNL     1      -0.010   3.128  18.001  0.00  0.00    +0.000 HD
ENDBRANCH  31  33
ENDBRANCH  30  31
ENDBRANCH  29  30
ENDBRANCH   4  29
TORSDOF 17
ENDMDL
