MODEL 1
REMARK VINA RESULT:      -6.8      0.000      0.000
REMARK  Name = 
REMARK  8 active torsions:
REMARK  status: ('A' for Active; 'I' for Inactive)
REMARK    1  A    between atoms: C_2  and  C_3
REMARK    2  A    between atoms: C_3  and  C_4
REMARK    3  A    between atoms: C_4  and  C_5
REMARK    4  A    between atoms: C_5  and  O_6
REMARK    5  A    between atoms: O_6  and  C_7
REMARK    6  A    between atoms: N_14  and  C_15
REMARK    7  A    between atoms: C_15  and  C_16
REMARK    8  A    between atoms: C_16  and  C_17
REMARK                            x       y       z     vdW  Elec       q    Type
REMARK                         _______ _______ _______ _____ _____    ______ ____
ROOT
ATOM      1  O   UNL     1       4.073   2.033  19.463  0.00  0.00    +0.000 OA
ATOM      2  C   UNL     1       3.108   2.432  18.823  0.00  0.00    +0.000 C 
ATOM      3  N   UNL     1       3.227   3.066  17.604  0.00  0.00    +0.000 N 
ATOM      4  H   UNL     1       2.397   3.301  17.077  0.00  0.00    +0.000 HD
ENDROOT
BRANCH   2   5
ATOM      5  C   UNL     1       1.674   2.263  19.302  0.00  0.00    +0.000 C 
BRANCH   5   6
ATOM      6  C   UNL     1       1.454   2.840  20.705  0.00  0.00    +0.000 C 
BRANCH   6   7
ATOM      7  C   UNL     1       1.107   4.326  20.641  0.00  0.00    +0.000 C 
BRANCH   7   8
ATOM      8  O   UNL     1       2.297   5.111  20.527  0.00  0.00    +0.000 OA
BRANCH   8   9
ATOM      9  C   UNL     1       2.113   6.378  20.029  0.00  0.00    +0.000 A 
ATOM     10  C   UNL     1       1.478   7.429  20.701  0.00  0.00    +0.000 A 
ATOM     11  C   UNL     1       1.352   8.683  20.100  0.00  0.00    +0.000 A 
ATOM     12  C   UNL     1       1.860   8.891  18.822  0.00  0.00    +0.000 A 
ATOM     13 CL   UNL     1       1.702  10.438  18.087  0.00  0.00    +0.000 Cl
ATOM     14  C   UNL     1       2.492   7.856  18.140  0.00  0.00    +0.000 A 
ATOM     15  C   UNL     1       2.618   6.599  18.744  0.00  0.00    +0.000 A 
ENDBRANCH   8   9
ENDBRANCH   7   8
ENDBRANCH   6   7
ENDBRANCH   5   6
ENDBRANCH   2   5
BRANCH   3  16
ATOM     16  C   UNL     1       4.541   3.313  17.025  0.00  0.00    +0.000 C 
BRANCH  16  17
ATOM     17  C   UNL     1       4.712   4.748  16.523  0.00  0.00    +0.000 C 
BRANCH  17  18
ATOM     18  C   UNL     1       5.840   5.471  17.220  0.00  0.00    +0.000 A 
ATOM     19  C   UNL     1       6.155   6.792  16.875  0.00  0.00    +0.000 A 
ATOM     20  C   UNL     1       7.210   7.458  17.503  0.00  0.00    +0.000 A 
ATOM     21  C   UNL     1       7.963   6.811  18.479  0.00  0.00    +0.000 A 
ATOM     22  C   UNL     1       7.660   5.498  18.831  0.00  0.00    +0.000 A 
ATOM     23  C   UNL     1       6.604   4.829  18.204  0.00  0.00    +0.000 A 
ENDBRANCH  17  18
ENDBRANCH  16  17
ENDBRANCH   3  16
TORSDOF 8
ENDMDL
MODEL 2
REMARK VINA RESULT:      -6.7      1.433      2.083
REMARK  Name = 
REMARK  8 active torsions:
REMARK  status: ('A' for Active; 'I' for Inactive)
REMARK    1  A    between atoms: C_2  and  C_3
REMARK    2  A    between atoms: C_3  and  C_4
REMARK    3  A    between atoms: C_4  and  C_5
REMARK    4  A    between atoms: C_5  and  O_6
REMARK    5  A    between atoms: O_6  and  C_7
REMARK    6  A    between atoms: N_14  and  C_15
REMARK    7  A    between atoms: C_15  and  C_16
REMARK    8  A    between atoms: C_16  and  C_17
REMARK                            x       y       z     vdW  Elec       q    Type
REMARK                         _______ _______ _______ _____ _____    ______ ____
ROOT
ATOM      1  O   UNL     1       0.844   2.508  18.299  0.00  0.00    +0.000 OA
ATOM      2  C   UNL     1       1.650   2.493  19.221  0.00  0.00    +0.000 C 
ATOM      3  N   UNL     1       3.012   2.394  19.025  0.00  0.00    +0.000 N 
ATOM      4  H   UNL     1       3.639   2.471  19.814  0.00  0.00    +0.000 HD
ENDROOT
BRANCH   2   5
ATOM      5  C   UNL     1       1.234   2.593  20.681  0.00  0.00    +0.000 C 
BRANCH   5   6
ATOM      6  C   UNL     1       2.231   3.401  21.518  0.00  0.00    +0.000 C 
BRANCH   6   7
ATOM      7  C   UNL     1       2.078   4.899  21.263  0.00  0.00    +0.000 C 
BRANCH   7   8
ATOM      8  O   UNL     1       2.897   5.304  20.164  0.00  0.00    +0.000 OA
BRANCH   8   9
ATOM      9  C   UNL     1       2.568   6.516  19.608  0.00  0.00    +0.000 A 
ATOM     10  C   UNL     1       2.929   6.945  18.325  0.00  0.00    +0.000 A 
ATOM     11  C   UNL     1       2.533   8.199  17.858  0.00  0.00    +0.000 A 
ATOM     12  C   UNL     1       1.773   9.031  18.673  0.00  0.00    +0.000 A 
ATOM     13 CL   UNL     1       1.286  10.576  18.092  0.00  0.00    +0.000 Cl
ATOM     14  C   UNL     1       1.407   8.620  19.951  0.00  0.00    +0.000 A 
ATOM     15  C   UNL     1       1.806   7.362  20.418  0.00  0.00    +0.000 A 
ENDBRANCH   8   9
ENDBRANCH   7   8
ENDBRANCH   6   7
ENDBRANCH   5   6
ENDBRANCH   2   5
BRANCH   3  16
ATOM     16  C   UNL     1       3.557   2.276  17.680  0.00  0.00    +0.000 C 
BRANCH  16  17
ATOM     17  C   UNL     1       3.512   3.591  16.900  0.00  0.00    +0.000 C 
BRANCH  17  18
ATOM     18  C   UNL     1       4.889   4.099  16.547  0.00  0.00    +0.000 A 
ATOM     19  C   UNL     1       5.260   4.270  15.206  0.00  0.00    +0.000 A 
ATOM     20  C   UNL     1       6.539   4.721  14.874  0.00  0.00    +0.000 A 
ATOM     21  C   UNL     1       7.463   5.003  15.877  0.00  0.00    +0.000 A 
ATOM     22  C   UNL     1       7.107   4.838  17.214  0.00  0.00    +0.000 A 
ATOM     23  C   UNL     1       5.826   4.387  17.549  0.00  0.00    +0.000 A 
ENDBRANCH  17  18
ENDBRANCH  16  17
ENDBRANCH   3  16
TORSDOF 8
ENDMDL
MODEL 3
REMARK VINA RESULT:      -6.6      4.352      6.406
REMARK  Name = 
REMARK  8 active torsions:
REMARK  status: ('A' for Active; 'I' for Inactive)
REMARK    1  A    between atoms: C_2  and  C_3
REMARK    2  A    between atoms: C_3  and  C_4
REMARK    3  A    between atoms: C_4  and  C_5
REMARK    4  A    between atoms: C_5  and  O_6
REMARK    5  A    between atoms: O_6  and  C_7
REMARK    6  A    between atoms: N_14  and  C_15
REMARK    7  A    between atoms: C_15  and  C_16
REMARK    8  A    between atoms: C_16  and  C_17
REMARK                            x       y       z     vdW  Elec       q    Type
REMARK                         _______ _______ _______ _____ _____    ______ ____
ROOT
ATOM      1  O   UNL     1       6.114   7.626  17.160  0.00  0.00    +0.000 OA
ATOM      2  C   UNL     1       7.154   7.126  17.567  0.00  0.00    +0.000 C 
ATOM      3  N   UNL     1       8.223   7.877  18.011  0.00  0.00    +0.000 N 
ATOM      4  H   UNL     1       9.026   7.415  18.417  0.00  0.00    +0.000 HD
ENDROOT
BRANCH   2   5
ATOM      5  C   UNL     1       7.376   5.623  17.636  0.00  0.00    +0.000 C 
BRANCH   5   6
ATOM      6  C   UNL     1       7.068   4.925  16.306  0.00  0.00    +0.000 C 
BRANCH   6   7
ATOM      7  C   UNL     1       5.904   3.947  16.453  0.00  0.00    +0.000 C 
BRANCH   7   8
ATOM      8  O   UNL     1       4.661   4.654  16.486  0.00  0.00    +0.000 OA
BRANCH   8   9
ATOM      9  C   UNL     1       3.824   4.309  17.519  0.00  0.00    +0.000 A 
ATOM     10  C   UNL     1       2.602   4.926  17.812  0.00  0.00    +0.000 A 
ATOM     11  C   UNL     1       1.825   4.488  18.886  0.00  0.00    +0.000 A 
ATOM     12  C   UNL     1       2.268   3.431  19.673  0.00  0.00    +0.000 A 
ATOM     13 CL   UNL     1       1.307   2.896  20.996  0.00  0.00    +0.000 Cl
ATOM     14  C   UNL     1       3.482   2.809  19.397  0.00  0.00    +0.000 A 
ATOM     15  C   UNL     1       4.259   3.249  18.319  0.00  0.00    +0.000 A 
ENDBRANCH   8   9
ENDBRANCH   7   8
ENDBRANCH   6   7
ENDBRANCH   5   6
ENDBRANCH   2   5
BRANCH   3  16
ATOM     16  C   UNL     1       8.162   9.332  17.991  0.00  0.00    +0.000 C 
BRANCH  16  17
ATOM     17  C   UNL     1       9.152   9.985  18.957  0.00  0.00    +0.000 C 
BRANCH  17  18
ATOM     18  C   UNL     1       9.737  11.263  18.407  0.00  0.00    +0.000 A 
ATOM     19  C   UNL     1       8.954  12.423  18.326  0.00  0.00    +0.000 A 
ATOM     20  C   UNL     1       9.484  13.603  17.800  0.00  0.00    +0.000 A 
ATOM     21  C   UNL     1      10.800  13.637  17.346  0.00  0.00    +0.000 A 
ATOM     22  C   UNL     1      11.589  12.491  17.421  0.00  0.00    +0.000 A 
ATOM     23  C   UNL     1      11.060  11.308  17.949  0.00  0.00    +0.000 A 
ENDBRANCH  17  18
ENDBRANCH  16  17
ENDBRANCH   3  16
TORSDOF 8
ENDMDL
MODEL 4
REMARK VINA RESULT:      -6.6      3.892      5.893
REMARK  Name = 
REMARK  8 active torsions:
REMARK  status: ('A' for Active; 'I' for Inactive)
REMARK    1  A    between atoms: C_2  and  C_3
REMARK    2  A    between atoms: C_3  and  C_4
REMARK    3  A    between atoms: C_4  and  C_5
REMARK    4  A    between atoms: C_5  and  O_6
REMARK    5  A    between atoms: O_6  and  C_7
REMARK    6  A    between atoms: N_14  and  C_15
REMARK    7  A    between atoms: C_15  and  C_16
REMARK    8  A    between atoms: C_16  and  C_17
REMARK                            x       y       z     vdW  Elec       q    Type
REMARK                         _______ _______ _______ _____ _____    ______ ____
ROOT
ATOM      1  O   UNL     1       8.001   5.435  19.753  0.00  0.00    +0.000 OA
ATOM      2  C   UNL     1       7.773   5.657  18.571  0.00  0.00    +0.000 C 
ATOM      3  N   UNL     1       7.941   6.899  17.995  0.00  0.00    +0.000 N 
ATOM      4  H   UNL     1       7.821   7.010  16.997  0.00  0.00    +0.000 HD
ENDROOT
BRANCH   2   5
ATOM      5  C   UNL     1       7.289   4.583  17.608  0.00  0.00    +0.000 C 
BRANCH   5   6
ATOM      6  C   UNL     1       6.223   5.104  16.638  0.00  0.00    +0.000 C 
BRANCH   6   7
ATOM      7  C   UNL     1       5.238   4.001  16.257  0.00  0.00    +0.000 C 
BRANCH   7   8
ATOM      8  O   UNL     1       3.895   4.425  16.505  0.00  0.00    +0.000 OA
BRANCH   8   9
ATOM      9  C   UNL     1       3.345   3.961  17.675  0.00  0.00    +0.000 A 
ATOM     10  C   UNL     1       3.030   2.626  17.949  0.00  0.00    +0.000 A 
ATOM     11  C   UNL     1       2.479   2.264  19.180  0.00  0.00    +0.000 A 
ATOM     12  C   UNL     1       2.240   3.238  20.143  0.00  0.00    +0.000 A 
ATOM     13 CL   UNL     1       1.561   2.787  21.658  0.00  0.00    +0.000 Cl
ATOM     14  C   UNL     1       2.547   4.571  19.886  0.00  0.00    +0.000 A 
ATOM     15  C   UNL     1       3.099   4.932  18.651  0.00  0.00    +0.000 A 
ENDBRANCH   8   9
ENDBRANCH   7   8
ENDBRANCH   6   7
ENDBRANCH   5   6
ENDBRANCH   2   5
BRANCH   3  16
ATOM     16  C   UNL     1       8.385   8.031  18.797  0.00  0.00    +0.000 C 
BRANCH  16  17
ATOM     17  C   UNL     1       8.305   9.362  18.047  0.00  0.00    +0.000 C 
BRANCH  17  18
ATOM     18  C   UNL     1       9.205  10.416  18.648  0.00  0.00    +0.000 A 
ATOM     19  C   UNL     1       9.978  11.243  17.820  0.00  0.00    +0.000 A 
ATOM     20  C   UNL     1      10.826  12.206  18.372  0.00  0.00    +0.000 A 
ATOM     21  C   UNL     1      10.914  12.352  19.754  0.00  0.00    +0.000 A 
ATOM     22  C   UNL     1      10.151  11.536  20.587  0.00  0.00    +0.000 A 
ATOM     23  C   UNL     1       9.300  10.571  20.037  0.00  0.00    +0.000 A 
ENDBRANCH  17  18
ENDBRANCH  16  17
ENDBRANCH   3  16
TORSDOF 8
ENDMDL
MODEL 5
REMARK VINA RESULT:      -6.6      4.176      6.373
REMARK  Name = 
REMARK  8 active torsions:
REMARK  status: ('A' for Active; 'I' for Inactive)
REMARK    1  A    between atoms: C_2  and  C_3
REMARK    2  A    between atoms: C_3  and  C_4
REMARK    3  A    between atoms: C_4  and  C_5
REMARK    4  A    between atoms: C_5  and  O_6
REMARK    5  A    between atoms: O_6  and  C_7
REMARK    6  A    between atoms: N_14  and  C_15
REMARK    7  A    between atoms: C_15  and  C_16
REMARK    8  A    between atoms: C_16  and  C_17
REMARK                            x       y       z     vdW  Elec       q    Type
REMARK                         _______ _______ _______ _____ _____    ______ ____
ROOT
ATOM      1  O   UNL     1       7.907   6.189  18.019  0.00  0.00    +0.000 OA
ATOM      2  C   UNL     1       7.129   6.935  17.439  0.00  0.00    +0.000 C 
ATOM      3  N   UNL     1       7.271   8.307  17.430  0.00  0.00    +0.000 N 
ATOM      4  H   UNL     1       6.651   8.873  16.866  0.00  0.00    +0.000 HD
ENDROOT
BRANCH   2   5
ATOM      5  C   UNL     1       5.928   6.427  16.656  0.00  0.00    +0.000 C 
BRANCH   5   6
ATOM      6  C   UNL     1       6.058   4.947  16.281  0.00  0.00    +0.000 C 
BRANCH   6   7
ATOM      7  C   UNL     1       4.687   4.312  16.056  0.00  0.00    +0.000 C 
BRANCH   7   8
ATOM      8  O   UNL     1       4.600   3.059  16.738  0.00  0.00    +0.000 OA
BRANCH   8   9
ATOM      9  C   UNL     1       3.726   3.034  17.798  0.00  0.00    +0.000 A 
ATOM     10  C   UNL     1       2.339   3.194  17.709  0.00  0.00    +0.000 A 
ATOM     11  C   UNL     1       1.543   3.143  18.855  0.00  0.00    +0.000 A 
ATOM     12  C   UNL     1       2.133   2.932  20.097  0.00  0.00    +0.000 A 
ATOM     13 CL   UNL     1       1.147   2.869  21.506  0.00  0.00    +0.000 Cl
ATOM     14  C   UNL     1       3.511   2.772  20.202  0.00  0.00    +0.000 A 
ATOM     15  C   UNL     1       4.307   2.824  19.052  0.00  0.00    +0.000 A 
ENDBRANCH   8   9
ENDBRANCH   7   8
ENDBRANCH   6   7
ENDBRANCH   5   6
ENDBRANCH   2   5
BRANCH   3  16
ATOM     16  C   UNL     1       8.368   8.940  18.150  0.00  0.00    +0.000 C 
BRANCH  16  17
ATOM     17  C   UNL     1       8.446  10.449  17.911  0.00  0.00    +0.000 C 
BRANCH  17  18
ATOM     18  C   UNL     1       9.683  11.065  18.520  0.00  0.00    +0.000 A 
ATOM     19  C   UNL     1       9.827  11.137  19.913  0.00  0.00    +0.000 A 
ATOM     20  C   UNL     1      10.960  11.723  20.480  0.00  0.00    +0.000 A 
ATOM     21  C   UNL     1      11.961  12.247  19.664  0.00  0.00    +0.000 A 
ATOM     22  C   UNL     1      11.829  12.181  18.279  0.00  0.00    +0.000 A 
ATOM     23  C   UNL     1      10.696  11.594  17.708  0.00  0.00    +0.000 A 
ENDBRANCH  17  18
ENDBRANCH  16  17
ENDBRANCH   3  16
TORSDOF 8
ENDMDL
MODEL 6
REMARK VINA RESULT:      -6.6      0.775      1.325
REMARK  Name = 
REMARK  8 active torsions:
REMARK  status: ('A' for Active; 'I' for Inactive)
REMARK    1  A    between atoms: C_2  and  C_3
REMARK    2  A    between atoms: C_3  and  C_4
REMARK    3  A    between atoms: C_4  and  C_5
REMARK    4  A    between atoms: C_5  and  O_6
REMARK    5  A    between atoms: O_6  and  C_7
REMARK    6  A    between atoms: N_14  and  C_15
REMARK    7  A    between atoms: C_15  and  C_16
REMARK    8  A    between atoms: C_16  and  C_17
REMARK                            x       y       z     vdW  Elec       q    Type
REMARK                         _______ _______ _______ _____ _____    ______ ____
ROOT
ATOM      1  O   UNL     1       2.359   1.709  18.870  0.00  0.00    +0.000 OA
ATOM      2  C   UNL     1       2.987   2.516  19.542  0.00  0.00    +0.000 C 
ATOM      3  N   UNL     1       3.967   3.332  19.015  0.00  0.00    +0.000 N 
ATOM      4  H   UNL     1       4.396   4.041  19.595  0.00  0.00    +0.000 HD
ENDROOT
BRANCH   2   5
ATOM      5  C   UNL     1       2.745   2.714  21.031  0.00  0.00    +0.000 C 
BRANCH   5   6
ATOM      6  C   UNL     1       1.389   3.366  21.322  0.00  0.00    +0.000 C 
BRANCH   6   7
ATOM      7  C   UNL     1       1.161   4.584  20.430  0.00  0.00    +0.000 C 
BRANCH   7   8
ATOM      8  O   UNL     1       2.277   5.475  20.508  0.00  0.00    +0.000 OA
BRANCH   8   9
ATOM      9  C   UNL     1       2.058   6.729  19.992  0.00  0.00    +0.000 A 
ATOM     10  C   UNL     1       2.477   7.172  18.732  0.00  0.00    +0.000 A 
ATOM     11  C   UNL     1       2.192   8.470  18.305  0.00  0.00    +0.000 A 
ATOM     12  C   UNL     1       1.487   9.332  19.138  0.00  0.00    +0.000 A 
ATOM     13 CL   UNL     1       1.139  10.931  18.606  0.00  0.00    +0.000 Cl
ATOM     14  C   UNL     1       1.066   8.908  20.395  0.00  0.00    +0.000 A 
ATOM     15  C   UNL     1       1.352   7.606  20.821  0.00  0.00    +0.000 A 
ENDBRANCH   8   9
ENDBRANCH   7   8
ENDBRANCH   6   7
ENDBRANCH   5   6
ENDBRANCH   2   5
BRANCH   3  16
ATOM     16  C   UNL     1       4.319   3.245  17.604  0.00  0.00    +0.000 C 
BRANCH  16  17
ATOM     17  C   UNL     1       4.391   4.612  16.922  0.00  0.00    +0.000 C 
BRANCH  17  18
ATOM     18  C   UNL     1       5.588   5.416  17.369  0.00  0.00    +0.000 A 
ATOM     19  C   UNL     1       5.701   6.771  17.025  0.00  0.00    +0.000 A 
ATOM     20  C   UNL     1       6.816   7.513  17.419  0.00  0.00    +0.000 A 
ATOM     21  C   UNL     1       7.832   6.911  18.159  0.00  0.00    +0.000 A 
ATOM     22  C   UNL     1       7.731   5.566  18.507  0.00  0.00    +0.000 A 
ATOM     23  C   UNL     1       6.615   4.820  18.114  0.00  0.00    +0.000 A 
ENDBRANCH  17  18
ENDBRANCH  16  17
ENDBRANCH   3  16
TORSDOF 8
ENDMDL
MODEL 7
REMARK VINA RESULT:      -6.6      4.569      7.502
REMARK  Name = 
REMARK  8 active torsions:
REMARK  status: ('A' for Active; 'I' for Inactive)
REMARK    1  A    between atoms: C_2  and  C_3
REMARK    2  A    between atoms: C_3  and  C_4
REMARK    3  A    between atoms: C_4  and  C_5
REMARK    4  A    between atoms: C_5  and  O_6
REMARK    5  A    between atoms: O_6  and  C_7
REMARK    6  A    between atoms: N_14  and  C_15
REMARK    7  A    between atoms: C_15  and  C_16
REMARK    8  A    between atoms: C_16  and  C_17
REMARK                            x       y       z     vdW  Elec       q    Type
REMARK                         _______ _______ _______ _____ _____    ______ ____
ROOT
ATOM      1  O   UNL     1       6.878   5.332  19.775  0.00  0.00    +0.000 OA
ATOM      2  C   UNL     1       7.296   5.878  18.763  0.00  0.00    +0.000 C 
ATOM      3  N   UNL     1       6.983   5.445  17.492  0.00  0.00    +0.000 N 
ATOM      4  H   UNL     1       7.284   5.982  16.690  0.00  0.00    +0.000 HD
ENDROOT
BRANCH   2   5
ATOM      5  C   UNL     1       8.199   7.102  18.800  0.00  0.00    +0.000 C 
BRANCH   5   6
ATOM      6  C   UNL     1       8.042   7.983  17.556  0.00  0.00    +0.000 C 
BRANCH   6   7
ATOM      7  C   UNL     1       7.987   9.462  17.932  0.00  0.00    +0.000 C 
BRANCH   7   8
ATOM      8  O   UNL     1       9.036   9.782  18.850  0.00  0.00    +0.000 OA
BRANCH   8   9
ATOM      9  C   UNL     1       9.568  11.041  18.710  0.00  0.00    +0.000 A 
ATOM     10  C   UNL     1       9.044  12.058  17.903  0.00  0.00    +0.000 A 
ATOM     11  C   UNL     1       9.665  13.307  17.841  0.00  0.00    +0.000 A 
ATOM     12  C   UNL     1      10.815  13.544  18.586  0.00  0.00    +0.000 A 
ATOM     13 CL   UNL     1      11.576  15.085  18.506  0.00  0.00    +0.000 Cl
ATOM     14  C   UNL     1      11.350  12.543  19.392  0.00  0.00    +0.000 A 
ATOM     15  C   UNL     1      10.725  11.291  19.452  0.00  0.00    +0.000 A 
ENDBRANCH   8   9
ENDBRANCH   7   8
ENDBRANCH   6   7
ENDBRANCH   5   6
ENDBRANCH   2   5
BRANCH   3  16
ATOM     16  C   UNL     1       6.138   4.274  17.299  0.00  0.00    +0.000 C 
BRANCH  16  17
ATOM     17  C   UNL     1       4.816   4.600  16.600  0.00  0.00    +0.000 C 
BRANCH  17  18
ATOM     18  C   UNL     1       3.622   4.047  17.341  0.00  0.00    +0.000 A 
ATOM     19  C   UNL     1       3.495   2.667  17.551  0.00  0.00    +0.000 A 
ATOM     20  C   UNL     1       2.383   2.149  18.219  0.00  0.00    +0.000 A 
ATOM     21  C   UNL     1       1.384   3.003  18.680  0.00  0.00    +0.000 A 
ATOM     22  C   UNL     1       1.499   4.377  18.478  0.00  0.00    +0.000 A 
ATOM     23  C   UNL     1       2.613   4.898  17.811  0.00  0.00    +0.000 A 
ENDBRANCH  17  18
ENDBRANCH  16  17
ENDBRANCH   3  16
TORSDOF 8
ENDMDL
MODEL 8
REMARK VINA RESULT:      -6.6      4.768      6.907
REMARK  Name = 
REMARK  8 active torsions:
REMARK  status: ('A' for Active; 'I' for Inactive)
REMARK    1  A    between atoms: C_2  and  C_3
REMARK    2  A    between atoms: C_3  and  C_4
REMARK    3  A    between atoms: C_4  and  C_5
REMARK    4  A    between atoms: C_5  and  O_6
REMARK    5  A    between atoms: O_6  and  C_7
REMARK    6  A    between atoms: N_14  and  C_15
REMARK    7  A    between atoms: C_15  and  C_16
REMARK    8  A    between atoms: C_16  and  C_17
REMARK                            x       y       z     vdW  Elec       q    Type
REMARK                         _______ _______ _______ _____ _____    ______ ____
ROOT
ATOM      1  O   UNL     1       7.056   8.266  16.962  0.00  0.00    +0.000 OA
ATOM      2  C   UNL     1       7.698   7.712  17.844  0.00  0.00    +0.000 C 
ATOM      3  N   UNL     1       8.578   8.384  18.667  0.00  0.00    +0.000 N 
ATOM      4  H   UNL     1       9.020   7.896  19.434  0.00  0.00    +0.000 HD
ENDROOT
BRANCH   2   5
ATOM      5  C   UNL     1       7.588   6.222  18.132  0.00  0.00    +0.000 C 
BRANCH   5   6
ATOM      6  C   UNL     1       7.058   5.432  16.930  0.00  0.00    +0.000 C 
BRANCH   6   7
ATOM      7  C   UNL     1       6.453   4.100  17.370  0.00  0.00    +0.000 C 
BRANCH   7   8
ATOM      8  O   UNL     1       5.071   4.037  17.007  0.00  0.00    +0.000 OA
BRANCH   8   9
ATOM      9  C   UNL     1       4.203   3.842  18.054  0.00  0.00    +0.000 A 
ATOM     10  C   UNL     1       3.994   4.735  19.111  0.00  0.00    +0.000 A 
ATOM     11  C   UNL     1       3.078   4.438  20.122  0.00  0.00    +0.000 A 
ATOM     12  C   UNL     1       2.367   3.243  20.079  0.00  0.00    +0.000 A 
ATOM     13 CL   UNL     1       1.240   2.881  21.328  0.00  0.00    +0.000 Cl
ATOM     14  C   UNL     1       2.565   2.343  19.036  0.00  0.00    +0.000 A 
ATOM     15  C   UNL     1       3.484   2.644  18.024  0.00  0.00    +0.000 A 
ENDBRANCH   8   9
ENDBRANCH   7   8
ENDBRANCH   6   7
ENDBRANCH   5   6
ENDBRANCH   2   5
BRANCH   3  16
ATOM     16  C   UNL     1       8.800   9.814  18.499  0.00  0.00    +0.000 C 
BRANCH  16  17
ATOM     17  C   UNL     1       9.579  10.437  19.659  0.00  0.00    +0.000 C 
BRANCH  17  18
ATOM     18  C   UNL     1      10.551  11.496  19.196  0.00  0.00    +0.000 A 
ATOM     19  C   UNL     1      11.433  12.095  20.107  0.00  0.00    +0.000 A 
ATOM     20  C   UNL     1      12.320  13.089  19.687  0.00  0.00    +0.000 A 
ATOM     21  C   UNL     1      12.333  13.499  18.356  0.00  0.00    +0.000 A 
ATOM     22  C   UNL     1      11.460  12.912  17.442  0.00  0.00    +0.000 A 
ATOM     23  C   UNL     1      10.572  11.915  17.859  0.00  0.00    +0.000 A 
ENDBRANCH  17  18
ENDBRANCH  16  17
ENDBRANCH   3  16
TORSDOF 8
ENDMDL
MODEL 9
REMARK VINA RESULT:      -6.5      3.513      5.236
REMARK  Name = 
REMARK  8 active torsions:
REMARK  status: ('A' for Active; 'I' for Inactive)
REMARK    1  A    between atoms: C_2  and  C_3
REMARK    2  A    between atoms: C_3  and  C_4
REMARK    3  A    between atoms: C_4  and  C_5
REMARK    4  A    between atoms: C_5  and  O_6
REMARK    5  A    between atoms: O_6  and  C_7
REMARK    6  A    between atoms: N_14  and  C_15
REMARK    7  A    between atoms: C_15  and  C_16
REMARK    8  A    between atoms: C_16  and  C_17
REMARK                            x       y       z     vdW  Elec       q    Type
REMARK                         _______ _______ _______ _____ _____    ______ ____
ROOT
ATOM      1  O   UNL     1       7.912   5.503  19.589  0.00  0.00    +0.000 OA
ATOM      2  C   UNL     1       7.687   5.780  18.418  0.00  0.00    +0.000 C 
ATOM      3  N   UNL     1       7.902   7.036  17.890  0.00  0.00    +0.000 N 
ATOM      4  H   UNL     1       7.781   7.191  16.898  0.00  0.00    +0.000 HD
ENDROOT
BRANCH   2   5
ATOM      5  C   UNL     1       7.156   4.765  17.417  0.00  0.00    +0.000 C 
BRANCH   5   6
ATOM      6  C   UNL     1       6.649   5.423  16.130  0.00  0.00    +0.000 C 
BRANCH   6   7
ATOM      7  C   UNL     1       5.125   5.364  16.043  0.00  0.00    +0.000 C 
BRANCH   7   8
ATOM      8  O   UNL     1       4.574   4.896  17.277  0.00  0.00    +0.000 OA
BRANCH   8   9
ATOM      9  C   UNL     1       3.775   5.798  17.937  0.00  0.00    +0.000 A 
ATOM     10  C   UNL     1       3.111   5.559  19.145  0.00  0.00    +0.000 A 
ATOM     11  C   UNL     1       2.328   6.554  19.734  0.00  0.00    +0.000 A 
ATOM     12  C   UNL     1       2.206   7.794  19.115  0.00  0.00    +0.000 A 
ATOM     13 CL   UNL     1       1.241   9.017  19.844  0.00  0.00    +0.000 Cl
ATOM     14  C   UNL     1       2.860   8.046  17.912  0.00  0.00    +0.000 A 
ATOM     15  C   UNL     1       3.644   7.047  17.324  0.00  0.00    +0.000 A 
ENDBRANCH   8   9
ENDBRANCH   7   8
ENDBRANCH   6   7
ENDBRANCH   5   6
ENDBRANCH   2   5
BRANCH   3  16
ATOM     16  C   UNL     1       8.396   8.117  18.733  0.00  0.00    +0.000 C 
BRANCH  16  17
ATOM     17  C   UNL     1       8.362   9.479  18.037  0.00  0.00    +0.000 C 
BRANCH  17  18
ATOM     18  C   UNL     1       9.311  10.470  18.667  0.00  0.00    +0.000 A 
ATOM     19  C   UNL     1      10.211  11.194  17.872  0.00  0.00    +0.000 A 
ATOM     20  C   UNL     1      11.104  12.098  18.452  0.00  0.00    +0.000 A 
ATOM     21  C   UNL     1      11.111  12.286  19.832  0.00  0.00    +0.000 A 
ATOM     22  C   UNL     1      10.222  11.573  20.633  0.00  0.00    +0.000 A 
ATOM     23  C   UNL     1       9.326  10.668  20.054  0.00  0.00    +0.000 A 
ENDBRANCH  17  18
ENDBRANCH  16  17
ENDBRANCH   3  16
TORSDOF 8
ENDMDL
