MODEL 1
REMARK VINA RESULT:      -8.2      0.000      0.000
REMARK  Name = 
REMARK  5 active torsions:
REMARK  status: ('A' for Active; 'I' for Inactive)
REMARK    1  A    between atoms: C_1  and  C_2
REMARK    2  A    between atoms: C_9  and  C_10
REMARK    3  A    between atoms: C_14  and  C_15
REMARK    4  A    between atoms: N_19  and  C_20
REMARK    5  A    between atoms: C_29  and  O_30
REMARK                            x       y       z     vdW  Elec       q    Type
REMARK                         _______ _______ _______ _____ _____    ______ ____
ROOT
ATOM      1  C   UNL     1       3.452   2.183  20.787  0.00  0.00    +0.000 C 
ATOM      2  C   UNL     1       2.502   3.357  20.669  0.00  0.00    +0.000 C 
ATOM      3  O   UNL     1       1.827   3.712  21.628  0.00  0.00    +0.000 OA
ATOM      4  N   UNL     1       2.471   4.016  19.452  0.00  0.00    +0.000 N 
ATOM      5  C   UNL     1       3.248   3.594  18.286  0.00  0.00    +0.000 C 
ATOM      6  C   UNL     1       4.395   4.576  18.015  0.00  0.00    +0.000 C 
ATOM      7  C   UNL     1       3.849   5.955  18.081  0.00  0.00    +0.000 A 
ATOM      8  C   UNL     1       2.644   6.305  18.662  0.00  0.00    +0.000 A 
ATOM      9  C   UNL     1       2.545   7.721  18.459  0.00  0.00    +0.000 A 
ATOM     10  N   UNL     1       3.633   8.175  17.802  0.00  0.00    +0.000 NA
ATOM     11  N   UNL     1       4.430   7.097  17.614  0.00  0.00    +0.000 N 
ATOM     12  C   UNL     1       1.738   5.297  19.315  0.00  0.00    +0.000 C 
ENDROOT
BRANCH  11  13
ATOM     13  C   UNL     1       5.742   7.225  16.971  0.00  0.00    +0.000 C 
ATOM     14  C   UNL     1       5.998   6.071  16.040  0.00  0.00    +0.000 A 
ATOM     15  C   UNL     1       5.231   5.695  14.941  0.00  0.00    +0.000 A 
ATOM     16  C   UNL     1       5.470   4.449  14.363  0.00  0.00    +0.000 A 
ATOM     17 CL   UNL     1       4.477   3.917  13.061  0.00  0.00    +0.000 Cl
ATOM     18  C   UNL     1       6.470   3.604  14.860  0.00  0.00    +0.000 A 
ATOM     19  C   UNL     1       7.273   4.014  15.929  0.00  0.00    +0.000 A 
ATOM     20  C   UNL     1       7.035   5.257  16.504  0.00  0.00    +0.000 A 
ATOM     21  C   UNL     1       7.688   5.822  17.728  0.00  0.00    +0.000 C 
ATOM     22  C   UNL     1       6.916   7.138  17.985  0.00  0.00    +0.000 C 
BRANCH  22  23
ATOM     23  O   UNL     1       7.803   8.265  17.857  0.00  0.00    +0.000 OA
ATOM     24  H   UNL     1       7.696   8.645  16.967  0.00  0.00    +0.000 HD
ENDBRANCH  22  23
ENDBRANCH  11  13
BRANCH   9  25
ATOM     25  C   UNL     1       1.473   8.653  18.853  0.00  0.00    +0.000 A 
ATOM     26  C   UNL     1       0.686   9.310  17.895  0.00  0.00    +0.000 A 
ATOM     27  C   UNL     1      -0.340  10.183  18.281  0.00  0.00    +0.000 A 
ATOM     28  C   UNL     1      -0.584  10.424  19.631  0.00  0.00    +0.000 A 
ATOM     29  C   UNL     1       0.202   9.796  20.604  0.00  0.00    +0.000 A 
ATOM     30  C   UNL     1       1.224   8.917  20.211  0.00  0.00    +0.000 A 
BRANCH  29  31
ATOM     31  C   UNL     1      -0.027  10.063  21.991  0.00  0.00    +0.000 C 
ATOM     32  N   UNL     1      -0.208  10.265  23.130  0.00  0.00    +0.000 NA
ENDBRANCH  29  31
ENDBRANCH   9  25
TORSDOF 4
ENDMDL
MODEL 2
REMARK VINA RESULT:      -8.0      7.949      9.694
REMARK  Name = 
REMARK  5 active torsions:
REMARK  status: ('A' for Active; 'I' for Inactive)
REMARK    1  A    between atoms: C_1  and  C_2
REMARK    2  A    between atoms: C_9  and  C_10
REMARK    3  A    between atoms: C_14  and  C_15
REMARK    4  A    between atoms: N_19  and  C_20
REMARK    5  A    between atoms: C_29  and  O_30
REMARK                            x       y       z     vdW  Elec       q    Type
REMARK                         _______ _______ _______ _____ _____    ______ ____
ROOT
ATOM      1  C   UNL     1       2.196  13.416  18.545  0.00  0.00    +0.000 C 
ATOM      2  C   UNL     1       2.874  13.854  19.827  0.00  0.00    +0.000 C 
ATOM      3  O   UNL     1       2.557  13.358  20.900  0.00  0.00    +0.000 OA
ATOM      4  N   UNL     1       3.879  14.799  19.711  0.00  0.00    +0.000 N 
ATOM      5  C   UNL     1       4.257  15.424  18.443  0.00  0.00    +0.000 C 
ATOM      6  C   UNL     1       5.623  14.910  17.971  0.00  0.00    +0.000 C 
ATOM      7  C   UNL     1       6.557  14.952  19.124  0.00  0.00    +0.000 A 
ATOM      8  C   UNL     1       6.178  15.053  20.450  0.00  0.00    +0.000 A 
ATOM      9  C   UNL     1       7.414  15.079  21.176  0.00  0.00    +0.000 A 
ATOM     10  N   UNL     1       8.457  14.993  20.325  0.00  0.00    +0.000 NA
ATOM     11  N   UNL     1       7.918  14.878  19.088  0.00  0.00    +0.000 N 
ATOM     12  C   UNL     1       4.736  15.123  20.876  0.00  0.00    +0.000 C 
ENDROOT
BRANCH  11  13
ATOM     13  C   UNL     1       8.766  14.707  17.903  0.00  0.00    +0.000 C 
ATOM     14  C   UNL     1       9.377  13.332  17.876  0.00  0.00    +0.000 A 
ATOM     15  C   UNL     1       8.702  12.114  17.863  0.00  0.00    +0.000 A 
ATOM     16  C   UNL     1       9.431  10.953  18.110  0.00  0.00    +0.000 A 
ATOM     17 CL   UNL     1       8.610   9.441  18.192  0.00  0.00    +0.000 Cl
ATOM     18  C   UNL     1      10.812  11.003  18.344  0.00  0.00    +0.000 A 
ATOM     19  C   UNL     1      11.490  12.225  18.300  0.00  0.00    +0.000 A 
ATOM     20  C   UNL     1      10.763  13.383  18.052  0.00  0.00    +0.000 A 
ATOM     21  C   UNL     1      11.273  14.791  18.093  0.00  0.00    +0.000 C 
ATOM     22  C   UNL     1      10.000  15.651  17.909  0.00  0.00    +0.000 C 
BRANCH  22  23
ATOM     23  O   UNL     1      10.086  16.408  16.687  0.00  0.00    +0.000 OA
ATOM     24  H   UNL     1      10.974  16.801  16.627  0.00  0.00    +0.000 HD
ENDBRANCH  22  23
ENDBRANCH  11  13
BRANCH   9  25
ATOM     25  C   UNL     1       7.647  15.187  22.628  0.00  0.00    +0.000 A 
ATOM     26  C   UNL     1       8.061  16.392  23.216  0.00  0.00    +0.000 A 
ATOM     27  C   UNL     1       8.265  16.486  24.599  0.00  0.00    +0.000 A 
ATOM     28  C   UNL     1       8.075  15.372  25.413  0.00  0.00    +0.000 A 
ATOM     29  C   UNL     1       7.683  14.153  24.846  0.00  0.00    +0.000 A 
ATOM     30  C   UNL     1       7.472  14.068  23.461  0.00  0.00    +0.000 A 
BRANCH  29  31
ATOM     31  C   UNL     1       7.514  12.999  25.675  0.00  0.00    +0.000 C 
ATOM     32  N   UNL     1       7.359  12.062  26.359  0.00  0.00    +0.000 NA
ENDBRANCH  29  31
ENDBRANCH   9  25
TORSDOF 4
ENDMDL
MODEL 3
REMARK VINA RESULT:      -7.7      1.308      1.844
REMARK  Name = 
REMARK  5 active torsions:
REMARK  status: ('A' for Active; 'I' for Inactive)
REMARK    1  A    between atoms: C_1  and  C_2
REMARK    2  A    between atoms: C_9  and  C_10
REMARK    3  A    between atoms: C_14  and  C_15
REMARK    4  A    between atoms: N_19  and  C_20
REMARK    5  A    between atoms: C_29  and  O_30
REMARK                            x       y       z     vdW  Elec       q    Type
REMARK                         _______ _______ _______ _____ _____    ______ ____
ROOT
ATOM      1  C   UNL     1       3.460   2.378  20.801  0.00  0.00    +0.000 C 
ATOM      2  C   UNL     1       2.476   3.518  20.634  0.00  0.00    +0.000 C 
ATOM      3  O   UNL     1       1.778   3.880  21.572  0.00  0.00    +0.000 OA
ATOM      4  N   UNL     1       2.441   4.137  19.397  0.00  0.00    +0.000 N 
ATOM      5  C   UNL     1       3.247   3.704  18.254  0.00  0.00    +0.000 C 
ATOM      6  C   UNL     1       4.367   4.712  17.967  0.00  0.00    +0.000 C 
ATOM      7  C   UNL     1       3.777   6.075  17.983  0.00  0.00    +0.000 A 
ATOM      8  C   UNL     1       2.555   6.405  18.537  0.00  0.00    +0.000 A 
ATOM      9  C   UNL     1       2.415   7.810  18.288  0.00  0.00    +0.000 A 
ATOM     10  N   UNL     1       3.496   8.277  17.631  0.00  0.00    +0.000 NA
ATOM     11  N   UNL     1       4.329   7.219  17.487  0.00  0.00    +0.000 N 
ATOM     12  C   UNL     1       1.671   5.390  19.210  0.00  0.00    +0.000 C 
ENDROOT
BRANCH  11  13
ATOM     13  C   UNL     1       5.645   7.369  16.857  0.00  0.00    +0.000 C 
ATOM     14  C   UNL     1       5.965   6.178  15.994  0.00  0.00    +0.000 A 
ATOM     15  C   UNL     1       5.233   5.710  14.907  0.00  0.00    +0.000 A 
ATOM     16  C   UNL     1       5.534   4.446  14.402  0.00  0.00    +0.000 A 
ATOM     17 CL   UNL     1       4.586   3.801  13.117  0.00  0.00    +0.000 Cl
ATOM     18  C   UNL     1       6.561   3.673  14.960  0.00  0.00    +0.000 A 
ATOM     19  C   UNL     1       7.327   4.175  16.016  0.00  0.00    +0.000 A 
ATOM     20  C   UNL     1       7.028   5.435  16.518  0.00  0.00    +0.000 A 
ATOM     21  C   UNL     1       7.635   6.094  17.718  0.00  0.00    +0.000 C 
ATOM     22  C   UNL     1       6.804   7.387  17.891  0.00  0.00    +0.000 C 
BRANCH  22  23
ATOM     23  O   UNL     1       7.646   8.543  17.714  0.00  0.00    +0.000 OA
ATOM     24  H   UNL     1       7.165   9.328  18.030  0.00  0.00    +0.000 HD
ENDBRANCH  22  23
ENDBRANCH  11  13
BRANCH   9  25
ATOM     25  C   UNL     1       1.309   8.719  18.639  0.00  0.00    +0.000 A 
ATOM     26  C   UNL     1       1.186   9.260  19.928  0.00  0.00    +0.000 A 
ATOM     27  C   UNL     1       0.139  10.135  20.245  0.00  0.00    +0.000 A 
ATOM     28  C   UNL     1      -0.810  10.471  19.283  0.00  0.00    +0.000 A 
ATOM     29  C   UNL     1      -0.721   9.927  17.996  0.00  0.00    +0.000 A 
ATOM     30  C   UNL     1       0.335   9.057  17.682  0.00  0.00    +0.000 A 
BRANCH  29  31
ATOM     31  C   UNL     1      -1.709  10.248  17.013  0.00  0.00    +0.000 C 
ATOM     32  N   UNL     1      -2.513  10.527  16.208  0.00  0.00    +0.000 NA
ENDBRANCH  29  31
ENDBRANCH   9  25
TORSDOF 4
ENDMDL
MODEL 4
REMARK VINA RESULT:      -7.6      8.073      9.807
REMARK  Name = 
REMARK  5 active torsions:
REMARK  status: ('A' for Active; 'I' for Inactive)
REMARK    1  A    between atoms: C_1  and  C_2
REMARK    2  A    between atoms: C_9  and  C_10
REMARK    3  A    between atoms: C_14  and  C_15
REMARK    4  A    between atoms: N_19  and  C_20
REMARK    5  A    between atoms: C_29  and  O_30
REMARK                            x       y       z     vdW  Elec       q    Type
REMARK                         _______ _______ _______ _____ _____    ______ ____
ROOT
ATOM      1  C   UNL     1       2.149  13.239  18.537  0.00  0.00    +0.000 C 
ATOM      2  C   UNL     1       2.802  13.739  19.810  0.00  0.00    +0.000 C 
ATOM      3  O   UNL     1       2.498  13.259  20.895  0.00  0.00    +0.000 OA
ATOM      4  N   UNL     1       3.770  14.718  19.673  0.00  0.00    +0.000 N 
ATOM      5  C   UNL     1       4.129  15.324  18.389  0.00  0.00    +0.000 C 
ATOM      6  C   UNL     1       5.517  14.851  17.937  0.00  0.00    +0.000 C 
ATOM      7  C   UNL     1       6.442  14.960  19.093  0.00  0.00    +0.000 A 
ATOM      8  C   UNL     1       6.053  15.082  20.413  0.00  0.00    +0.000 A 
ATOM      9  C   UNL     1       7.283  15.177  21.144  0.00  0.00    +0.000 A 
ATOM     10  N   UNL     1       8.333  15.109  20.300  0.00  0.00    +0.000 NA
ATOM     11  N   UNL     1       7.806  14.940  19.064  0.00  0.00    +0.000 N 
ATOM     12  C   UNL     1       4.608  15.108  20.831  0.00  0.00    +0.000 C 
ENDROOT
BRANCH  11  13
ATOM     13  C   UNL     1       8.665  14.770  17.888  0.00  0.00    +0.000 C 
ATOM     14  C   UNL     1       9.280  13.396  17.868  0.00  0.00    +0.000 A 
ATOM     15  C   UNL     1       8.609  12.177  17.849  0.00  0.00    +0.000 A 
ATOM     16  C   UNL     1       9.338  11.017  18.103  0.00  0.00    +0.000 A 
ATOM     17 CL   UNL     1       8.519   9.504  18.178  0.00  0.00    +0.000 Cl
ATOM     18  C   UNL     1      10.716  11.071  18.351  0.00  0.00    +0.000 A 
ATOM     19  C   UNL     1      11.391  12.294  18.313  0.00  0.00    +0.000 A 
ATOM     20  C   UNL     1      10.664  13.450  18.057  0.00  0.00    +0.000 A 
ATOM     21  C   UNL     1      11.170  14.860  18.103  0.00  0.00    +0.000 C 
ATOM     22  C   UNL     1       9.897  15.717  17.906  0.00  0.00    +0.000 C 
BRANCH  22  23
ATOM     23  O   UNL     1       9.994  16.473  16.684  0.00  0.00    +0.000 OA
ATOM     24  H   UNL     1       9.444  16.041  16.007  0.00  0.00    +0.000 HD
ENDBRANCH  22  23
ENDBRANCH  11  13
BRANCH   9  25
ATOM     25  C   UNL     1       7.504  15.333  22.593  0.00  0.00    +0.000 A 
ATOM     26  C   UNL     1       8.286  14.419  23.317  0.00  0.00    +0.000 A 
ATOM     27  C   UNL     1       8.502  14.585  24.691  0.00  0.00    +0.000 A 
ATOM     28  C   UNL     1       7.926  15.659  25.366  0.00  0.00    +0.000 A 
ATOM     29  C   UNL     1       7.126  16.572  24.670  0.00  0.00    +0.000 A 
ATOM     30  C   UNL     1       6.920  16.404  23.291  0.00  0.00    +0.000 A 
BRANCH  29  31
ATOM     31  C   UNL     1       6.510  17.660  25.365  0.00  0.00    +0.000 C 
ATOM     32  N   UNL     1       5.991  18.547  25.927  0.00  0.00    +0.000 NA
ENDBRANCH  29  31
ENDBRANCH   9  25
TORSDOF 4
ENDMDL
MODEL 5
REMARK VINA RESULT:      -7.3      8.171     10.130
REMARK  Name = 
REMARK  5 active torsions:
REMARK  status: ('A' for Active; 'I' for Inactive)
REMARK    1  A    between atoms: C_1  and  C_2
REMARK    2  A    between atoms: C_9  and  C_10
REMARK    3  A    between atoms: C_14  and  C_15
REMARK    4  A    between atoms: N_19  and  C_20
REMARK    5  A    between atoms: C_29  and  O_30
REMARK                            x       y       z     vdW  Elec       q    Type
REMARK                         _______ _______ _______ _____ _____    ______ ____
ROOT
ATOM      1  C   UNL     1       2.593  16.612  18.836  0.00  0.00    +0.000 C 
ATOM      2  C   UNL     1       3.113  16.046  20.142  0.00  0.00    +0.000 C 
ATOM      3  O   UNL     1       2.399  15.338  20.841  0.00  0.00    +0.000 OA
ATOM      4  N   UNL     1       4.425  16.337  20.471  0.00  0.00    +0.000 N 
ATOM      5  C   UNL     1       5.286  17.203  19.664  0.00  0.00    +0.000 C 
ATOM      6  C   UNL     1       6.366  16.379  18.950  0.00  0.00    +0.000 C 
ATOM      7  C   UNL     1       6.967  15.449  19.938  0.00  0.00    +0.000 A 
ATOM      8  C   UNL     1       6.404  15.109  21.154  0.00  0.00    +0.000 A 
ATOM      9  C   UNL     1       7.353  14.217  21.753  0.00  0.00    +0.000 A 
ATOM     10  N   UNL     1       8.409  14.040  20.933  0.00  0.00    +0.000 NA
ATOM     11  N   UNL     1       8.141  14.765  19.821  0.00  0.00    +0.000 N 
ATOM     12  C   UNL     1       5.078  15.653  21.612  0.00  0.00    +0.000 C 
ENDROOT
BRANCH  11  13
ATOM     13  C   UNL     1       9.058  14.767  18.676  0.00  0.00    +0.000 C 
ATOM     14  C   UNL     1       9.596  13.386  18.417  0.00  0.00    +0.000 A 
ATOM     15  C   UNL     1       8.860  12.239  18.130  0.00  0.00    +0.000 A 
ATOM     16  C   UNL     1       9.507  11.007  18.188  0.00  0.00    +0.000 A 
ATOM     17 CL   UNL     1       8.603   9.564  17.928  0.00  0.00    +0.000 Cl
ATOM     18  C   UNL     1      10.869  10.921  18.506  0.00  0.00    +0.000 A 
ATOM     19  C   UNL     1      11.612  12.082  18.738  0.00  0.00    +0.000 A 
ATOM     20  C   UNL     1      10.967  13.311  18.679  0.00  0.00    +0.000 A 
ATOM     21  C   UNL     1      11.547  14.649  19.021  0.00  0.00    +0.000 C 
ATOM     22  C   UNL     1      10.337  15.610  18.935  0.00  0.00    +0.000 C 
BRANCH  22  23
ATOM     23  O   UNL     1      10.547  16.578  17.890  0.00  0.00    +0.000 OA
ATOM     24  H   UNL     1       9.871  17.273  17.970  0.00  0.00    +0.000 HD
ENDBRANCH  22  23
ENDBRANCH  11  13
BRANCH   9  25
ATOM     25  C   UNL     1       7.305  13.534  23.059  0.00  0.00    +0.000 A 
ATOM     26  C   UNL     1       6.526  12.384  23.256  0.00  0.00    +0.000 A 
ATOM     27  C   UNL     1       6.500  11.735  24.497  0.00  0.00    +0.000 A 
ATOM     28  C   UNL     1       7.240  12.235  25.565  0.00  0.00    +0.000 A 
ATOM     29  C   UNL     1       8.009  13.393  25.399  0.00  0.00    +0.000 A 
ATOM     30  C   UNL     1       8.037  14.034  24.150  0.00  0.00    +0.000 A 
BRANCH  29  31
ATOM     31  C   UNL     1       8.749  13.926  26.501  0.00  0.00    +0.000 C 
ATOM     32  N   UNL     1       9.356  14.345  27.411  0.00  0.00    +0.000 NA
ENDBRANCH  29  31
ENDBRANCH   9  25
TORSDOF 4
ENDMDL
MODEL 6
REMARK VINA RESULT:      -7.3      6.953     10.801
REMARK  Name = 
REMARK  5 active torsions:
REMARK  status: ('A' for Active; 'I' for Inactive)
REMARK    1  A    between atoms: C_1  and  C_2
REMARK    2  A    between atoms: C_9  and  C_10
REMARK    3  A    between atoms: C_14  and  C_15
REMARK    4  A    between atoms: N_19  and  C_20
REMARK    5  A    between atoms: C_29  and  O_30
REMARK                            x       y       z     vdW  Elec       q    Type
REMARK                         _______ _______ _______ _____ _____    ______ ____
ROOT
ATOM      1  C   UNL     1      -4.597  14.211  24.035  0.00  0.00    +0.000 C 
ATOM      2  C   UNL     1      -3.973  13.143  23.159  0.00  0.00    +0.000 C 
ATOM      3  O   UNL     1      -4.678  12.355  22.541  0.00  0.00    +0.000 OA
ATOM      4  N   UNL     1      -2.592  13.138  23.068  0.00  0.00    +0.000 N 
ATOM      5  C   UNL     1      -1.730  14.053  23.818  0.00  0.00    +0.000 C 
ATOM      6  C   UNL     1      -1.105  15.097  22.883  0.00  0.00    +0.000 C 
ATOM      7  C   UNL     1      -0.575  14.390  21.690  0.00  0.00    +0.000 A 
ATOM      8  C   UNL     1      -0.923  13.109  21.306  0.00  0.00    +0.000 A 
ATOM      9  C   UNL     1      -0.145  12.863  20.127  0.00  0.00    +0.000 A 
ATOM     10  N   UNL     1       0.612  13.941  19.834  0.00  0.00    +0.000 NA
ATOM     11  N   UNL     1       0.310  14.871  20.771  0.00  0.00    +0.000 N 
ATOM     12  C   UNL     1      -1.913  12.275  22.073  0.00  0.00    +0.000 C 
ENDROOT
BRANCH  11  13
ATOM     13  C   UNL     1       0.912  16.208  20.734  0.00  0.00    +0.000 C 
ATOM     14  C   UNL     1       0.175  17.102  19.774  0.00  0.00    +0.000 A 
ATOM     15  C   UNL     1      -1.172  17.449  19.817  0.00  0.00    +0.000 A 
ATOM     16  C   UNL     1      -1.732  18.064  18.699  0.00  0.00    +0.000 A 
ATOM     17 CL   UNL     1      -3.417  18.422  18.686  0.00  0.00    +0.000 Cl
ATOM     18  C   UNL     1      -0.957  18.345  17.566  0.00  0.00    +0.000 A 
ATOM     19  C   UNL     1       0.408  18.043  17.554  0.00  0.00    +0.000 A 
ATOM     20  C   UNL     1       0.967  17.432  18.669  0.00  0.00    +0.000 A 
ATOM     21  C   UNL     1       2.365  16.912  18.805  0.00  0.00    +0.000 C 
ATOM     22  C   UNL     1       2.362  16.196  20.177  0.00  0.00    +0.000 C 
BRANCH  22  23
ATOM     23  O   UNL     1       3.275  16.850  21.078  0.00  0.00    +0.000 OA
ATOM     24  H   UNL     1       2.824  16.992  21.929  0.00  0.00    +0.000 HD
ENDBRANCH  22  23
ENDBRANCH  11  13
BRANCH   9  25
ATOM     25  C   UNL     1      -0.084  11.660  19.276  0.00  0.00    +0.000 A 
ATOM     26  C   UNL     1       1.026  10.802  19.300  0.00  0.00    +0.000 A 
ATOM     27  C   UNL     1       1.067   9.654  18.498  0.00  0.00    +0.000 A 
ATOM     28  C   UNL     1       0.005   9.355  17.647  0.00  0.00    +0.000 A 
ATOM     29  C   UNL     1      -1.104  10.208  17.591  0.00  0.00    +0.000 A 
ATOM     30  C   UNL     1      -1.142  11.352  18.403  0.00  0.00    +0.000 A 
BRANCH  29  31
ATOM     31  C   UNL     1      -2.184   9.919  16.698  0.00  0.00    +0.000 C 
ATOM     32  N   UNL     1      -3.080   9.687  15.981  0.00  0.00    +0.000 NA
ENDBRANCH  29  31
ENDBRANCH   9  25
TORSDOF 4
ENDMDL
MODEL 7
REMARK VINA RESULT:      -7.3      6.481     10.053
REMARK  Name = 
REMARK  5 active torsions:
REMARK  status: ('A' for Active; 'I' for Inactive)
REMARK    1  A    between atoms: C_1  and  C_2
REMARK    2  A    between atoms: C_9  and  C_10
REMARK    3  A    between atoms: C_14  and  C_15
REMARK    4  A    between atoms: N_19  and  C_20
REMARK    5  A    between atoms: C_29  and  O_30
REMARK                            x       y       z     vdW  Elec       q    Type
REMARK                         _______ _______ _______ _____ _____    ______ ____
ROOT
ATOM      1  C   UNL     1      -2.284  15.020  25.151  0.00  0.00    +0.000 C 
ATOM      2  C   UNL     1      -1.546  15.735  24.038  0.00  0.00    +0.000 C 
ATOM      3  O   UNL     1      -0.532  16.379  24.276  0.00  0.00    +0.000 OA
ATOM      4  N   UNL     1      -2.051  15.588  22.758  0.00  0.00    +0.000 N 
ATOM      5  C   UNL     1      -3.276  14.845  22.453  0.00  0.00    +0.000 C 
ATOM      6  C   UNL     1      -2.947  13.528  21.740  0.00  0.00    +0.000 C 
ATOM      7  C   UNL     1      -1.969  13.818  20.661  0.00  0.00    +0.000 A 
ATOM      8  C   UNL     1      -1.204  14.966  20.570  0.00  0.00    +0.000 A 
ATOM      9  C   UNL     1      -0.445  14.797  19.365  0.00  0.00    +0.000 A 
ATOM     10  N   UNL     1      -0.744  13.615  18.787  0.00  0.00    +0.000 NA
ATOM     11  N   UNL     1      -1.642  13.018  19.606  0.00  0.00    +0.000 N 
ATOM     12  C   UNL     1      -1.277  16.069  21.589  0.00  0.00    +0.000 C 
ENDROOT
BRANCH  11  13
ATOM     13  C   UNL     1      -2.158  11.676  19.317  0.00  0.00    +0.000 C 
ATOM     14  C   UNL     1      -1.094  10.634  19.539  0.00  0.00    +0.000 A 
ATOM     15  C   UNL     1      -0.408  10.376  20.723  0.00  0.00    +0.000 A 
ATOM     16  C   UNL     1       0.723   9.563  20.667  0.00  0.00    +0.000 A 
ATOM     17 CL   UNL     1       1.645   9.299  22.096  0.00  0.00    +0.000 Cl
ATOM     18  C   UNL     1       1.148   9.001  19.456  0.00  0.00    +0.000 A 
ATOM     19  C   UNL     1       0.420   9.221  18.282  0.00  0.00    +0.000 A 
ATOM     20  C   UNL     1      -0.708  10.030  18.339  0.00  0.00    +0.000 A 
ATOM     21  C   UNL     1      -1.543  10.493  17.184  0.00  0.00    +0.000 C 
ATOM     22  C   UNL     1      -2.539  11.490  17.823  0.00  0.00    +0.000 C 
BRANCH  22  23
ATOM     23  O   UNL     1      -3.886  11.001  17.683  0.00  0.00    +0.000 OA
ATOM     24  H   UNL     1      -4.425  11.691  17.258  0.00  0.00    +0.000 HD
ENDBRANCH  22  23
ENDBRANCH  11  13
BRANCH   9  25
ATOM     25  C   UNL     1       0.539  15.700  18.742  0.00  0.00    +0.000 A 
ATOM     26  C   UNL     1       0.159  16.941  18.208  0.00  0.00    +0.000 A 
ATOM     27  C   UNL     1       1.106  17.798  17.631  0.00  0.00    +0.000 A 
ATOM     28  C   UNL     1       2.445  17.420  17.564  0.00  0.00    +0.000 A 
ATOM     29  C   UNL     1       2.844  16.177  18.070  0.00  0.00    +0.000 A 
ATOM     30  C   UNL     1       1.892  15.327  18.654  0.00  0.00    +0.000 A 
BRANCH  29  31
ATOM     31  C   UNL     1       4.214  15.773  17.978  0.00  0.00    +0.000 C 
ATOM     32  N   UNL     1       5.340  15.459  17.908  0.00  0.00    +0.000 NA
ENDBRANCH  29  31
ENDBRANCH   9  25
TORSDOF 4
ENDMDL
MODEL 8
REMARK VINA RESULT:      -7.3      7.181     12.242
REMARK  Name = 
REMARK  5 active torsions:
REMARK  status: ('A' for Active; 'I' for Inactive)
REMARK    1  A    between atoms: C_1  and  C_2
REMARK    2  A    between atoms: C_9  and  C_10
REMARK    3  A    between atoms: C_14  and  C_15
REMARK    4  A    between atoms: N_19  and  C_20
REMARK    5  A    between atoms: C_29  and  O_30
REMARK                            x       y       z     vdW  Elec       q    Type
REMARK                         _______ _______ _______ _____ _____    ______ ____
ROOT
ATOM      1  C   UNL     1      -2.494  16.972  23.879  0.00  0.00    +0.000 C 
ATOM      2  C   UNL     1      -1.652  15.912  23.199  0.00  0.00    +0.000 C 
ATOM      3  O   UNL     1      -0.785  15.312  23.821  0.00  0.00    +0.000 OA
ATOM      4  N   UNL     1      -1.942  15.639  21.873  0.00  0.00    +0.000 N 
ATOM      5  C   UNL     1      -2.956  16.361  21.103  0.00  0.00    +0.000 C 
ATOM      6  C   UNL     1      -4.176  15.469  20.843  0.00  0.00    +0.000 C 
ATOM      7  C   UNL     1      -3.691  14.147  20.373  0.00  0.00    +0.000 A 
ATOM      8  C   UNL     1      -2.399  13.678  20.518  0.00  0.00    +0.000 A 
ATOM      9  C   UNL     1      -2.414  12.387  19.894  0.00  0.00    +0.000 A 
ATOM     10  N   UNL     1      -3.645  12.113  19.416  0.00  0.00    +0.000 NA
ATOM     11  N   UNL     1      -4.417  13.176  19.748  0.00  0.00    +0.000 N 
ATOM     12  C   UNL     1      -1.320  14.476  21.197  0.00  0.00    +0.000 C 
ENDROOT
BRANCH  11  13
ATOM     13  C   UNL     1      -5.848  13.203  19.432  0.00  0.00    +0.000 C 
ATOM     14  C   UNL     1      -6.668  12.775  20.619  0.00  0.00    +0.000 A 
ATOM     15  C   UNL     1      -6.692  13.367  21.878  0.00  0.00    +0.000 A 
ATOM     16  C   UNL     1      -7.303  12.675  22.922  0.00  0.00    +0.000 A 
ATOM     17 CL   UNL     1      -7.269  13.339  24.511  0.00  0.00    +0.000 Cl
ATOM     18  C   UNL     1      -7.897  11.425  22.708  0.00  0.00    +0.000 A 
ATOM     19  C   UNL     1      -7.916  10.863  21.428  0.00  0.00    +0.000 A 
ATOM     20  C   UNL     1      -7.309  11.555  20.387  0.00  0.00    +0.000 A 
ATOM     21  C   UNL     1      -7.107  11.072  18.983  0.00  0.00    +0.000 C 
ATOM     22  C   UNL     1      -6.238  12.175  18.334  0.00  0.00    +0.000 C 
BRANCH  22  23
ATOM     23  O   UNL     1      -6.960  12.805  17.259  0.00  0.00    +0.000 OA
ATOM     24  H   UNL     1      -6.983  13.764  17.420  0.00  0.00    +0.000 HD
ENDBRANCH  22  23
ENDBRANCH  11  13
BRANCH   9  25
ATOM     25  C   UNL     1      -1.320  11.411  19.730  0.00  0.00    +0.000 A 
ATOM     26  C   UNL     1      -0.985  10.894  18.469  0.00  0.00    +0.000 A 
ATOM     27  C   UNL     1       0.066   9.979  18.322  0.00  0.00    +0.000 A 
ATOM     28  C   UNL     1       0.787   9.555  19.436  0.00  0.00    +0.000 A 
ATOM     29  C   UNL     1       0.456  10.041  20.707  0.00  0.00    +0.000 A 
ATOM     30  C   UNL     1      -0.592  10.964  20.846  0.00  0.00    +0.000 A 
BRANCH  29  31
ATOM     31  C   UNL     1       1.176   9.586  21.857  0.00  0.00    +0.000 C 
ATOM     32  N   UNL     1       1.752   9.203  22.802  0.00  0.00    +0.000 NA
ENDBRANCH  29  31
ENDBRANCH   9  25
TORSDOF 4
ENDMDL
MODEL 9
REMARK VINA RESULT:      -7.3      2.297      2.968
REMARK  Name = 
REMARK  5 active torsions:
REMARK  status: ('A' for Active; 'I' for Inactive)
REMARK    1  A    between atoms: C_1  and  C_2
REMARK    2  A    between atoms: C_9  and  C_10
REMARK    3  A    between atoms: C_14  and  C_15
REMARK    4  A    between atoms: N_19  and  C_20
REMARK    5  A    between atoms: C_29  and  O_30
REMARK                            x       y       z     vdW  Elec       q    Type
REMARK                         _______ _______ _______ _____ _____    ______ ____
ROOT
ATOM      1  C   UNL     1       2.215   1.148  21.681  0.00  0.00    +0.000 C 
ATOM      2  C   UNL     1       1.613   2.535  21.580  0.00  0.00    +0.000 C 
ATOM      3  O   UNL     1       1.260   3.135  22.587  0.00  0.00    +0.000 OA
ATOM      4  N   UNL     1       1.524   3.087  20.314  0.00  0.00    +0.000 N 
ATOM      5  C   UNL     1       1.915   2.378  19.095  0.00  0.00    +0.000 C 
ATOM      6  C   UNL     1       3.208   2.967  18.517  0.00  0.00    +0.000 C 
ATOM      7  C   UNL     1       3.078   4.446  18.504  0.00  0.00    +0.000 A 
ATOM      8  C   UNL     1       2.150   5.168  19.231  0.00  0.00    +0.000 A 
ATOM      9  C   UNL     1       2.398   6.534  18.876  0.00  0.00    +0.000 A 
ATOM     10  N   UNL     1       3.418   6.609  17.995  0.00  0.00    +0.000 NA
ATOM     11  N   UNL     1       3.842   5.336  17.810  0.00  0.00    +0.000 N 
ATOM     12  C   UNL     1       1.151   4.512  20.146  0.00  0.00    +0.000 C 
ENDROOT
BRANCH  11  13
ATOM     13  C   UNL     1       4.988   5.036  16.945  0.00  0.00    +0.000 C 
ATOM     14  C   UNL     1       6.274   5.492  17.581  0.00  0.00    +0.000 A 
ATOM     15  C   UNL     1       6.791   5.089  18.809  0.00  0.00    +0.000 A 
ATOM     16  C   UNL     1       7.849   5.816  19.352  0.00  0.00    +0.000 A 
ATOM     17 CL   UNL     1       8.450   5.398  20.911  0.00  0.00    +0.000 Cl
ATOM     18  C   UNL     1       8.394   6.913  18.671  0.00  0.00    +0.000 A 
ATOM     19  C   UNL     1       7.904   7.276  17.413  0.00  0.00    +0.000 A 
ATOM     20  C   UNL     1       6.851   6.550  16.872  0.00  0.00    +0.000 A 
ATOM     21  C   UNL     1       6.103   6.854  15.610  0.00  0.00    +0.000 C 
ATOM     22  C   UNL     1       4.949   5.823  15.606  0.00  0.00    +0.000 C 
BRANCH  22  23
ATOM     23  O   UNL     1       5.079   4.940  14.476  0.00  0.00    +0.000 OA
ATOM     24  H   UNL     1       4.189   4.696  14.168  0.00  0.00    +0.000 HD
ENDBRANCH  22  23
ENDBRANCH  11  13
BRANCH   9  25
ATOM     25  C   UNL     1       1.715   7.760  19.326  0.00  0.00    +0.000 A 
ATOM     26  C   UNL     1       1.290   8.739  18.414  0.00  0.00    +0.000 A 
ATOM     27  C   UNL     1       0.629   9.894  18.853  0.00  0.00    +0.000 A 
ATOM     28  C   UNL     1       0.397  10.096  20.211  0.00  0.00    +0.000 A 
ATOM     29  C   UNL     1       0.831   9.144  21.141  0.00  0.00    +0.000 A 
ATOM     30  C   UNL     1       1.486   7.985  20.695  0.00  0.00    +0.000 A 
BRANCH  29  31
ATOM     31  C   UNL     1       0.619   9.360  22.540  0.00  0.00    +0.000 C 
ATOM     32  N   UNL     1       0.438   9.554  23.680  0.00  0.00    +0.000 NA
ENDBRANCH  29  31
ENDBRANCH   9  25
TORSDOF 4
ENDMDL
