MODEL 1
REMARK VINA RESULT:      -7.6      0.000      0.000
REMARK  Name = 
REMARK  3 active torsions:
REMARK  status: ('A' for Active; 'I' for Inactive)
REMARK    1  A    between atoms: N_2  and  C_4
REMARK    2  A    between atoms: C_9  and  O_10
REMARK    3  A    between atoms: O_10  and  C_11
REMARK                            x       y       z     vdW  Elec       q    Type
REMARK                         _______ _______ _______ _____ _____    ______ ____
ROOT
ATOM      1  O   UNL     1       4.213   3.221  18.057  0.00  0.00    +0.000 OA
ENDROOT
BRANCH   1   2
ATOM      2  C   UNL     1       5.278   4.110  18.009  0.00  0.00    +0.000 A 
ATOM      3  C   UNL     1       5.760   4.753  19.171  0.00  0.00    +0.000 A 
ATOM      4  C   UNL     1       6.757   5.734  19.107  0.00  0.00    +0.000 A 
ATOM      5  C   UNL     1       7.366   6.062  17.897  0.00  0.00    +0.000 A 
ATOM      6  C   UNL     1       6.944   5.335  16.789  0.00  0.00    +0.000 A 
ATOM      7  O   UNL     1       7.433   5.424  15.520  0.00  0.00    +0.000 OA
ATOM      8  C   UNL     1       6.702   4.506  14.829  0.00  0.00    +0.000 A 
ATOM      9  N   UNL     1       5.787   3.865  15.526  0.00  0.00    +0.000 NA
ATOM     10  C   UNL     1       5.938   4.376  16.798  0.00  0.00    +0.000 A 
ENDBRANCH   1   2
BRANCH   1  16
ATOM     11  C   UNL     1       2.242   4.053  19.140  0.00  0.00    +0.000 A 
ATOM     12  C   UNL     1       1.429   4.023  20.250  0.00  0.00    +0.000 A 
ATOM     13  N   UNL     1       1.722   3.297  21.350  0.00  0.00    +0.000 NA
ATOM     14  C   UNL     1       2.884   2.627  21.316  0.00  0.00    +0.000 A 
ATOM     15  N   UNL     1       3.741   2.607  20.287  0.00  0.00    +0.000 NA
ATOM     16  C   UNL     1       3.386   3.299  19.175  0.00  0.00    +0.000 A 
BRANCH  11  18
ATOM     17  O   UNL     1       2.269   5.995  17.962  0.00  0.00    +0.000 OA
ATOM     18  N   UNL     1       1.855   4.828  18.007  0.00  0.00    +0.000 N 
ATOM     19  O   UNL     1       1.080   4.307  17.197  0.00  0.00    +0.000 OA
ENDBRANCH  11  18
ENDBRANCH   1  16
TORSDOF 3
ENDMDL
MODEL 2
REMARK VINA RESULT:      -7.5      2.197      5.324
REMARK  Name = 
REMARK  3 active torsions:
REMARK  status: ('A' for Active; 'I' for Inactive)
REMARK    1  A    between atoms: N_2  and  C_4
REMARK    2  A    between atoms: C_9  and  O_10
REMARK    3  A    between atoms: O_10  and  C_11
REMARK                            x       y       z     vdW  Elec       q    Type
REMARK                         _______ _______ _______ _____ _____    ______ ____
ROOT
ATOM      1  O   UNL     1       5.484   3.908  17.390  0.00  0.00    +0.000 OA
ENDROOT
BRANCH   1   2
ATOM      2  C   UNL     1       4.236   3.954  17.995  0.00  0.00    +0.000 A 
ATOM      3  C   UNL     1       3.162   4.673  17.426  0.00  0.00    +0.000 A 
ATOM      4  C   UNL     1       1.938   4.815  18.091  0.00  0.00    +0.000 A 
ATOM      5  C   UNL     1       1.707   4.185  19.314  0.00  0.00    +0.000 A 
ATOM      6  C   UNL     1       2.747   3.398  19.795  0.00  0.00    +0.000 A 
ATOM      7  O   UNL     1       2.737   2.635  20.925  0.00  0.00    +0.000 OA
ATOM      8  C   UNL     1       3.972   2.061  20.936  0.00  0.00    +0.000 A 
ATOM      9  N   UNL     1       4.767   2.401  19.944  0.00  0.00    +0.000 NA
ATOM     10  C   UNL     1       3.988   3.253  19.188  0.00  0.00    +0.000 A 
ENDBRANCH   1   2
BRANCH   1  16
ATOM     11  C   UNL     1       6.646   5.946  16.891  0.00  0.00    +0.000 A 
ATOM     12  C   UNL     1       7.485   6.940  17.336  0.00  0.00    +0.000 A 
ATOM     13  N   UNL     1       8.055   6.920  18.560  0.00  0.00    +0.000 NA
ATOM     14  C   UNL     1       7.783   5.845  19.314  0.00  0.00    +0.000 A 
ATOM     15  N   UNL     1       6.990   4.826  18.959  0.00  0.00    +0.000 NA
ATOM     16  C   UNL     1       6.386   4.907  17.746  0.00  0.00    +0.000 A 
BRANCH  11  18
ATOM     17  O   UNL     1       5.082   6.790  15.475  0.00  0.00    +0.000 OA
ATOM     18  N   UNL     1       6.066   6.046  15.591  0.00  0.00    +0.000 N 
ATOM     19  O   UNL     1       6.538   5.332  14.699  0.00  0.00    +0.000 OA
ENDBRANCH  11  18
ENDBRANCH   1  16
TORSDOF 3
ENDMDL
MODEL 3
REMARK VINA RESULT:      -7.5      1.102      2.331
REMARK  Name = 
REMARK  3 active torsions:
REMARK  status: ('A' for Active; 'I' for Inactive)
REMARK    1  A    between atoms: N_2  and  C_4
REMARK    2  A    between atoms: C_9  and  O_10
REMARK    3  A    between atoms: O_10  and  C_11
REMARK                            x       y       z     vdW  Elec       q    Type
REMARK                         _______ _______ _______ _____ _____    ______ ____
ROOT
ATOM      1  O   UNL     1       3.835   4.010  17.836  0.00  0.00    +0.000 OA
ENDROOT
BRANCH   1   2
ATOM      2  C   UNL     1       5.087   4.609  17.870  0.00  0.00    +0.000 A 
ATOM      3  C   UNL     1       5.685   5.008  19.086  0.00  0.00    +0.000 A 
ATOM      4  C   UNL     1       6.894   5.713  19.112  0.00  0.00    +0.000 A 
ATOM      5  C   UNL     1       7.594   5.985  17.937  0.00  0.00    +0.000 A 
ATOM      6  C   UNL     1       7.031   5.485  16.768  0.00  0.00    +0.000 A 
ATOM      7  O   UNL     1       7.558   5.561  15.512  0.00  0.00    +0.000 OA
ATOM      8  C   UNL     1       6.639   4.917  14.740  0.00  0.00    +0.000 A 
ATOM      9  N   UNL     1       5.579   4.464  15.375  0.00  0.00    +0.000 NA
ATOM     10  C   UNL     1       5.821   4.808  16.688  0.00  0.00    +0.000 A 
ENDBRANCH   1   2
BRANCH   1  16
ATOM     11  C   UNL     1       3.310   2.874  19.881  0.00  0.00    +0.000 A 
ATOM     12  C   UNL     1       2.659   2.909  21.093  0.00  0.00    +0.000 A 
ATOM     13  N   UNL     1       1.871   3.940  21.467  0.00  0.00    +0.000 NA
ATOM     14  C   UNL     1       1.726   4.923  20.566  0.00  0.00    +0.000 A 
ATOM     15  N   UNL     1       2.310   4.966  19.362  0.00  0.00    +0.000 NA
ATOM     16  C   UNL     1       3.143   3.944  19.042  0.00  0.00    +0.000 A 
BRANCH  11  18
ATOM     17  O   UNL     1       3.765   1.026  18.639  0.00  0.00    +0.000 OA
ATOM     18  N   UNL     1       4.142   1.759  19.564  0.00  0.00    +0.000 N 
ATOM     19  O   UNL     1       5.133   1.565  20.278  0.00  0.00    +0.000 OA
ENDBRANCH  11  18
ENDBRANCH   1  16
TORSDOF 3
ENDMDL
MODEL 4
REMARK VINA RESULT:      -7.4      2.029      5.093
REMARK  Name = 
REMARK  3 active torsions:
REMARK  status: ('A' for Active; 'I' for Inactive)
REMARK    1  A    between atoms: N_2  and  C_4
REMARK    2  A    between atoms: C_9  and  O_10
REMARK    3  A    between atoms: O_10  and  C_11
REMARK                            x       y       z     vdW  Elec       q    Type
REMARK                         _______ _______ _______ _____ _____    ______ ____
ROOT
ATOM      1  O   UNL     1       3.928   6.072  18.050  0.00  0.00    +0.000 OA
ENDROOT
BRANCH   1   2
ATOM      2  C   UNL     1       2.986   5.392  18.810  0.00  0.00    +0.000 A 
ATOM      3  C   UNL     1       2.316   6.011  19.888  0.00  0.00    +0.000 A 
ATOM      4  C   UNL     1       1.451   5.295  20.724  0.00  0.00    +0.000 A 
ATOM      5  C   UNL     1       1.159   3.954  20.478  0.00  0.00    +0.000 A 
ATOM      6  C   UNL     1       1.752   3.403  19.347  0.00  0.00    +0.000 A 
ATOM      7  O   UNL     1       1.569   2.142  18.861  0.00  0.00    +0.000 OA
ATOM      8  C   UNL     1       2.350   2.110  17.746  0.00  0.00    +0.000 A 
ATOM      9  N   UNL     1       3.025   3.212  17.492  0.00  0.00    +0.000 NA
ATOM     10  C   UNL     1       2.640   4.064  18.506  0.00  0.00    +0.000 A 
ENDBRANCH   1   2
BRANCH   1  16
ATOM     11  C   UNL     1       5.998   5.360  17.072  0.00  0.00    +0.000 A 
ATOM     12  C   UNL     1       7.321   5.033  17.266  0.00  0.00    +0.000 A 
ATOM     13  N   UNL     1       7.888   4.989  18.491  0.00  0.00    +0.000 NA
ATOM     14  C   UNL     1       7.072   5.248  19.524  0.00  0.00    +0.000 A 
ATOM     15  N   UNL     1       5.774   5.561  19.430  0.00  0.00    +0.000 NA
ATOM     16  C   UNL     1       5.251   5.657  18.181  0.00  0.00    +0.000 A 
BRANCH  11  18
ATOM     17  O   UNL     1       5.236   4.318  15.202  0.00  0.00    +0.000 OA
ATOM     18  N   UNL     1       5.475   5.406  15.745  0.00  0.00    +0.000 N 
ATOM     19  O   UNL     1       5.368   6.516  15.212  0.00  0.00    +0.000 OA
ENDBRANCH  11  18
ENDBRANCH   1  16
TORSDOF 3
ENDMDL
MODEL 5
REMARK VINA RESULT:      -7.4      2.321      5.532
REMARK  Name = 
REMARK  3 active torsions:
REMARK  status: ('A' for Active; 'I' for Inactive)
REMARK    1  A    between atoms: N_2  and  C_4
REMARK    2  A    between atoms: C_9  and  O_10
REMARK    3  A    between atoms: O_10  and  C_11
REMARK                            x       y       z     vdW  Elec       q    Type
REMARK                         _______ _______ _______ _____ _____    ______ ____
ROOT
ATOM      1  O   UNL     1       4.681   5.459  19.682  0.00  0.00    +0.000 OA
ENDROOT
BRANCH   1   2
ATOM      2  C   UNL     1       3.462   4.798  19.752  0.00  0.00    +0.000 A 
ATOM      3  C   UNL     1       2.316   5.412  20.305  0.00  0.00    +0.000 A 
ATOM      4  C   UNL     1       1.119   4.708  20.480  0.00  0.00    +0.000 A 
ATOM      5  C   UNL     1       0.988   3.390  20.044  0.00  0.00    +0.000 A 
ATOM      6  C   UNL     1       2.101   2.850  19.407  0.00  0.00    +0.000 A 
ATOM      7  O   UNL     1       2.195   1.615  18.837  0.00  0.00    +0.000 OA
ATOM      8  C   UNL     1       3.466   1.584  18.346  0.00  0.00    +0.000 A 
ATOM      9  N   UNL     1       4.188   2.662  18.569  0.00  0.00    +0.000 NA
ATOM     10  C   UNL     1       3.319   3.498  19.239  0.00  0.00    +0.000 A 
ENDBRANCH   1   2
BRANCH   1  16
ATOM     11  C   UNL     1       6.365   5.748  18.000  0.00  0.00    +0.000 A 
ATOM     12  C   UNL     1       6.667   6.146  16.718  0.00  0.00    +0.000 A 
ATOM     13  N   UNL     1       5.750   6.689  15.889  0.00  0.00    +0.000 NA
ATOM     14  C   UNL     1       4.522   6.856  16.402  0.00  0.00    +0.000 A 
ATOM     15  N   UNL     1       4.143   6.511  17.639  0.00  0.00    +0.000 NA
ATOM     16  C   UNL     1       5.073   5.912  18.426  0.00  0.00    +0.000 A 
BRANCH  11  18
ATOM     17  O   UNL     1       8.097   4.303  18.277  0.00  0.00    +0.000 OA
ATOM     18  N   UNL     1       7.383   5.164  18.811  0.00  0.00    +0.000 N 
ATOM     19  O   UNL     1       7.430   5.503  19.999  0.00  0.00    +0.000 OA
ENDBRANCH  11  18
ENDBRANCH   1  16
TORSDOF 3
ENDMDL
MODEL 6
REMARK VINA RESULT:      -7.4      2.275      5.896
REMARK  Name = 
REMARK  3 active torsions:
REMARK  status: ('A' for Active; 'I' for Inactive)
REMARK    1  A    between atoms: N_2  and  C_4
REMARK    2  A    between atoms: C_9  and  O_10
REMARK    3  A    between atoms: O_10  and  C_11
REMARK                            x       y       z     vdW  Elec       q    Type
REMARK                         _______ _______ _______ _____ _____    ______ ____
ROOT
ATOM      1  O   UNL     1       5.175   4.107  18.975  0.00  0.00    +0.000 OA
ENDROOT
BRANCH   1   2
ATOM      2  C   UNL     1       3.918   3.528  18.872  0.00  0.00    +0.000 A 
ATOM      3  C   UNL     1       3.688   2.394  18.062  0.00  0.00    +0.000 A 
ATOM      4  C   UNL     1       2.401   1.879  17.867  0.00  0.00    +0.000 A 
ATOM      5  C   UNL     1       1.300   2.424  18.528  0.00  0.00    +0.000 A 
ATOM      6  C   UNL     1       1.576   3.471  19.400  0.00  0.00    +0.000 A 
ATOM      7  O   UNL     1       0.686   4.118  20.205  0.00  0.00    +0.000 OA
ATOM      8  C   UNL     1       1.451   5.036  20.859  0.00  0.00    +0.000 A 
ATOM      9  N   UNL     1       2.727   5.049  20.532  0.00  0.00    +0.000 NA
ATOM     10  C   UNL     1       2.830   4.036  19.602  0.00  0.00    +0.000 A 
ENDBRANCH   1   2
BRANCH   1  16
ATOM     11  C   UNL     1       6.772   5.467  17.814  0.00  0.00    +0.000 A 
ATOM     12  C   UNL     1       6.998   6.421  16.849  0.00  0.00    +0.000 A 
ATOM     13  N   UNL     1       5.998   7.018  16.165  0.00  0.00    +0.000 NA
ATOM     14  C   UNL     1       4.754   6.653  16.510  0.00  0.00    +0.000 A 
ATOM     15  N   UNL     1       4.440   5.745  17.444  0.00  0.00    +0.000 NA
ATOM     16  C   UNL     1       5.471   5.121  18.068  0.00  0.00    +0.000 A 
BRANCH  11  18
ATOM     17  O   UNL     1       8.143   5.283  19.617  0.00  0.00    +0.000 OA
ATOM     18  N   UNL     1       7.881   4.866  18.480  0.00  0.00    +0.000 N 
ATOM     19  O   UNL     1       8.541   4.032  17.849  0.00  0.00    +0.000 OA
ENDBRANCH  11  18
ENDBRANCH   1  16
TORSDOF 3
ENDMDL
MODEL 7
REMARK VINA RESULT:      -7.3      1.293      1.832
REMARK  Name = 
REMARK  3 active torsions:
REMARK  status: ('A' for Active; 'I' for Inactive)
REMARK    1  A    between atoms: N_2  and  C_4
REMARK    2  A    between atoms: C_9  and  O_10
REMARK    3  A    between atoms: O_10  and  C_11
REMARK                            x       y       z     vdW  Elec       q    Type
REMARK                         _______ _______ _______ _____ _____    ______ ____
ROOT
ATOM      1  O   UNL     1       3.416   4.943  18.017  0.00  0.00    +0.000 OA
ENDROOT
BRANCH   1   2
ATOM      2  C   UNL     1       4.803   4.989  18.044  0.00  0.00    +0.000 A 
ATOM      3  C   UNL     1       5.511   5.319  19.221  0.00  0.00    +0.000 A 
ATOM      4  C   UNL     1       6.902   5.477  19.221  0.00  0.00    +0.000 A 
ATOM      5  C   UNL     1       7.653   5.241  18.069  0.00  0.00    +0.000 A 
ATOM      6  C   UNL     1       6.936   4.814  16.956  0.00  0.00    +0.000 A 
ATOM      7  O   UNL     1       7.448   4.456  15.744  0.00  0.00    +0.000 OA
ATOM      8  C   UNL     1       6.348   4.109  15.020  0.00  0.00    +0.000 A 
ATOM      9  N   UNL     1       5.195   4.234  15.643  0.00  0.00    +0.000 NA
ATOM     10  C   UNL     1       5.555   4.673  16.900  0.00  0.00    +0.000 A 
ENDBRANCH   1   2
BRANCH   1  16
ATOM     11  C   UNL     1       2.533   3.021  19.148  0.00  0.00    +0.000 A 
ATOM     12  C   UNL     1       1.986   2.504  20.299  0.00  0.00    +0.000 A 
ATOM     13  N   UNL     1       1.694   3.266  21.375  0.00  0.00    +0.000 NA
ATOM     14  C   UNL     1       1.935   4.579  21.244  0.00  0.00    +0.000 A 
ATOM     15  N   UNL     1       2.452   5.171  20.160  0.00  0.00    +0.000 NA
ATOM     16  C   UNL     1       2.790   4.367  19.120  0.00  0.00    +0.000 A 
BRANCH  11  18
ATOM     17  O   UNL     1       3.764   1.349  18.226  0.00  0.00    +0.000 OA
ATOM     18  N   UNL     1       2.833   2.149  18.060  0.00  0.00    +0.000 N 
ATOM     19  O   UNL     1       2.195   2.304  17.012  0.00  0.00    +0.000 OA
ENDBRANCH  11  18
ENDBRANCH   1  16
TORSDOF 3
ENDMDL
MODEL 8
REMARK VINA RESULT:      -7.3      2.155      5.806
REMARK  Name = 
REMARK  3 active torsions:
REMARK  status: ('A' for Active; 'I' for Inactive)
REMARK    1  A    between atoms: N_2  and  C_4
REMARK    2  A    between atoms: C_9  and  O_10
REMARK    3  A    between atoms: O_10  and  C_11
REMARK                            x       y       z     vdW  Elec       q    Type
REMARK                         _______ _______ _______ _____ _____    ______ ____
ROOT
ATOM      1  O   UNL     1       3.985   5.803  17.432  0.00  0.00    +0.000 OA
ENDROOT
BRANCH   1   2
ATOM      2  C   UNL     1       3.171   4.764  17.861  0.00  0.00    +0.000 A 
ATOM      3  C   UNL     1       3.099   3.540  17.159  0.00  0.00    +0.000 A 
ATOM      4  C   UNL     1       2.195   2.536  17.525  0.00  0.00    +0.000 A 
ATOM      5  C   UNL     1       1.379   2.676  18.647  0.00  0.00    +0.000 A 
ATOM      6  C   UNL     1       1.552   3.847  19.378  0.00  0.00    +0.000 A 
ATOM      7  O   UNL     1       0.926   4.181  20.543  0.00  0.00    +0.000 OA
ATOM      8  C   UNL     1       1.448   5.401  20.849  0.00  0.00    +0.000 A 
ATOM      9  N   UNL     1       2.320   5.880  19.987  0.00  0.00    +0.000 NA
ATOM     10  C   UNL     1       2.412   4.883  19.037  0.00  0.00    +0.000 A 
ENDBRANCH   1   2
BRANCH   1  16
ATOM     11  C   UNL     1       6.215   4.936  17.590  0.00  0.00    +0.000 A 
ATOM     12  C   UNL     1       7.349   4.527  16.927  0.00  0.00    +0.000 A 
ATOM     13  N   UNL     1       7.483   4.618  15.587  0.00  0.00    +0.000 NA
ATOM     14  C   UNL     1       6.451   5.170  14.931  0.00  0.00    +0.000 A 
ATOM     15  N   UNL     1       5.317   5.606  15.494  0.00  0.00    +0.000 NA
ATOM     16  C   UNL     1       5.191   5.445  16.835  0.00  0.00    +0.000 A 
BRANCH  11  18
ATOM     17  O   UNL     1       6.597   5.718  19.689  0.00  0.00    +0.000 OA
ATOM     18  N   UNL     1       6.140   4.790  19.007  0.00  0.00    +0.000 N 
ATOM     19  O   UNL     1       5.694   3.724  19.447  0.00  0.00    +0.000 OA
ENDBRANCH  11  18
ENDBRANCH   1  16
TORSDOF 3
ENDMDL
MODEL 9
REMARK VINA RESULT:      -7.3      2.265      5.481
REMARK  Name = 
REMARK  3 active torsions:
REMARK  status: ('A' for Active; 'I' for Inactive)
REMARK    1  A    between atoms: N_2  and  C_4
REMARK    2  A    between atoms: C_9  and  O_10
REMARK    3  A    between atoms: O_10  and  C_11
REMARK                            x       y       z     vdW  Elec       q    Type
REMARK                         _______ _______ _______ _____ _____    ______ ____
ROOT
ATOM      1  O   UNL     1       4.699   4.374  18.255  0.00  0.00    +0.000 OA
ENDROOT
BRANCH   1   2
ATOM      2  C   UNL     1       3.655   4.811  19.058  0.00  0.00    +0.000 A 
ATOM      3  C   UNL     1       3.061   6.080  18.878  0.00  0.00    +0.000 A 
ATOM      4  C   UNL     1       2.087   6.567  19.757  0.00  0.00    +0.000 A 
ATOM      5  C   UNL     1       1.610   5.783  20.807  0.00  0.00    +0.000 A 
ATOM      6  C   UNL     1       2.138   4.499  20.893  0.00  0.00    +0.000 A 
ATOM      7  O   UNL     1       1.784   3.529  21.783  0.00  0.00    +0.000 OA
ATOM      8  C   UNL     1       2.573   2.474  21.440  0.00  0.00    +0.000 A 
ATOM      9  N   UNL     1       3.404   2.686  20.441  0.00  0.00    +0.000 NA
ATOM     10  C   UNL     1       3.127   3.984  20.064  0.00  0.00    +0.000 A 
ENDBRANCH   1   2
BRANCH   1  16
ATOM     11  C   UNL     1       6.310   5.824  17.228  0.00  0.00    +0.000 A 
ATOM     12  C   UNL     1       7.442   6.591  17.380  0.00  0.00    +0.000 A 
ATOM     13  N   UNL     1       8.131   6.651  18.540  0.00  0.00    +0.000 NA
ATOM     14  C   UNL     1       7.667   5.884  19.538  0.00  0.00    +0.000 A 
ATOM     15  N   UNL     1       6.584   5.099  19.476  0.00  0.00    +0.000 NA
ATOM     16  C   UNL     1       5.881   5.108  18.316  0.00  0.00    +0.000 A 
BRANCH  11  18
ATOM     17  O   UNL     1       5.680   4.785  15.308  0.00  0.00    +0.000 OA
ATOM     18  N   UNL     1       5.624   5.826  15.978  0.00  0.00    +0.000 N 
ATOM     19  O   UNL     1       5.089   6.883  15.623  0.00  0.00    +0.000 OA
ENDBRANCH  11  18
ENDBRANCH   1  16
TORSDOF 3
ENDMDL
