MODEL 1
REMARK VINA RESULT:      -8.2      0.000      0.000
REMARK  Name = 
REMARK  6 active torsions:
REMARK  status: ('A' for Active; 'I' for Inactive)
REMARK    1  A    between atoms: C_1  and  C_2
REMARK    2  A    between atoms: C_2  and  C_3
REMARK    3  A    between atoms: C_3  and  N_4
REMARK    4  A    between atoms: C_5  and  C_7
REMARK    5  A    between atoms: C_9  and  C_10
REMARK    6  A    between atoms: N_11  and  C_12
REMARK                            x       y       z     vdW  Elec       q    Type
REMARK                         _______ _______ _______ _____ _____    ______ ____
ROOT
ATOM      1  C   UNL     1       6.473   4.860  15.714  0.00  0.00    +0.000 A 
ATOM      2  N   UNL     1       7.312   5.325  16.697  0.00  0.00    +0.000 NA
ATOM      3  C   UNL     1       6.574   5.334  17.785  0.00  0.00    +0.000 A 
ATOM      4  C   UNL     1       7.102   5.568  19.151  0.00  0.00    +0.000 C 
ATOM      5  N   UNL     1       5.281   4.949  17.463  0.00  0.00    +0.000 N 
ATOM      6  N   UNL     1       5.234   4.562  16.159  0.00  0.00    +0.000 NA
ENDROOT
BRANCH   5   7
ATOM      7  C   UNL     1       4.117   4.898  18.278  0.00  0.00    +0.000 A 
ATOM      8  C   UNL     1       3.579   6.057  18.855  0.00  0.00    +0.000 A 
ATOM      9  C   UNL     1       2.461   5.971  19.686  0.00  0.00    +0.000 A 
ATOM     10 CL   UNL     1       1.818   7.406  20.386  0.00  0.00    +0.000 Cl
ATOM     11  C   UNL     1       1.863   4.745  19.949  0.00  0.00    +0.000 A 
ATOM     12  C   UNL     1       2.376   3.598  19.350  0.00  0.00    +0.000 A 
ATOM     13 CL   UNL     1       1.647   2.074  19.679  0.00  0.00    +0.000 Cl
ATOM     14  C   UNL     1       3.486   3.665  18.503  0.00  0.00    +0.000 A 
ENDBRANCH   5   7
BRANCH   1  16
ATOM     15  N   UNL     1       6.242   3.692  13.620  0.00  0.00    +0.000 N 
ATOM     16  C   UNL     1       6.903   4.698  14.306  0.00  0.00    +0.000 C 
ATOM     17  O   UNL     1       7.768   5.394  13.781  0.00  0.00    +0.000 OA
ATOM     18  H   UNL     1       5.578   3.140  14.155  0.00  0.00    +0.000 HD
BRANCH  15  19
ATOM     19  C   UNL     1       6.532   3.370  12.242  0.00  0.00    +0.000 C 
BRANCH  19  21
ATOM     20  C   UNL     1       4.173   3.159  11.332  0.00  0.00    +0.000 C 
ATOM     21  C   UNL     1       5.487   2.447  11.618  0.00  0.00    +0.000 C 
ENDBRANCH  19  21
ENDBRANCH  15  19
ENDBRANCH   1  16
TORSDOF 4
ENDMDL
MODEL 2
REMARK VINA RESULT:      -8.0      0.613      2.050
REMARK  Name = 
REMARK  6 active torsions:
REMARK  status: ('A' for Active; 'I' for Inactive)
REMARK    1  A    between atoms: C_1  and  C_2
REMARK    2  A    between atoms: C_2  and  C_3
REMARK    3  A    between atoms: C_3  and  N_4
REMARK    4  A    between atoms: C_5  and  C_7
REMARK    5  A    between atoms: C_9  and  C_10
REMARK    6  A    between atoms: N_11  and  C_12
REMARK                            x       y       z     vdW  Elec       q    Type
REMARK                         _______ _______ _______ _____ _____    ______ ____
ROOT
ATOM      1  C   UNL     1       6.668   4.955  15.630  0.00  0.00    +0.000 A 
ATOM      2  N   UNL     1       7.606   5.472  16.490  0.00  0.00    +0.000 NA
ATOM      3  C   UNL     1       6.996   5.523  17.653  0.00  0.00    +0.000 A 
ATOM      4  C   UNL     1       7.672   5.824  18.939  0.00  0.00    +0.000 C 
ATOM      5  N   UNL     1       5.681   5.111  17.499  0.00  0.00    +0.000 N 
ATOM      6  N   UNL     1       5.492   4.665  16.226  0.00  0.00    +0.000 NA
ENDROOT
BRANCH   5   7
ATOM      7  C   UNL     1       4.617   5.086  18.442  0.00  0.00    +0.000 A 
ATOM      8  C   UNL     1       4.247   3.900  19.091  0.00  0.00    +0.000 A 
ATOM      9  C   UNL     1       3.169   3.896  19.979  0.00  0.00    +0.000 A 
ATOM     10 CL   UNL     1       2.730   2.428  20.764  0.00  0.00    +0.000 Cl
ATOM     11  C   UNL     1       2.455   5.059  20.236  0.00  0.00    +0.000 A 
ATOM     12  C   UNL     1       2.842   6.244  19.617  0.00  0.00    +0.000 A 
ATOM     13 CL   UNL     1       1.955   7.686  19.922  0.00  0.00    +0.000 Cl
ATOM     14  C   UNL     1       3.927   6.272  18.736  0.00  0.00    +0.000 A 
ENDBRANCH   5   7
BRANCH   1  16
ATOM     15  N   UNL     1       6.248   3.665  13.639  0.00  0.00    +0.000 N 
ATOM     16  C   UNL     1       6.938   4.732  14.192  0.00  0.00    +0.000 C 
ATOM     17  O   UNL     1       7.704   5.432  13.534  0.00  0.00    +0.000 OA
ATOM     18  H   UNL     1       5.676   3.119  14.276  0.00  0.00    +0.000 HD
BRANCH  15  19
ATOM     19  C   UNL     1       6.390   3.281  12.254  0.00  0.00    +0.000 C 
BRANCH  19  21
ATOM     20  C   UNL     1       4.082   3.298  11.202  0.00  0.00    +0.000 C 
ATOM     21  C   UNL     1       5.215   2.445  11.750  0.00  0.00    +0.000 C 
ENDBRANCH  19  21
ENDBRANCH  15  19
ENDBRANCH   1  16
TORSDOF 4
ENDMDL
MODEL 3
REMARK VINA RESULT:      -7.9      1.300      2.315
REMARK  Name = 
REMARK  6 active torsions:
REMARK  status: ('A' for Active; 'I' for Inactive)
REMARK    1  A    between atoms: C_1  and  C_2
REMARK    2  A    between atoms: C_2  and  C_3
REMARK    3  A    between atoms: C_3  and  N_4
REMARK    4  A    between atoms: C_5  and  C_7
REMARK    5  A    between atoms: C_9  and  C_10
REMARK    6  A    between atoms: N_11  and  C_12
REMARK                            x       y       z     vdW  Elec       q    Type
REMARK                         _______ _______ _______ _____ _____    ______ ____
ROOT
ATOM      1  C   UNL     1       6.634   5.151  15.437  0.00  0.00    +0.000 A 
ATOM      2  N   UNL     1       7.564   5.286  16.440  0.00  0.00    +0.000 NA
ATOM      3  C   UNL     1       6.856   5.568  17.511  0.00  0.00    +0.000 A 
ATOM      4  C   UNL     1       7.405   5.604  18.889  0.00  0.00    +0.000 C 
ATOM      5  N   UNL     1       5.519   5.675  17.161  0.00  0.00    +0.000 N 
ATOM      6  N   UNL     1       5.362   5.324  15.855  0.00  0.00    +0.000 NA
ENDROOT
BRANCH   5   7
ATOM      7  C   UNL     1       4.398   6.054  17.949  0.00  0.00    +0.000 A 
ATOM      8  C   UNL     1       3.976   5.277  19.037  0.00  0.00    +0.000 A 
ATOM      9  C   UNL     1       2.845   5.649  19.766  0.00  0.00    +0.000 A 
ATOM     10 CL   UNL     1       2.342   4.679  21.097  0.00  0.00    +0.000 Cl
ATOM     11  C   UNL     1       2.127   6.791  19.432  0.00  0.00    +0.000 A 
ATOM     12  C   UNL     1       2.565   7.581  18.373  0.00  0.00    +0.000 A 
ATOM     13 CL   UNL     1       1.675   8.991  17.946  0.00  0.00    +0.000 Cl
ATOM     14  C   UNL     1       3.703   7.233  17.640  0.00  0.00    +0.000 A 
ENDBRANCH   5   7
BRANCH   1  16
ATOM     15  N   UNL     1       6.342   3.742  13.505  0.00  0.00    +0.000 N 
ATOM     16  C   UNL     1       7.005   4.835  14.040  0.00  0.00    +0.000 C 
ATOM     17  O   UNL     1       7.828   5.484  13.398  0.00  0.00    +0.000 OA
ATOM     18  H   UNL     1       5.717   3.243  14.131  0.00  0.00    +0.000 HD
BRANCH  15  19
ATOM     19  C   UNL     1       6.579   3.269  12.161  0.00  0.00    +0.000 C 
BRANCH  19  21
ATOM     20  C   UNL     1       6.069   1.019  11.108  0.00  0.00    +0.000 C 
ATOM     21  C   UNL     1       5.496   2.310  11.673  0.00  0.00    +0.000 C 
ENDBRANCH  19  21
ENDBRANCH  15  19
ENDBRANCH   1  16
TORSDOF 4
ENDMDL
MODEL 4
REMARK VINA RESULT:      -7.5      1.162      2.293
REMARK  Name = 
REMARK  6 active torsions:
REMARK  status: ('A' for Active; 'I' for Inactive)
REMARK    1  A    between atoms: C_1  and  C_2
REMARK    2  A    between atoms: C_2  and  C_3
REMARK    3  A    between atoms: C_3  and  N_4
REMARK    4  A    between atoms: C_5  and  C_7
REMARK    5  A    between atoms: C_9  and  C_10
REMARK    6  A    between atoms: N_11  and  C_12
REMARK                            x       y       z     vdW  Elec       q    Type
REMARK                         _______ _______ _______ _____ _____    ______ ____
ROOT
ATOM      1  C   UNL     1       6.142   4.247  14.932  0.00  0.00    +0.000 A 
ATOM      2  N   UNL     1       7.245   4.615  15.664  0.00  0.00    +0.000 NA
ATOM      3  C   UNL     1       6.783   4.811  16.880  0.00  0.00    +0.000 A 
ATOM      4  C   UNL     1       7.638   5.027  18.073  0.00  0.00    +0.000 C 
ATOM      5  N   UNL     1       5.408   4.636  16.881  0.00  0.00    +0.000 N 
ATOM      6  N   UNL     1       5.006   4.191  15.658  0.00  0.00    +0.000 NA
ENDROOT
BRANCH   5   7
ATOM      7  C   UNL     1       4.465   4.831  17.927  0.00  0.00    +0.000 A 
ATOM      8  C   UNL     1       4.175   3.813  18.845  0.00  0.00    +0.000 A 
ATOM      9  C   UNL     1       3.212   4.017  19.836  0.00  0.00    +0.000 A 
ATOM     10 CL   UNL     1       2.869   2.751  20.952  0.00  0.00    +0.000 Cl
ATOM     11  C   UNL     1       2.535   5.226  19.931  0.00  0.00    +0.000 A 
ATOM     12  C   UNL     1       2.846   6.249  19.040  0.00  0.00    +0.000 A 
ATOM     13 CL   UNL     1       2.003   7.746  19.144  0.00  0.00    +0.000 Cl
ATOM     14  C   UNL     1       3.817   6.069  18.050  0.00  0.00    +0.000 A 
ENDBRANCH   5   7
BRANCH   1  16
ATOM     15  N   UNL     1       5.004   3.545  12.928  0.00  0.00    +0.000 N 
ATOM     16  C   UNL     1       6.211   3.935  13.486  0.00  0.00    +0.000 C 
ATOM     17  O   UNL     1       7.245   4.017  12.827  0.00  0.00    +0.000 OA
ATOM     18  H   UNL     1       4.217   3.462  13.565  0.00  0.00    +0.000 HD
BRANCH  15  19
ATOM     19  C   UNL     1       4.871   3.185  11.536  0.00  0.00    +0.000 C 
BRANCH  19  21
ATOM     20  C   UNL     1       3.082   3.859   9.868  0.00  0.00    +0.000 C 
ATOM     21  C   UNL     1       3.415   3.032  11.101  0.00  0.00    +0.000 C 
ENDBRANCH  19  21
ENDBRANCH  15  19
ENDBRANCH   1  16
TORSDOF 4
ENDMDL
MODEL 5
REMARK VINA RESULT:      -7.5      1.083      1.136
REMARK  Name = 
REMARK  6 active torsions:
REMARK  status: ('A' for Active; 'I' for Inactive)
REMARK    1  A    between atoms: C_1  and  C_2
REMARK    2  A    between atoms: C_2  and  C_3
REMARK    3  A    between atoms: C_3  and  N_4
REMARK    4  A    between atoms: C_5  and  C_7
REMARK    5  A    between atoms: C_9  and  C_10
REMARK    6  A    between atoms: N_11  and  C_12
REMARK                            x       y       z     vdW  Elec       q    Type
REMARK                         _______ _______ _______ _____ _____    ______ ____
ROOT
ATOM      1  C   UNL     1       6.636   4.710  14.959  0.00  0.00    +0.000 A 
ATOM      2  N   UNL     1       7.500   4.933  16.004  0.00  0.00    +0.000 NA
ATOM      3  C   UNL     1       6.732   4.936  17.071  0.00  0.00    +0.000 A 
ATOM      4  C   UNL     1       7.240   4.939  18.465  0.00  0.00    +0.000 C 
ATOM      5  N   UNL     1       5.409   4.789  16.684  0.00  0.00    +0.000 N 
ATOM      6  N   UNL     1       5.351   4.557  15.344  0.00  0.00    +0.000 NA
ENDROOT
BRANCH   5   7
ATOM      7  C   UNL     1       4.222   4.828  17.465  0.00  0.00    +0.000 A 
ATOM      8  C   UNL     1       3.829   5.993  18.138  0.00  0.00    +0.000 A 
ATOM      9  C   UNL     1       2.681   5.989  18.933  0.00  0.00    +0.000 A 
ATOM     10 CL   UNL     1       2.218   7.431  19.753  0.00  0.00    +0.000 Cl
ATOM     11  C   UNL     1       1.912   4.840  19.066  0.00  0.00    +0.000 A 
ATOM     12  C   UNL     1       2.283   3.692  18.372  0.00  0.00    +0.000 A 
ATOM     13 CL   UNL     1       1.341   2.262  18.540  0.00  0.00    +0.000 Cl
ATOM     14  C   UNL     1       3.420   3.680  17.559  0.00  0.00    +0.000 A 
ENDBRANCH   5   7
BRANCH   1  16
ATOM     15  N   UNL     1       6.598   3.546  12.850  0.00  0.00    +0.000 N 
ATOM     16  C   UNL     1       7.087   4.636  13.551  0.00  0.00    +0.000 C 
ATOM     17  O   UNL     1       7.830   5.470  13.037  0.00  0.00    +0.000 OA
ATOM     18  H   UNL     1       6.031   2.888  13.377  0.00  0.00    +0.000 HD
BRANCH  15  19
ATOM     19  C   UNL     1       6.936   3.294  11.469  0.00  0.00    +0.000 C 
BRANCH  19  21
ATOM     20  C   UNL     1       6.072   0.933  11.125  0.00  0.00    +0.000 C 
ATOM     21  C   UNL     1       7.296   1.833  11.207  0.00  0.00    +0.000 C 
ENDBRANCH  19  21
ENDBRANCH  15  19
ENDBRANCH   1  16
TORSDOF 4
ENDMDL
MODEL 6
REMARK VINA RESULT:      -7.4      1.370      2.612
REMARK  Name = 
REMARK  6 active torsions:
REMARK  status: ('A' for Active; 'I' for Inactive)
REMARK    1  A    between atoms: C_1  and  C_2
REMARK    2  A    between atoms: C_2  and  C_3
REMARK    3  A    between atoms: C_3  and  N_4
REMARK    4  A    between atoms: C_5  and  C_7
REMARK    5  A    between atoms: C_9  and  C_10
REMARK    6  A    between atoms: N_11  and  C_12
REMARK                            x       y       z     vdW  Elec       q    Type
REMARK                         _______ _______ _______ _____ _____    ______ ____
ROOT
ATOM      1  C   UNL     1       6.349   4.478  14.312  0.00  0.00    +0.000 A 
ATOM      2  N   UNL     1       7.310   5.194  14.983  0.00  0.00    +0.000 NA
ATOM      3  C   UNL     1       6.756   5.488  16.139  0.00  0.00    +0.000 A 
ATOM      4  C   UNL     1       7.484   6.083  17.286  0.00  0.00    +0.000 C 
ATOM      5  N   UNL     1       5.451   5.022  16.152  0.00  0.00    +0.000 N 
ATOM      6  N   UNL     1       5.215   4.300  15.022  0.00  0.00    +0.000 NA
ENDROOT
BRANCH   5   7
ATOM      7  C   UNL     1       4.437   5.182  17.136  0.00  0.00    +0.000 A 
ATOM      8  C   UNL     1       3.936   4.085  17.852  0.00  0.00    +0.000 A 
ATOM      9  C   UNL     1       2.909   4.265  18.780  0.00  0.00    +0.000 A 
ATOM     10 CL   UNL     1       2.308   2.905  19.647  0.00  0.00    +0.000 Cl
ATOM     11  C   UNL     1       2.372   5.526  19.012  0.00  0.00    +0.000 A 
ATOM     12  C   UNL     1       2.891   6.620  18.324  0.00  0.00    +0.000 A 
ATOM     13 CL   UNL     1       2.224   8.182  18.598  0.00  0.00    +0.000 Cl
ATOM     14  C   UNL     1       3.929   6.463  17.402  0.00  0.00    +0.000 A 
ENDBRANCH   5   7
BRANCH   1  16
ATOM     15  N   UNL     1       5.697   2.917  12.596  0.00  0.00    +0.000 N 
ATOM     16  C   UNL     1       6.555   3.948  12.945  0.00  0.00    +0.000 C 
ATOM     17  O   UNL     1       7.410   4.382  12.176  0.00  0.00    +0.000 OA
ATOM     18  H   UNL     1       5.058   2.597  13.318  0.00  0.00    +0.000 HD
BRANCH  15  19
ATOM     19  C   UNL     1       5.753   2.261  11.311  0.00  0.00    +0.000 C 
BRANCH  19  21
ATOM     20  C   UNL     1       6.146  -0.245  11.307  0.00  0.00    +0.000 C 
ATOM     21  C   UNL     1       6.784   1.135  11.267  0.00  0.00    +0.000 C 
ENDBRANCH  19  21
ENDBRANCH  15  19
ENDBRANCH   1  16
TORSDOF 4
ENDMDL
MODEL 7
REMARK VINA RESULT:      -7.1      1.634      2.058
REMARK  Name = 
REMARK  6 active torsions:
REMARK  status: ('A' for Active; 'I' for Inactive)
REMARK    1  A    between atoms: C_1  and  C_2
REMARK    2  A    between atoms: C_2  and  C_3
REMARK    3  A    between atoms: C_3  and  N_4
REMARK    4  A    between atoms: C_5  and  C_7
REMARK    5  A    between atoms: C_9  and  C_10
REMARK    6  A    between atoms: N_11  and  C_12
REMARK                            x       y       z     vdW  Elec       q    Type
REMARK                         _______ _______ _______ _____ _____    ______ ____
ROOT
ATOM      1  C   UNL     1       5.770   4.992  15.420  0.00  0.00    +0.000 A 
ATOM      2  N   UNL     1       5.263   6.240  15.691  0.00  0.00    +0.000 NA
ATOM      3  C   UNL     1       4.635   6.099  16.838  0.00  0.00    +0.000 A 
ATOM      4  C   UNL     1       4.096   7.226  17.639  0.00  0.00    +0.000 C 
ATOM      5  N   UNL     1       4.693   4.771  17.231  0.00  0.00    +0.000 N 
ATOM      6  N   UNL     1       5.491   4.077  16.373  0.00  0.00    +0.000 NA
ENDROOT
BRANCH   5   7
ATOM      7  C   UNL     1       4.086   4.122  18.341  0.00  0.00    +0.000 A 
ATOM      8  C   UNL     1       2.788   4.451  18.758  0.00  0.00    +0.000 A 
ATOM      9  C   UNL     1       2.234   3.829  19.878  0.00  0.00    +0.000 A 
ATOM     10 CL   UNL     1       0.640   4.250  20.374  0.00  0.00    +0.000 Cl
ATOM     11  C   UNL     1       2.952   2.877  20.591  0.00  0.00    +0.000 A 
ATOM     12  C   UNL     1       4.227   2.526  20.159  0.00  0.00    +0.000 A 
ATOM     13 CL   UNL     1       5.127   1.355  21.043  0.00  0.00    +0.000 Cl
ATOM     14  C   UNL     1       4.794   3.127  19.031  0.00  0.00    +0.000 A 
ENDBRANCH   5   7
BRANCH   1  16
ATOM     15  N   UNL     1       6.018   3.695  13.405  0.00  0.00    +0.000 N 
ATOM     16  C   UNL     1       6.554   4.695  14.200  0.00  0.00    +0.000 C 
ATOM     17  O   UNL     1       7.592   5.284  13.907  0.00  0.00    +0.000 OA
ATOM     18  H   UNL     1       5.184   3.236  13.758  0.00  0.00    +0.000 HD
BRANCH  15  19
ATOM     19  C   UNL     1       6.646   3.254  12.182  0.00  0.00    +0.000 C 
BRANCH  19  21
ATOM     20  C   UNL     1       6.583   0.994  11.031  0.00  0.00    +0.000 C 
ATOM     21  C   UNL     1       5.799   2.240  11.415  0.00  0.00    +0.000 C 
ENDBRANCH  19  21
ENDBRANCH  15  19
ENDBRANCH   1  16
TORSDOF 4
ENDMDL
MODEL 8
REMARK VINA RESULT:      -7.1      1.619      2.497
REMARK  Name = 
REMARK  6 active torsions:
REMARK  status: ('A' for Active; 'I' for Inactive)
REMARK    1  A    between atoms: C_1  and  C_2
REMARK    2  A    between atoms: C_2  and  C_3
REMARK    3  A    between atoms: C_3  and  N_4
REMARK    4  A    between atoms: C_5  and  C_7
REMARK    5  A    between atoms: C_9  and  C_10
REMARK    6  A    between atoms: N_11  and  C_12
REMARK                            x       y       z     vdW  Elec       q    Type
REMARK                         _______ _______ _______ _____ _____    ______ ____
ROOT
ATOM      1  C   UNL     1       5.782   4.991  15.426  0.00  0.00    +0.000 A 
ATOM      2  N   UNL     1       5.257   6.233  15.688  0.00  0.00    +0.000 NA
ATOM      3  C   UNL     1       4.650   6.098  16.846  0.00  0.00    +0.000 A 
ATOM      4  C   UNL     1       4.103   7.226  17.640  0.00  0.00    +0.000 C 
ATOM      5  N   UNL     1       4.739   4.777  17.258  0.00  0.00    +0.000 N 
ATOM      6  N   UNL     1       5.536   4.086  16.397  0.00  0.00    +0.000 NA
ENDROOT
BRANCH   5   7
ATOM      7  C   UNL     1       4.162   4.133  18.386  0.00  0.00    +0.000 A 
ATOM      8  C   UNL     1       4.868   3.165  19.114  0.00  0.00    +0.000 A 
ATOM      9  C   UNL     1       4.260   2.518  20.191  0.00  0.00    +0.000 A 
ATOM     10 CL   UNL     1       5.145   1.331  21.070  0.00  0.00    +0.000 Cl
ATOM     11  C   UNL     1       2.956   2.823  20.561  0.00  0.00    +0.000 A 
ATOM     12  C   UNL     1       2.265   3.807  19.859  0.00  0.00    +0.000 A 
ATOM     13 CL   UNL     1       0.646   4.182  20.304  0.00  0.00    +0.000 Cl
ATOM     14  C   UNL     1       2.861   4.477  18.787  0.00  0.00    +0.000 A 
ENDBRANCH   5   7
BRANCH   1  16
ATOM     15  N   UNL     1       6.007   3.690  13.412  0.00  0.00    +0.000 N 
ATOM     16  C   UNL     1       6.553   4.692  14.198  0.00  0.00    +0.000 C 
ATOM     17  O   UNL     1       7.587   5.280  13.892  0.00  0.00    +0.000 OA
ATOM     18  H   UNL     1       5.177   3.232  13.775  0.00  0.00    +0.000 HD
BRANCH  15  19
ATOM     19  C   UNL     1       6.621   3.246  12.182  0.00  0.00    +0.000 C 
BRANCH  19  21
ATOM     20  C   UNL     1       6.555   0.980  11.042  0.00  0.00    +0.000 C 
ATOM     21  C   UNL     1       5.769   2.223  11.433  0.00  0.00    +0.000 C 
ENDBRANCH  19  21
ENDBRANCH  15  19
ENDBRANCH   1  16
TORSDOF 4
ENDMDL
MODEL 9
REMARK VINA RESULT:      -6.8      3.923      6.937
REMARK  Name = 
REMARK  6 active torsions:
REMARK  status: ('A' for Active; 'I' for Inactive)
REMARK    1  A    between atoms: C_1  and  C_2
REMARK    2  A    between atoms: C_2  and  C_3
REMARK    3  A    between atoms: C_3  and  N_4
REMARK    4  A    between atoms: C_5  and  C_7
REMARK    5  A    between atoms: C_9  and  C_10
REMARK    6  A    between atoms: N_11  and  C_12
REMARK                            x       y       z     vdW  Elec       q    Type
REMARK                         _______ _______ _______ _____ _____    ______ ____
ROOT
ATOM      1  C   UNL     1       4.337   3.660  17.832  0.00  0.00    +0.000 A 
ATOM      2  N   UNL     1       4.428   5.024  17.966  0.00  0.00    +0.000 NA
ATOM      3  C   UNL     1       4.927   5.436  16.822  0.00  0.00    +0.000 A 
ATOM      4  C   UNL     1       5.020   6.860  16.415  0.00  0.00    +0.000 C 
ATOM      5  N   UNL     1       5.207   4.339  16.023  0.00  0.00    +0.000 N 
ATOM      6  N   UNL     1       4.750   3.208  16.628  0.00  0.00    +0.000 NA
ENDROOT
BRANCH   5   7
ATOM      7  C   UNL     1       5.836   4.275  14.749  0.00  0.00    +0.000 A 
ATOM      8  C   UNL     1       6.972   5.044  14.458  0.00  0.00    +0.000 A 
ATOM      9  C   UNL     1       7.543   4.994  13.185  0.00  0.00    +0.000 A 
ATOM     10 CL   UNL     1       8.936   5.949  12.849  0.00  0.00    +0.000 Cl
ATOM     11  C   UNL     1       7.003   4.184  12.194  0.00  0.00    +0.000 A 
ATOM     12  C   UNL     1       5.895   3.396  12.492  0.00  0.00    +0.000 A 
ATOM     13 CL   UNL     1       5.215   2.398  11.267  0.00  0.00    +0.000 Cl
ATOM     14  C   UNL     1       5.318   3.420  13.765  0.00  0.00    +0.000 A 
ENDBRANCH   5   7
BRANCH   1  16
ATOM     15  N   UNL     1       3.415   3.456  20.047  0.00  0.00    +0.000 N 
ATOM     16  C   UNL     1       3.824   2.783  18.908  0.00  0.00    +0.000 C 
ATOM     17  O   UNL     1       3.757   1.560  18.806  0.00  0.00    +0.000 OA
ATOM     18  H   UNL     1       3.555   4.462  20.052  0.00  0.00    +0.000 HD
BRANCH  15  19
ATOM     19  C   UNL     1       2.898   2.774  21.211  0.00  0.00    +0.000 C 
BRANCH  19  21
ATOM     20  C   UNL     1       0.766   3.854  20.358  0.00  0.00    +0.000 C 
ATOM     21  C   UNL     1       1.373   2.817  21.292  0.00  0.00    +0.000 C 
ENDBRANCH  19  21
ENDBRANCH  15  19
ENDBRANCH   1  16
TORSDOF 4
ENDMDL
