MODEL 1
REMARK VINA RESULT:      -8.7      0.000      0.000
REMARK  Name = 
REMARK  8 active torsions:
REMARK  status: ('A' for Active; 'I' for Inactive)
REMARK    1  A    between atoms: N_1  and  S_2
REMARK    2  A    between atoms: S_2  and  C_5
REMARK    3  A    between atoms: C_7  and  N_8
REMARK    4  A    between atoms: C_9  and  C_11
REMARK    5  A    between atoms: C_11  and  C_12
REMARK    6  A    between atoms: C_17  and  C_18
REMARK    7  A    between atoms: C_24  and  O_25
REMARK    8  A    between atoms: O_25  and  C_26
REMARK                            x       y       z     vdW  Elec       q    Type
REMARK                         _______ _______ _______ _____ _____    ______ ____
ROOT
ATOM      1  C   UNL     1       6.652   5.332  16.959  0.00  0.00    +0.000 A 
ATOM      2  C   UNL     1       7.503   6.429  17.181  0.00  0.00    +0.000 A 
ATOM      3  C   UNL     1       7.772   6.889  18.466  0.00  0.00    +0.000 A 
ATOM      4  C   UNL     1       7.085   6.315  19.532  0.00  0.00    +0.000 A 
ATOM      5  C   UNL     1       6.226   5.232  19.317  0.00  0.00    +0.000 A 
ATOM      6  C   UNL     1       6.061   4.668  18.042  0.00  0.00    +0.000 A 
ENDROOT
BRANCH   3   7
ATOM      7  N   UNL     1       8.709   7.908  18.737  0.00  0.00    +0.000 N 
ATOM      8  C   UNL     1       8.557   9.245  18.396  0.00  0.00    +0.000 C 
ATOM      9  O   UNL     1       7.590   9.734  17.814  0.00  0.00    +0.000 OA
ATOM     10  H   UNL     1       9.622   7.613  19.070  0.00  0.00    +0.000 HD
BRANCH   8  11
ATOM     11  C   UNL     1       9.740  10.121  18.770  0.00  0.00    +0.000 C 
BRANCH  11  12
ATOM     12  C   UNL     1       9.358  11.280  19.666  0.00  0.00    +0.000 A 
ATOM     13  C   UNL     1       9.211  11.001  21.043  0.00  0.00    +0.000 A 
ATOM     14  C   UNL     1       8.873  11.998  21.956  0.00  0.00    +0.000 A 
ATOM     15  C   UNL     1       8.703  13.304  21.521  0.00  0.00    +0.000 A 
ATOM     16  C   UNL     1       8.850  13.604  20.167  0.00  0.00    +0.000 A 
ATOM     17  C   UNL     1       9.163  12.606  19.217  0.00  0.00    +0.000 A 
BRANCH  17  18
ATOM     18  C   UNL     1       9.227  13.056  17.773  0.00  0.00    +0.000 C 
ATOM     19  F   UNL     1       9.183  14.406  17.584  0.00  0.00    +0.000 F 
ATOM     20  F   UNL     1      10.366  12.637  17.155  0.00  0.00    +0.000 F 
ATOM     21  F   UNL     1       8.197  12.567  17.027  0.00  0.00    +0.000 F 
ENDBRANCH  17  18
ENDBRANCH  11  12
ENDBRANCH   8  11
ENDBRANCH   3   7
BRANCH   1  22
ATOM     22  S   UNL     1       6.359   4.959  15.256  0.00  0.00    +0.000 S 
ATOM     23  O   UNL     1       7.546   5.303  14.504  0.00  0.00    +0.000 OA
ATOM     24  O   UNL     1       5.037   5.383  14.851  0.00  0.00    +0.000 OA
BRANCH  22  25
ATOM     25  N   UNL     1       6.293   3.273  15.255  0.00  0.00    +0.000 NA
ATOM     26  H   UNL     1       5.802   2.934  14.426  0.00  0.00    +0.000 HD
ATOM     27  H   UNL     1       5.899   2.938  16.135  0.00  0.00    +0.000 HD
ENDBRANCH  22  25
ENDBRANCH   1  22
BRANCH   6  28
ATOM     28  O   UNL     1       5.305   3.527  17.867  0.00  0.00    +0.000 OA
BRANCH  28  29
ATOM     29  C   UNL     1       3.992   3.513  18.320  0.00  0.00    +0.000 A 
ATOM     30  C   UNL     1       3.008   3.974  17.438  0.00  0.00    +0.000 A 
ATOM     31  C   UNL     1       1.660   3.981  17.817  0.00  0.00    +0.000 A 
ATOM     32  C   UNL     1       1.285   3.526  19.082  0.00  0.00    +0.000 A 
ATOM     33  C   UNL     1       2.262   3.060  19.958  0.00  0.00    +0.000 A 
ATOM     34 CL   UNL     1       1.809   2.525  21.532  0.00  0.00    +0.000 Cl
ATOM     35  C   UNL     1       3.607   3.031  19.580  0.00  0.00    +0.000 A 
ENDBRANCH  28  29
ENDBRANCH   6  28
TORSDOF 8
ENDMDL
MODEL 2
REMARK VINA RESULT:      -8.5      6.343      8.725
REMARK  Name = 
REMARK  8 active torsions:
REMARK  status: ('A' for Active; 'I' for Inactive)
REMARK    1  A    between atoms: N_1  and  S_2
REMARK    2  A    between atoms: S_2  and  C_5
REMARK    3  A    between atoms: C_7  and  N_8
REMARK    4  A    between atoms: C_9  and  C_11
REMARK    5  A    between atoms: C_11  and  C_12
REMARK    6  A    between atoms: C_17  and  C_18
REMARK    7  A    between atoms: C_24  and  O_25
REMARK    8  A    between atoms: O_25  and  C_26
REMARK                            x       y       z     vdW  Elec       q    Type
REMARK                         _______ _______ _______ _____ _____    ______ ____
ROOT
ATOM      1  C   UNL     1       1.103   9.181  20.172  0.00  0.00    +0.000 A 
ATOM      2  C   UNL     1       1.957   8.065  20.112  0.00  0.00    +0.000 A 
ATOM      3  C   UNL     1       2.488   7.623  18.904  0.00  0.00    +0.000 A 
ATOM      4  C   UNL     1       2.064   8.238  17.731  0.00  0.00    +0.000 A 
ATOM      5  C   UNL     1       1.205   9.341  17.781  0.00  0.00    +0.000 A 
ATOM      6  C   UNL     1       0.779   9.883  19.003  0.00  0.00    +0.000 A 
ENDROOT
BRANCH   3   7
ATOM      7  N   UNL     1       3.437   6.583  18.818  0.00  0.00    +0.000 N 
ATOM      8  C   UNL     1       3.141   5.248  18.579  0.00  0.00    +0.000 C 
ATOM      9  O   UNL     1       2.017   4.780  18.407  0.00  0.00    +0.000 OA
ATOM     10  H   UNL     1       4.387   6.807  19.100  0.00  0.00    +0.000 HD
BRANCH   8  11
ATOM     11  C   UNL     1       4.353   4.332  18.578  0.00  0.00    +0.000 C 
BRANCH  11  12
ATOM     12  C   UNL     1       5.241   4.529  17.368  0.00  0.00    +0.000 A 
ATOM     13  C   UNL     1       4.744   4.068  16.130  0.00  0.00    +0.000 A 
ATOM     14  C   UNL     1       5.476   4.210  14.952  0.00  0.00    +0.000 A 
ATOM     15  C   UNL     1       6.710   4.843  14.979  0.00  0.00    +0.000 A 
ATOM     16  C   UNL     1       7.218   5.313  16.190  0.00  0.00    +0.000 A 
ATOM     17  C   UNL     1       6.508   5.154  17.402  0.00  0.00    +0.000 A 
BRANCH  17  18
ATOM     18  C   UNL     1       7.204   5.650  18.652  0.00  0.00    +0.000 C 
ATOM     19  F   UNL     1       8.310   4.941  19.020  0.00  0.00    +0.000 F 
ATOM     20  F   UNL     1       7.621   6.941  18.529  0.00  0.00    +0.000 F 
ATOM     21  F   UNL     1       6.393   5.623  19.746  0.00  0.00    +0.000 F 
ENDBRANCH  17  18
ENDBRANCH  11  12
ENDBRANCH   8  11
ENDBRANCH   3   7
BRANCH   1  22
ATOM     22  S   UNL     1       0.455   9.528  21.779  0.00  0.00    +0.000 S 
ATOM     23  O   UNL     1      -0.588   8.568  22.066  0.00  0.00    +0.000 OA
ATOM     24  O   UNL     1       0.270  10.951  21.968  0.00  0.00    +0.000 OA
BRANCH  22  25
ATOM     25  N   UNL     1       1.740   9.119  22.791  0.00  0.00    +0.000 NA
ATOM     26  H   UNL     1       2.526   9.758  22.649  0.00  0.00    +0.000 HD
ATOM     27  H   UNL     1       1.981   8.136  22.671  0.00  0.00    +0.000 HD
ENDBRANCH  22  25
ENDBRANCH   1  22
BRANCH   6  28
ATOM     28  O   UNL     1       0.030  11.042  19.039  0.00  0.00    +0.000 OA
BRANCH  28  29
ATOM     29  C   UNL     1      -1.248  11.035  18.495  0.00  0.00    +0.000 A 
ATOM     30  C   UNL     1      -2.246  11.715  19.202  0.00  0.00    +0.000 A 
ATOM     31  C   UNL     1      -3.557  11.764  18.713  0.00  0.00    +0.000 A 
ATOM     32  C   UNL     1      -3.881  11.133  17.512  0.00  0.00    +0.000 A 
ATOM     33  C   UNL     1      -2.888  10.462  16.803  0.00  0.00    +0.000 A 
ATOM     34 CL   UNL     1      -3.287   9.655  15.334  0.00  0.00    +0.000 Cl
ATOM     35  C   UNL     1      -1.572  10.426  17.274  0.00  0.00    +0.000 A 
ENDBRANCH  28  29
ENDBRANCH   6  28
TORSDOF 8
ENDMDL
MODEL 3
REMARK VINA RESULT:      -8.5      6.430      8.749
REMARK  Name = 
REMARK  8 active torsions:
REMARK  status: ('A' for Active; 'I' for Inactive)
REMARK    1  A    between atoms: N_1  and  S_2
REMARK    2  A    between atoms: S_2  and  C_5
REMARK    3  A    between atoms: C_7  and  N_8
REMARK    4  A    between atoms: C_9  and  C_11
REMARK    5  A    between atoms: C_11  and  C_12
REMARK    6  A    between atoms: C_17  and  C_18
REMARK    7  A    between atoms: C_24  and  O_25
REMARK    8  A    between atoms: O_25  and  C_26
REMARK                            x       y       z     vdW  Elec       q    Type
REMARK                         _______ _______ _______ _____ _____    ______ ____
ROOT
ATOM      1  C   UNL     1       1.153   9.169  20.171  0.00  0.00    +0.000 A 
ATOM      2  C   UNL     1       2.008   8.055  20.102  0.00  0.00    +0.000 A 
ATOM      3  C   UNL     1       2.508   7.598  18.886  0.00  0.00    +0.000 A 
ATOM      4  C   UNL     1       2.049   8.197  17.717  0.00  0.00    +0.000 A 
ATOM      5  C   UNL     1       1.188   9.298  17.777  0.00  0.00    +0.000 A 
ATOM      6  C   UNL     1       0.795   9.855  19.003  0.00  0.00    +0.000 A 
ENDROOT
BRANCH   3   7
ATOM      7  N   UNL     1       3.457   6.560  18.787  0.00  0.00    +0.000 N 
ATOM      8  C   UNL     1       3.169   5.242  18.459  0.00  0.00    +0.000 C 
ATOM      9  O   UNL     1       2.053   4.790  18.207  0.00  0.00    +0.000 OA
ATOM     10  H   UNL     1       4.392   6.762  19.127  0.00  0.00    +0.000 HD
BRANCH   8  11
ATOM     11  C   UNL     1       4.377   4.321  18.465  0.00  0.00    +0.000 C 
BRANCH  11  12
ATOM     12  C   UNL     1       5.282   4.525  17.269  0.00  0.00    +0.000 A 
ATOM     13  C   UNL     1       4.798   4.078  16.020  0.00  0.00    +0.000 A 
ATOM     14  C   UNL     1       5.546   4.228  14.853  0.00  0.00    +0.000 A 
ATOM     15  C   UNL     1       6.782   4.856  14.902  0.00  0.00    +0.000 A 
ATOM     16  C   UNL     1       7.276   5.312  16.123  0.00  0.00    +0.000 A 
ATOM     17  C   UNL     1       6.551   5.145  17.325  0.00  0.00    +0.000 A 
BRANCH  17  18
ATOM     18  C   UNL     1       7.232   5.626  18.587  0.00  0.00    +0.000 C 
ATOM     19  F   UNL     1       7.706   6.904  18.540  0.00  0.00    +0.000 F 
ATOM     20  F   UNL     1       6.402   5.583  19.667  0.00  0.00    +0.000 F 
ATOM     21  F   UNL     1       8.313   4.866  18.919  0.00  0.00    +0.000 F 
ENDBRANCH  17  18
ENDBRANCH  11  12
ENDBRANCH   8  11
ENDBRANCH   3   7
BRANCH   1  22
ATOM     22  S   UNL     1       0.549   9.536  21.791  0.00  0.00    +0.000 S 
ATOM     23  O   UNL     1       1.587   9.220  22.747  0.00  0.00    +0.000 OA
ATOM     24  O   UNL     1      -0.815   9.082  21.952  0.00  0.00    +0.000 OA
BRANCH  22  25
ATOM     25  N   UNL     1       0.445  11.220  21.772  0.00  0.00    +0.000 NA
ATOM     26  H   UNL     1       1.358  11.637  21.965  0.00  0.00    +0.000 HD
ATOM     27  H   UNL     1      -0.293  11.532  22.403  0.00  0.00    +0.000 HD
ENDBRANCH  22  25
ENDBRANCH   1  22
BRANCH   6  28
ATOM     28  O   UNL     1       0.044  11.012  19.044  0.00  0.00    +0.000 OA
BRANCH  28  29
ATOM     29  C   UNL     1      -1.289  10.965  18.657  0.00  0.00    +0.000 A 
ATOM     30  C   UNL     1      -1.631  10.041  17.663  0.00  0.00    +0.000 A 
ATOM     31  C   UNL     1      -2.957   9.925  17.225  0.00  0.00    +0.000 A 
ATOM     32  C   UNL     1      -3.951  10.732  17.779  0.00  0.00    +0.000 A 
ATOM     33  C   UNL     1      -3.613  11.647  18.773  0.00  0.00    +0.000 A 
ATOM     34 CL   UNL     1      -4.830  12.668  19.440  0.00  0.00    +0.000 Cl
ATOM     35  C   UNL     1      -2.296  11.755  19.229  0.00  0.00    +0.000 A 
ENDBRANCH  28  29
ENDBRANCH   6  28
TORSDOF 8
ENDMDL
MODEL 4
REMARK VINA RESULT:      -8.2      7.483     10.204
REMARK  Name = 
REMARK  8 active torsions:
REMARK  status: ('A' for Active; 'I' for Inactive)
REMARK    1  A    between atoms: N_1  and  S_2
REMARK    2  A    between atoms: S_2  and  C_5
REMARK    3  A    between atoms: C_7  and  N_8
REMARK    4  A    between atoms: C_9  and  C_11
REMARK    5  A    between atoms: C_11  and  C_12
REMARK    6  A    between atoms: C_17  and  C_18
REMARK    7  A    between atoms: C_24  and  O_25
REMARK    8  A    between atoms: O_25  and  C_26
REMARK                            x       y       z     vdW  Elec       q    Type
REMARK                         _______ _______ _______ _____ _____    ______ ____
ROOT
ATOM      1  C   UNL     1       0.707  11.141  19.520  0.00  0.00    +0.000 A 
ATOM      2  C   UNL     1       1.646  10.105  19.671  0.00  0.00    +0.000 A 
ATOM      3  C   UNL     1       1.298   8.890  20.250  0.00  0.00    +0.000 A 
ATOM      4  C   UNL     1       0.022   8.756  20.791  0.00  0.00    +0.000 A 
ATOM      5  C   UNL     1      -0.914   9.788  20.657  0.00  0.00    +0.000 A 
ATOM      6  C   UNL     1      -0.616  10.960  19.947  0.00  0.00    +0.000 A 
ENDROOT
BRANCH   3   7
ATOM      7  N   UNL     1       2.177   7.789  20.312  0.00  0.00    +0.000 N 
ATOM      8  C   UNL     1       2.579   7.024  19.226  0.00  0.00    +0.000 C 
ATOM      9  O   UNL     1       2.232   7.194  18.059  0.00  0.00    +0.000 OA
ATOM     10  H   UNL     1       2.410   7.443  21.239  0.00  0.00    +0.000 HD
BRANCH   8  11
ATOM     11  C   UNL     1       3.499   5.870  19.584  0.00  0.00    +0.000 C 
BRANCH  11  12
ATOM     12  C   UNL     1       3.083   4.562  18.946  0.00  0.00    +0.000 A 
ATOM     13  C   UNL     1       3.653   4.255  17.691  0.00  0.00    +0.000 A 
ATOM     14  C   UNL     1       3.348   3.070  17.022  0.00  0.00    +0.000 A 
ATOM     15  C   UNL     1       2.488   2.151  17.605  0.00  0.00    +0.000 A 
ATOM     16  C   UNL     1       1.919   2.429  18.848  0.00  0.00    +0.000 A 
ATOM     17  C   UNL     1       2.190   3.636  19.532  0.00  0.00    +0.000 A 
BRANCH  17  18
ATOM     18  C   UNL     1       1.455   3.841  20.839  0.00  0.00    +0.000 C 
ATOM     19  F   UNL     1       0.685   2.789  21.242  0.00  0.00    +0.000 F 
ATOM     20  F   UNL     1       2.306   4.089  21.873  0.00  0.00    +0.000 F 
ATOM     21  F   UNL     1       0.601   4.902  20.797  0.00  0.00    +0.000 F 
ENDBRANCH  17  18
ENDBRANCH  11  12
ENDBRANCH   8  11
ENDBRANCH   3   7
BRANCH   1  22
ATOM     22  S   UNL     1       1.362  12.640  18.851  0.00  0.00    +0.000 S 
ATOM     23  O   UNL     1       2.217  13.248  19.847  0.00  0.00    +0.000 OA
ATOM     24  O   UNL     1       0.340  13.387  18.150  0.00  0.00    +0.000 OA
BRANCH  22  25
ATOM     25  N   UNL     1       2.397  12.082  17.642  0.00  0.00    +0.000 NA
ATOM     26  H   UNL     1       3.349  11.983  18.003  0.00  0.00    +0.000 HD
ATOM     27  H   UNL     1       2.328  12.679  16.818  0.00  0.00    +0.000 HD
ENDBRANCH  22  25
ENDBRANCH   1  22
BRANCH   6  28
ATOM     28  O   UNL     1      -1.587  11.915  19.721  0.00  0.00    +0.000 OA
BRANCH  28  29
ATOM     29  C   UNL     1      -2.535  11.690  18.732  0.00  0.00    +0.000 A 
ATOM     30  C   UNL     1      -3.865  11.995  19.043  0.00  0.00    +0.000 A 
ATOM     31  C   UNL     1      -4.879  11.807  18.095  0.00  0.00    +0.000 A 
ATOM     32  C   UNL     1      -4.570  11.312  16.828  0.00  0.00    +0.000 A 
ATOM     33  C   UNL     1      -3.246  11.014  16.515  0.00  0.00    +0.000 A 
ATOM     34 CL   UNL     1      -2.862  10.375  14.961  0.00  0.00    +0.000 Cl
ATOM     35  C   UNL     1      -2.226  11.219  17.448  0.00  0.00    +0.000 A 
ENDBRANCH  28  29
ENDBRANCH   6  28
TORSDOF 8
ENDMDL
MODEL 5
REMARK VINA RESULT:      -8.1      6.417      9.055
REMARK  Name = 
REMARK  8 active torsions:
REMARK  status: ('A' for Active; 'I' for Inactive)
REMARK    1  A    between atoms: N_1  and  S_2
REMARK    2  A    between atoms: S_2  and  C_5
REMARK    3  A    between atoms: C_7  and  N_8
REMARK    4  A    between atoms: C_9  and  C_11
REMARK    5  A    between atoms: C_11  and  C_12
REMARK    6  A    between atoms: C_17  and  C_18
REMARK    7  A    between atoms: C_24  and  O_25
REMARK    8  A    between atoms: O_25  and  C_26
REMARK                            x       y       z     vdW  Elec       q    Type
REMARK                         _______ _______ _______ _____ _____    ______ ____
ROOT
ATOM      1  C   UNL     1       1.076   9.196  20.166  0.00  0.00    +0.000 A 
ATOM      2  C   UNL     1       1.952   8.097  20.108  0.00  0.00    +0.000 A 
ATOM      3  C   UNL     1       2.450   7.630  18.896  0.00  0.00    +0.000 A 
ATOM      4  C   UNL     1       1.970   8.200  17.721  0.00  0.00    +0.000 A 
ATOM      5  C   UNL     1       1.088   9.285  17.770  0.00  0.00    +0.000 A 
ATOM      6  C   UNL     1       0.694   9.855  18.989  0.00  0.00    +0.000 A 
ENDROOT
BRANCH   3   7
ATOM      7  N   UNL     1       3.419   6.609  18.806  0.00  0.00    +0.000 N 
ATOM      8  C   UNL     1       3.145   5.263  18.607  0.00  0.00    +0.000 C 
ATOM      9  O   UNL     1       2.028   4.767  18.478  0.00  0.00    +0.000 OA
ATOM     10  H   UNL     1       4.371   6.860  19.056  0.00  0.00    +0.000 HD
BRANCH   8  11
ATOM     11  C   UNL     1       4.377   4.374  18.592  0.00  0.00    +0.000 C 
BRANCH  11  12
ATOM     12  C   UNL     1       5.238   4.577  17.364  0.00  0.00    +0.000 A 
ATOM     13  C   UNL     1       4.708   4.135  16.133  0.00  0.00    +0.000 A 
ATOM     14  C   UNL     1       5.413   4.285  14.940  0.00  0.00    +0.000 A 
ATOM     15  C   UNL     1       6.653   4.907  14.945  0.00  0.00    +0.000 A 
ATOM     16  C   UNL     1       7.193   5.359  16.148  0.00  0.00    +0.000 A 
ATOM     17  C   UNL     1       6.511   5.191  17.375  0.00  0.00    +0.000 A 
BRANCH  17  18
ATOM     18  C   UNL     1       7.240   5.666  18.614  0.00  0.00    +0.000 C 
ATOM     19  F   UNL     1       6.492   5.692  19.754  0.00  0.00    +0.000 F 
ATOM     20  F   UNL     1       8.321   4.888  18.903  0.00  0.00    +0.000 F 
ATOM     21  F   UNL     1       7.719   6.935  18.483  0.00  0.00    +0.000 F 
ENDBRANCH  17  18
ENDBRANCH  11  12
ENDBRANCH   8  11
ENDBRANCH   3   7
BRANCH   1  22
ATOM     22  S   UNL     1       0.477   9.579  21.785  0.00  0.00    +0.000 S 
ATOM     23  O   UNL     1      -0.598   8.664  22.100  0.00  0.00    +0.000 OA
ATOM     24  O   UNL     1       0.356  11.008  21.969  0.00  0.00    +0.000 OA
BRANCH  22  25
ATOM     25  N   UNL     1       1.767   9.122  22.771  0.00  0.00    +0.000 NA
ATOM     26  H   UNL     1       1.955   9.842  23.471  0.00  0.00    +0.000 HD
ATOM     27  H   UNL     1       2.576   8.879  22.200  0.00  0.00    +0.000 HD
ENDBRANCH  22  25
ENDBRANCH   1  22
BRANCH   6  28
ATOM     28  O   UNL     1      -0.080  10.997  19.018  0.00  0.00    +0.000 OA
BRANCH  28  29
ATOM     29  C   UNL     1       0.540  12.234  18.886  0.00  0.00    +0.000 A 
ATOM     30  C   UNL     1       1.933  12.238  18.749  0.00  0.00    +0.000 A 
ATOM     31  C   UNL     1       2.629  13.443  18.600  0.00  0.00    +0.000 A 
ATOM     32  C   UNL     1       1.938  14.655  18.587  0.00  0.00    +0.000 A 
ATOM     33  C   UNL     1       0.552  14.652  18.718  0.00  0.00    +0.000 A 
ATOM     34 CL   UNL     1      -0.305  16.147  18.733  0.00  0.00    +0.000 Cl
ATOM     35  C   UNL     1      -0.153  13.452  18.846  0.00  0.00    +0.000 A 
ENDBRANCH  28  29
ENDBRANCH   6  28
TORSDOF 8
ENDMDL
MODEL 6
REMARK VINA RESULT:      -8.0      6.815      8.978
REMARK  Name = 
REMARK  8 active torsions:
REMARK  status: ('A' for Active; 'I' for Inactive)
REMARK    1  A    between atoms: N_1  and  S_2
REMARK    2  A    between atoms: S_2  and  C_5
REMARK    3  A    between atoms: C_7  and  N_8
REMARK    4  A    between atoms: C_9  and  C_11
REMARK    5  A    between atoms: C_11  and  C_12
REMARK    6  A    between atoms: C_17  and  C_18
REMARK    7  A    between atoms: C_24  and  O_25
REMARK    8  A    between atoms: O_25  and  C_26
REMARK                            x       y       z     vdW  Elec       q    Type
REMARK                         _______ _______ _______ _____ _____    ______ ____
ROOT
ATOM      1  C   UNL     1       1.057   9.380  20.239  0.00  0.00    +0.000 A 
ATOM      2  C   UNL     1       1.866   8.239  20.378  0.00  0.00    +0.000 A 
ATOM      3  C   UNL     1       2.400   7.590  19.270  0.00  0.00    +0.000 A 
ATOM      4  C   UNL     1       2.020   8.023  18.003  0.00  0.00    +0.000 A 
ATOM      5  C   UNL     1       1.204   9.150  17.857  0.00  0.00    +0.000 A 
ATOM      6  C   UNL     1       0.779   9.897  18.966  0.00  0.00    +0.000 A 
ENDROOT
BRANCH   3   7
ATOM      7  N   UNL     1       3.309   6.516  19.372  0.00  0.00    +0.000 N 
ATOM      8  C   UNL     1       2.984   5.230  19.783  0.00  0.00    +0.000 C 
ATOM      9  O   UNL     1       1.866   4.841  20.114  0.00  0.00    +0.000 OA
ATOM     10  H   UNL     1       4.295   6.742  19.282  0.00  0.00    +0.000 HD
BRANCH   8  11
ATOM     11  C   UNL     1       4.167   4.279  19.842  0.00  0.00    +0.000 C 
BRANCH  11  12
ATOM     12  C   UNL     1       5.316   4.707  18.954  0.00  0.00    +0.000 A 
ATOM     13  C   UNL     1       6.391   5.375  19.580  0.00  0.00    +0.000 A 
ATOM     14  C   UNL     1       7.504   5.801  18.857  0.00  0.00    +0.000 A 
ATOM     15  C   UNL     1       7.582   5.544  17.496  0.00  0.00    +0.000 A 
ATOM     16  C   UNL     1       6.536   4.878  16.859  0.00  0.00    +0.000 A 
ATOM     17  C   UNL     1       5.384   4.463  17.564  0.00  0.00    +0.000 A 
BRANCH  17  18
ATOM     18  C   UNL     1       4.295   3.812  16.738  0.00  0.00    +0.000 C 
ATOM     19  F   UNL     1       4.536   3.761  15.396  0.00  0.00    +0.000 F 
ATOM     20  F   UNL     1       4.063   2.525  17.118  0.00  0.00    +0.000 F 
ATOM     21  F   UNL     1       3.099   4.455  16.852  0.00  0.00    +0.000 F 
ENDBRANCH  17  18
ENDBRANCH  11  12
ENDBRANCH   8  11
ENDBRANCH   3   7
BRANCH   1  22
ATOM     22  S   UNL     1       0.395  10.005  21.755  0.00  0.00    +0.000 S 
ATOM     23  O   UNL     1       1.257   9.580  22.836  0.00  0.00    +0.000 OA
ATOM     24  O   UNL     1      -1.041   9.842  21.801  0.00  0.00    +0.000 OA
BRANCH  22  25
ATOM     25  N   UNL     1       0.639  11.667  21.605  0.00  0.00    +0.000 NA
ATOM     26  H   UNL     1       1.538  11.859  21.158  0.00  0.00    +0.000 HD
ATOM     27  H   UNL     1       0.523  12.120  22.512  0.00  0.00    +0.000 HD
ENDBRANCH  22  25
ENDBRANCH   1  22
BRANCH   6  28
ATOM     28  O   UNL     1       0.076  11.072  18.799  0.00  0.00    +0.000 OA
BRANCH  28  29
ATOM     29  C   UNL     1      -1.274  11.010  18.480  0.00  0.00    +0.000 A 
ATOM     30  C   UNL     1      -1.653  10.098  17.488  0.00  0.00    +0.000 A 
ATOM     31  C   UNL     1      -2.997   9.968  17.118  0.00  0.00    +0.000 A 
ATOM     32  C   UNL     1      -3.974  10.750  17.736  0.00  0.00    +0.000 A 
ATOM     33  C   UNL     1      -3.599  11.653  18.727  0.00  0.00    +0.000 A 
ATOM     34 CL   UNL     1      -4.795  12.643  19.474  0.00  0.00    +0.000 Cl
ATOM     35  C   UNL     1      -2.262  11.774  19.117  0.00  0.00    +0.000 A 
ENDBRANCH  28  29
ENDBRANCH   6  28
TORSDOF 8
ENDMDL
MODEL 7
REMARK VINA RESULT:      -8.0      8.056     10.401
REMARK  Name = 
REMARK  8 active torsions:
REMARK  status: ('A' for Active; 'I' for Inactive)
REMARK    1  A    between atoms: N_1  and  S_2
REMARK    2  A    between atoms: S_2  and  C_5
REMARK    3  A    between atoms: C_7  and  N_8
REMARK    4  A    between atoms: C_9  and  C_11
REMARK    5  A    between atoms: C_11  and  C_12
REMARK    6  A    between atoms: C_17  and  C_18
REMARK    7  A    between atoms: C_24  and  O_25
REMARK    8  A    between atoms: O_25  and  C_26
REMARK                            x       y       z     vdW  Elec       q    Type
REMARK                         _______ _______ _______ _____ _____    ______ ____
ROOT
ATOM      1  C   UNL     1      -1.106  10.627  18.985  0.00  0.00    +0.000 A 
ATOM      2  C   UNL     1      -0.261   9.512  19.134  0.00  0.00    +0.000 A 
ATOM      3  C   UNL     1       0.710   9.465  20.128  0.00  0.00    +0.000 A 
ATOM      4  C   UNL     1       0.915  10.601  20.906  0.00  0.00    +0.000 A 
ATOM      5  C   UNL     1       0.087  11.719  20.756  0.00  0.00    +0.000 A 
ATOM      6  C   UNL     1      -0.988  11.720  19.855  0.00  0.00    +0.000 A 
ENDROOT
BRANCH   3   7
ATOM      7  N   UNL     1       1.495   8.321  20.382  0.00  0.00    +0.000 N 
ATOM      8  C   UNL     1       2.163   7.580  19.417  0.00  0.00    +0.000 C 
ATOM      9  O   UNL     1       2.171   7.810  18.210  0.00  0.00    +0.000 OA
ATOM     10  H   UNL     1       1.441   7.930  21.317  0.00  0.00    +0.000 HD
BRANCH   8  11
ATOM     11  C   UNL     1       2.901   6.369  19.964  0.00  0.00    +0.000 C 
BRANCH  11  12
ATOM     12  C   UNL     1       2.287   5.056  19.528  0.00  0.00    +0.000 A 
ATOM     13  C   UNL     1       1.185   4.588  20.276  0.00  0.00    +0.000 A 
ATOM     14  C   UNL     1       0.538   3.396  19.952  0.00  0.00    +0.000 A 
ATOM     15  C   UNL     1       0.958   2.659  18.854  0.00  0.00    +0.000 A 
ATOM     16  C   UNL     1       2.039   3.107  18.096  0.00  0.00    +0.000 A 
ATOM     17  C   UNL     1       2.731   4.296  18.422  0.00  0.00    +0.000 A 
BRANCH  17  18
ATOM     18  C   UNL     1       3.927   4.630  17.557  0.00  0.00    +0.000 C 
ATOM     19  F   UNL     1       5.126   4.647  18.207  0.00  0.00    +0.000 F 
ATOM     20  F   UNL     1       4.080   3.747  16.530  0.00  0.00    +0.000 F 
ATOM     21  F   UNL     1       3.826   5.859  16.979  0.00  0.00    +0.000 F 
ENDBRANCH  17  18
ENDBRANCH  11  12
ENDBRANCH   8  11
ENDBRANCH   3   7
BRANCH   1  22
ATOM     22  S   UNL     1      -2.210  10.539  17.608  0.00  0.00    +0.000 S 
ATOM     23  O   UNL     1      -3.561  10.446  18.114  0.00  0.00    +0.000 OA
ATOM     24  O   UNL     1      -1.701   9.645  16.590  0.00  0.00    +0.000 OA
BRANCH  22  25
ATOM     25  N   UNL     1      -2.081  12.081  16.934  0.00  0.00    +0.000 NA
ATOM     26  H   UNL     1      -1.819  12.763  17.648  0.00  0.00    +0.000 HD
ATOM     27  H   UNL     1      -2.937  12.316  16.433  0.00  0.00    +0.000 HD
ENDBRANCH  22  25
ENDBRANCH   1  22
BRANCH   6  28
ATOM     28  O   UNL     1      -1.866  12.783  19.804  0.00  0.00    +0.000 OA
BRANCH  28  29
ATOM     29  C   UNL     1      -2.970  12.787  20.648  0.00  0.00    +0.000 A 
ATOM     30  C   UNL     1      -4.228  12.928  20.050  0.00  0.00    +0.000 A 
ATOM     31  C   UNL     1      -5.389  12.930  20.832  0.00  0.00    +0.000 A 
ATOM     32  C   UNL     1      -5.303  12.790  22.217  0.00  0.00    +0.000 A 
ATOM     33  C   UNL     1      -4.052  12.643  22.812  0.00  0.00    +0.000 A 
ATOM     34 CL   UNL     1      -3.936  12.499  24.525  0.00  0.00    +0.000 Cl
ATOM     35  C   UNL     1      -2.889  12.619  22.038  0.00  0.00    +0.000 A 
ENDBRANCH  28  29
ENDBRANCH   6  28
TORSDOF 8
ENDMDL
MODEL 8
REMARK VINA RESULT:      -8.0      7.180      9.595
REMARK  Name = 
REMARK  8 active torsions:
REMARK  status: ('A' for Active; 'I' for Inactive)
REMARK    1  A    between atoms: N_1  and  S_2
REMARK    2  A    between atoms: S_2  and  C_5
REMARK    3  A    between atoms: C_7  and  N_8
REMARK    4  A    between atoms: C_9  and  C_11
REMARK    5  A    between atoms: C_11  and  C_12
REMARK    6  A    between atoms: C_17  and  C_18
REMARK    7  A    between atoms: C_24  and  O_25
REMARK    8  A    between atoms: O_25  and  C_26
REMARK                            x       y       z     vdW  Elec       q    Type
REMARK                         _______ _______ _______ _____ _____    ______ ____
ROOT
ATOM      1  C   UNL     1       0.928   9.529  20.506  0.00  0.00    +0.000 A 
ATOM      2  C   UNL     1       1.653   8.331  20.633  0.00  0.00    +0.000 A 
ATOM      3  C   UNL     1       2.142   7.657  19.518  0.00  0.00    +0.000 A 
ATOM      4  C   UNL     1       1.797   8.132  18.256  0.00  0.00    +0.000 A 
ATOM      5  C   UNL     1       1.065   9.316  18.121  0.00  0.00    +0.000 A 
ATOM      6  C   UNL     1       0.692  10.079  19.239  0.00  0.00    +0.000 A 
ENDROOT
BRANCH   3   7
ATOM      7  N   UNL     1       2.970   6.520  19.610  0.00  0.00    +0.000 N 
ATOM      8  C   UNL     1       2.592   5.297  20.149  0.00  0.00    +0.000 C 
ATOM      9  O   UNL     1       1.489   5.028  20.619  0.00  0.00    +0.000 OA
ATOM     10  H   UNL     1       3.955   6.655  19.405  0.00  0.00    +0.000 HD
BRANCH   8  11
ATOM     11  C   UNL     1       3.697   4.255  20.161  0.00  0.00    +0.000 C 
BRANCH  11  12
ATOM     12  C   UNL     1       4.536   4.268  18.901  0.00  0.00    +0.000 A 
ATOM     13  C   UNL     1       5.865   4.729  19.024  0.00  0.00    +0.000 A 
ATOM     14  C   UNL     1       6.726   4.771  17.929  0.00  0.00    +0.000 A 
ATOM     15  C   UNL     1       6.289   4.324  16.690  0.00  0.00    +0.000 A 
ATOM     16  C   UNL     1       4.984   3.857  16.546  0.00  0.00    +0.000 A 
ATOM     17  C   UNL     1       4.082   3.833  17.635  0.00  0.00    +0.000 A 
BRANCH  17  18
ATOM     18  C   UNL     1       2.676   3.366  17.326  0.00  0.00    +0.000 C 
ATOM     19  F   UNL     1       2.170   2.437  18.188  0.00  0.00    +0.000 F 
ATOM     20  F   UNL     1       1.781   4.393  17.329  0.00  0.00    +0.000 F 
ATOM     21  F   UNL     1       2.576   2.789  16.095  0.00  0.00    +0.000 F 
ENDBRANCH  17  18
ENDBRANCH  11  12
ENDBRANCH   8  11
ENDBRANCH   3   7
BRANCH   1  22
ATOM     22  S   UNL     1       0.310  10.183  22.028  0.00  0.00    +0.000 S 
ATOM     23  O   UNL     1       1.191   9.762  23.095  0.00  0.00    +0.000 OA
ATOM     24  O   UNL     1      -1.128  10.038  22.109  0.00  0.00    +0.000 OA
BRANCH  22  25
ATOM     25  N   UNL     1       0.569  11.840  21.849  0.00  0.00    +0.000 NA
ATOM     26  H   UNL     1       1.442  12.014  21.347  0.00  0.00    +0.000 HD
ATOM     27  H   UNL     1       0.515  12.302  22.756  0.00  0.00    +0.000 HD
ENDBRANCH  22  25
ENDBRANCH   1  22
BRANCH   6  28
ATOM     28  O   UNL     1       0.076  11.304  19.084  0.00  0.00    +0.000 OA
BRANCH  28  29
ATOM     29  C   UNL     1      -1.285  11.343  18.806  0.00  0.00    +0.000 A 
ATOM     30  C   UNL     1      -1.752  10.506  17.786  0.00  0.00    +0.000 A 
ATOM     31  C   UNL     1      -3.112  10.481  17.454  0.00  0.00    +0.000 A 
ATOM     32  C   UNL     1      -4.016  11.292  18.139  0.00  0.00    +0.000 A 
ATOM     33  C   UNL     1      -3.553  12.121  19.158  0.00  0.00    +0.000 A 
ATOM     34 CL   UNL     1      -4.660  13.148  19.988  0.00  0.00    +0.000 Cl
ATOM     35  C   UNL     1      -2.201  12.138  19.510  0.00  0.00    +0.000 A 
ENDBRANCH  28  29
ENDBRANCH   6  28
TORSDOF 8
ENDMDL
MODEL 9
REMARK VINA RESULT:      -7.9      7.784     10.556
REMARK  Name = 
REMARK  8 active torsions:
REMARK  status: ('A' for Active; 'I' for Inactive)
REMARK    1  A    between atoms: N_1  and  S_2
REMARK    2  A    between atoms: S_2  and  C_5
REMARK    3  A    between atoms: C_7  and  N_8
REMARK    4  A    between atoms: C_9  and  C_11
REMARK    5  A    between atoms: C_11  and  C_12
REMARK    6  A    between atoms: C_17  and  C_18
REMARK    7  A    between atoms: C_24  and  O_25
REMARK    8  A    between atoms: O_25  and  C_26
REMARK                            x       y       z     vdW  Elec       q    Type
REMARK                         _______ _______ _______ _____ _____    ______ ____
ROOT
ATOM      1  C   UNL     1      -0.505  10.528  20.277  0.00  0.00    +0.000 A 
ATOM      2  C   UNL     1       0.400   9.463  20.119  0.00  0.00    +0.000 A 
ATOM      3  C   UNL     1       0.954   8.814  21.217  0.00  0.00    +0.000 A 
ATOM      4  C   UNL     1       0.687   9.317  22.487  0.00  0.00    +0.000 A 
ATOM      5  C   UNL     1      -0.203  10.384  22.651  0.00  0.00    +0.000 A 
ATOM      6  C   UNL     1      -0.878  10.951  21.560  0.00  0.00    +0.000 A 
ENDROOT
BRANCH   3   7
ATOM      7  N   UNL     1       1.772   7.670  21.101  0.00  0.00    +0.000 N 
ATOM      8  C   UNL     1       2.310   7.189  19.916  0.00  0.00    +0.000 C 
ATOM      9  O   UNL     1       2.156   7.685  18.802  0.00  0.00    +0.000 OA
ATOM     10  H   UNL     1       1.845   7.076  21.922  0.00  0.00    +0.000 HD
BRANCH   8  11
ATOM     11  C   UNL     1       3.120   5.913  20.073  0.00  0.00    +0.000 C 
BRANCH  11  12
ATOM     12  C   UNL     1       2.412   4.692  19.528  0.00  0.00    +0.000 A 
ATOM     13  C   UNL     1       1.340   4.181  20.293  0.00  0.00    +0.000 A 
ATOM     14  C   UNL     1       0.613   3.068  19.876  0.00  0.00    +0.000 A 
ATOM     15  C   UNL     1       0.920   2.455  18.669  0.00  0.00    +0.000 A 
ATOM     16  C   UNL     1       1.969   2.947  17.894  0.00  0.00    +0.000 A 
ATOM     17  C   UNL     1       2.741   4.056  18.309  0.00  0.00    +0.000 A 
BRANCH  17  18
ATOM     18  C   UNL     1       3.891   4.444  17.406  0.00  0.00    +0.000 C 
ATOM     19  F   UNL     1       5.132   4.322  17.961  0.00  0.00    +0.000 F 
ATOM     20  F   UNL     1       3.925   3.695  16.268  0.00  0.00    +0.000 F 
ATOM     21  F   UNL     1       3.819   5.741  16.995  0.00  0.00    +0.000 F 
ENDBRANCH  17  18
ENDBRANCH  11  12
ENDBRANCH   8  11
ENDBRANCH   3   7
BRANCH   1  22
ATOM     22  S   UNL     1      -1.025  11.285  18.767  0.00  0.00    +0.000 S 
ATOM     23  O   UNL     1      -0.325  12.542  18.624  0.00  0.00    +0.000 OA
ATOM     24  O   UNL     1      -2.458  11.174  18.596  0.00  0.00    +0.000 OA
BRANCH  22  25
ATOM     25  N   UNL     1      -0.369  10.262  17.597  0.00  0.00    +0.000 NA
ATOM     26  H   UNL     1      -0.465  10.674  16.666  0.00  0.00    +0.000 HD
ATOM     27  H   UNL     1      -0.774   9.330  17.681  0.00  0.00    +0.000 HD
ENDBRANCH  22  25
ENDBRANCH   1  22
BRANCH   6  28
ATOM     28  O   UNL     1      -1.840  11.921  21.752  0.00  0.00    +0.000 OA
BRANCH  28  29
ATOM     29  C   UNL     1      -1.497  13.087  22.424  0.00  0.00    +0.000 A 
ATOM     30  C   UNL     1      -0.502  13.886  21.849  0.00  0.00    +0.000 A 
ATOM     31  C   UNL     1      -0.108  15.082  22.461  0.00  0.00    +0.000 A 
ATOM     32  C   UNL     1      -0.707  15.489  23.654  0.00  0.00    +0.000 A 
ATOM     33  C   UNL     1      -1.701  14.699  24.224  0.00  0.00    +0.000 A 
ATOM     34 CL   UNL     1      -2.424  15.181  25.712  0.00  0.00    +0.000 Cl
ATOM     35  C   UNL     1      -2.114  13.514  23.609  0.00  0.00    +0.000 A 
ENDBRANCH  28  29
ENDBRANCH   6  28
TORSDOF 8
ENDMDL
