MODEL 1
REMARK VINA RESULT:      -6.7      0.000      0.000
REMARK  Name = 
REMARK  9 active torsions:
REMARK  status: ('A' for Active; 'I' for Inactive)
REMARK    1  A    between atoms: C_1  and  C_2
REMARK    2  A    between atoms: C_2  and  C_3
REMARK    3  A    between atoms: C_2  and  N_12
REMARK    4  A    between atoms: C_2  and  C_14
REMARK    5  A    between atoms: C_3  and  C_4
REMARK    6  A    between atoms: C_7  and  O_8
REMARK    7  A    between atoms: C_9  and  O_10
REMARK    8  A    between atoms: N_12  and  N_13
REMARK    9  A    between atoms: C_14  and  O_16
REMARK                            x       y       z     vdW  Elec       q    Type
REMARK                         _______ _______ _______ _____ _____    ______ ____
ROOT
ATOM      1  C   UNL     1       6.012   5.445  18.841  0.00  0.00    +0.000 C 
ATOM      2  C   UNL     1       6.104   5.765  17.346  0.00  0.00    +0.000 C 
ENDROOT
BRANCH   2   3
ATOM      3  N   UNL     1       6.293   7.249  17.115  0.00  0.00    +0.000 NA
ATOM      4  H   UNL     1       5.773   7.757  17.846  0.00  0.00    +0.000 HD
BRANCH   3   5
ATOM      5  N   UNL     1       7.679   7.674  17.107  0.00  0.00    +0.000 NA
ATOM      6  H   UNL     1       8.257   7.304  17.870  0.00  0.00    +0.000 HD
ATOM      7  H   UNL     1       7.804   8.693  17.123  0.00  0.00    +0.000 HD
ENDBRANCH   3   5
ENDBRANCH   2   3
BRANCH   2   8
ATOM      8  C   UNL     1       7.280   5.016  16.684  0.00  0.00    +0.000 C 
ATOM      9  O   UNL     1       8.058   4.255  17.253  0.00  0.00    +0.000 OA
BRANCH   8  10
ATOM     10  O   UNL     1       7.373   5.290  15.349  0.00  0.00    +0.000 OA
ATOM     11  H   UNL     1       8.285   5.653  15.208  0.00  0.00    +0.000 HD
ENDBRANCH   8  10
ENDBRANCH   2   8
BRANCH   2  12
ATOM     12  C   UNL     1       4.792   5.386  16.592  0.00  0.00    +0.000 C 
BRANCH  12  13
ATOM     13  C   UNL     1       3.882   4.356  17.225  0.00  0.00    +0.000 A 
ATOM     14  C   UNL     1       2.597   4.716  17.679  0.00  0.00    +0.000 A 
ATOM     15  C   UNL     1       1.763   3.777  18.298  0.00  0.00    +0.000 A 
ATOM     16  C   UNL     1       2.211   2.476  18.464  0.00  0.00    +0.000 A 
ATOM     17  C   UNL     1       3.477   2.110  18.012  0.00  0.00    +0.000 A 
ATOM     18  C   UNL     1       4.319   3.038  17.415  0.00  0.00    +0.000 A 
BRANCH  16  19
ATOM     19  O   UNL     1       1.445   1.514  19.059  0.00  0.00    +0.000 OA
ATOM     20  H   UNL     1       1.925   1.186  19.842  0.00  0.00    +0.000 HD
ENDBRANCH  16  19
BRANCH  17  21
ATOM     21  O   UNL     1       3.908   0.823  18.167  0.00  0.00    +0.000 OA
ATOM     22  H   UNL     1       4.324   0.599  17.309  0.00  0.00    +0.000 HD
ENDBRANCH  17  21
ENDBRANCH  12  13
ENDBRANCH   2  12
TORSDOF 8
ENDMDL
MODEL 2
REMARK VINA RESULT:      -6.7      2.193      2.680
REMARK  Name = 
REMARK  9 active torsions:
REMARK  status: ('A' for Active; 'I' for Inactive)
REMARK    1  A    between atoms: C_1  and  C_2
REMARK    2  A    between atoms: C_2  and  C_3
REMARK    3  A    between atoms: C_2  and  N_12
REMARK    4  A    between atoms: C_2  and  C_14
REMARK    5  A    between atoms: C_3  and  C_4
REMARK    6  A    between atoms: C_7  and  O_8
REMARK    7  A    between atoms: C_9  and  O_10
REMARK    8  A    between atoms: N_12  and  N_13
REMARK    9  A    between atoms: C_14  and  O_16
REMARK                            x       y       z     vdW  Elec       q    Type
REMARK                         _______ _______ _______ _____ _____    ______ ____
ROOT
ATOM      1  C   UNL     1       5.526   3.632  15.675  0.00  0.00    +0.000 C 
ATOM      2  C   UNL     1       5.818   4.753  16.676  0.00  0.00    +0.000 C 
ENDROOT
BRANCH   2   3
ATOM      3  N   UNL     1       6.281   4.195  18.003  0.00  0.00    +0.000 NA
ATOM      4  H   UNL     1       6.028   3.196  18.038  0.00  0.00    +0.000 HD
BRANCH   3   5
ATOM      5  N   UNL     1       7.701   4.355  18.250  0.00  0.00    +0.000 NA
ATOM      6  H   UNL     1       8.288   3.562  17.965  0.00  0.00    +0.000 HD
ATOM      7  H   UNL     1       7.936   4.547  19.230  0.00  0.00    +0.000 HD
ENDBRANCH   3   5
ENDBRANCH   2   3
BRANCH   2   8
ATOM      8  C   UNL     1       6.906   5.710  16.144  0.00  0.00    +0.000 C 
ATOM      9  O   UNL     1       7.706   5.459  15.247  0.00  0.00    +0.000 OA
BRANCH   8  10
ATOM     10  O   UNL     1       6.890   6.912  16.793  0.00  0.00    +0.000 OA
ATOM     11  H   UNL     1       5.970   7.019  17.148  0.00  0.00    +0.000 HD
ENDBRANCH   8  10
ENDBRANCH   2   8
BRANCH   2  12
ATOM     12  C   UNL     1       4.540   5.590  16.995  0.00  0.00    +0.000 C 
BRANCH  12  13
ATOM     13  C   UNL     1       3.499   4.977  17.906  0.00  0.00    +0.000 A 
ATOM     14  C   UNL     1       2.584   4.026  17.413  0.00  0.00    +0.000 A 
ATOM     15  C   UNL     1       1.595   3.481  18.241  0.00  0.00    +0.000 A 
ATOM     16  C   UNL     1       1.520   3.885  19.565  0.00  0.00    +0.000 A 
ATOM     17  C   UNL     1       2.424   4.819  20.062  0.00  0.00    +0.000 A 
ATOM     18  C   UNL     1       3.396   5.380  19.245  0.00  0.00    +0.000 A 
BRANCH  16  19
ATOM     19  O   UNL     1       0.579   3.390  20.423  0.00  0.00    +0.000 OA
ATOM     20  H   UNL     1       0.778   3.724  21.317  0.00  0.00    +0.000 HD
ENDBRANCH  16  19
BRANCH  17  21
ATOM     21  O   UNL     1       2.353   5.204  21.371  0.00  0.00    +0.000 OA
ATOM     22  H   UNL     1       1.393   5.283  21.552  0.00  0.00    +0.000 HD
ENDBRANCH  17  21
ENDBRANCH  12  13
ENDBRANCH   2  12
TORSDOF 8
ENDMDL
MODEL 3
REMARK VINA RESULT:      -6.5      2.869      5.436
REMARK  Name = 
REMARK  9 active torsions:
REMARK  status: ('A' for Active; 'I' for Inactive)
REMARK    1  A    between atoms: C_1  and  C_2
REMARK    2  A    between atoms: C_2  and  C_3
REMARK    3  A    between atoms: C_2  and  N_12
REMARK    4  A    between atoms: C_2  and  C_14
REMARK    5  A    between atoms: C_3  and  C_4
REMARK    6  A    between atoms: C_7  and  O_8
REMARK    7  A    between atoms: C_9  and  O_10
REMARK    8  A    between atoms: N_12  and  N_13
REMARK    9  A    between atoms: C_14  and  O_16
REMARK                            x       y       z     vdW  Elec       q    Type
REMARK                         _______ _______ _______ _____ _____    ______ ____
ROOT
ATOM      1  C   UNL     1       1.861   4.063  17.727  0.00  0.00    +0.000 C 
ATOM      2  C   UNL     1       2.339   3.960  19.178  0.00  0.00    +0.000 C 
ENDROOT
BRANCH   2   3
ATOM      3  N   UNL     1       1.199   4.184  20.148  0.00  0.00    +0.000 NA
ATOM      4  H   UNL     1       0.392   4.543  19.617  0.00  0.00    +0.000 HD
BRANCH   3   5
ATOM      5  N   UNL     1       0.816   3.002  20.894  0.00  0.00    +0.000 NA
ATOM      6  H   UNL     1       1.493   2.230  20.873  0.00  0.00    +0.000 HD
ATOM      7  H   UNL     1      -0.084   2.600  20.607  0.00  0.00    +0.000 HD
ENDBRANCH   3   5
ENDBRANCH   2   3
BRANCH   2   8
ATOM      8  C   UNL     1       2.958   2.576  19.467  0.00  0.00    +0.000 C 
ATOM      9  O   UNL     1       3.771   2.324  20.353  0.00  0.00    +0.000 OA
BRANCH   8  10
ATOM     10  O   UNL     1       2.495   1.619  18.609  0.00  0.00    +0.000 OA
ATOM     11  H   UNL     1       2.140   0.889  19.179  0.00  0.00    +0.000 HD
ENDBRANCH   8  10
ENDBRANCH   2   8
BRANCH   2  12
ATOM     12  C   UNL     1       3.399   5.053  19.516  0.00  0.00    +0.000 C 
BRANCH  12  13
ATOM     13  C   UNL     1       4.513   5.294  18.520  0.00  0.00    +0.000 A 
ATOM     14  C   UNL     1       4.351   6.224  17.474  0.00  0.00    +0.000 A 
ATOM     15  C   UNL     1       5.363   6.426  16.527  0.00  0.00    +0.000 A 
ATOM     16  C   UNL     1       6.539   5.700  16.625  0.00  0.00    +0.000 A 
ATOM     17  C   UNL     1       6.710   4.784  17.660  0.00  0.00    +0.000 A 
ATOM     18  C   UNL     1       5.706   4.562  18.592  0.00  0.00    +0.000 A 
BRANCH  16  19
ATOM     19  O   UNL     1       7.563   5.852  15.733  0.00  0.00    +0.000 OA
ATOM     20  H   UNL     1       8.297   6.303  16.190  0.00  0.00    +0.000 HD
ENDBRANCH  16  19
BRANCH  17  21
ATOM     21  O   UNL     1       7.877   4.080  17.759  0.00  0.00    +0.000 OA
ATOM     22  H   UNL     1       8.107   3.856  16.833  0.00  0.00    +0.000 HD
ENDBRANCH  17  21
ENDBRANCH  12  13
ENDBRANCH   2  12
TORSDOF 8
ENDMDL
MODEL 4
REMARK VINA RESULT:      -6.5      2.051      2.496
REMARK  Name = 
REMARK  9 active torsions:
REMARK  status: ('A' for Active; 'I' for Inactive)
REMARK    1  A    between atoms: C_1  and  C_2
REMARK    2  A    between atoms: C_2  and  C_3
REMARK    3  A    between atoms: C_2  and  N_12
REMARK    4  A    between atoms: C_2  and  C_14
REMARK    5  A    between atoms: C_3  and  C_4
REMARK    6  A    between atoms: C_7  and  O_8
REMARK    7  A    between atoms: C_9  and  O_10
REMARK    8  A    between atoms: N_12  and  N_13
REMARK    9  A    between atoms: C_14  and  O_16
REMARK                            x       y       z     vdW  Elec       q    Type
REMARK                         _______ _______ _______ _____ _____    ______ ____
ROOT
ATOM      1  C   UNL     1       5.123   4.299  15.379  0.00  0.00    +0.000 C 
ATOM      2  C   UNL     1       5.510   5.048  16.657  0.00  0.00    +0.000 C 
ENDROOT
BRANCH   2   3
ATOM      3  N   UNL     1       5.886   4.087  17.763  0.00  0.00    +0.000 NA
ATOM      4  H   UNL     1       5.883   3.132  17.374  0.00  0.00    +0.000 HD
BRANCH   3   5
ATOM      5  N   UNL     1       7.168   4.366  18.380  0.00  0.00    +0.000 NA
ATOM      6  H   UNL     1       7.274   4.028  19.344  0.00  0.00    +0.000 HD
ATOM      7  H   UNL     1       7.415   5.362  18.397  0.00  0.00    +0.000 HD
ENDBRANCH   3   5
ENDBRANCH   2   3
BRANCH   2   8
ATOM      8  C   UNL     1       6.702   5.997  16.411  0.00  0.00    +0.000 C 
ATOM      9  O   UNL     1       6.871   7.090  16.945  0.00  0.00    +0.000 OA
BRANCH   8  10
ATOM     10  O   UNL     1       7.588   5.482  15.508  0.00  0.00    +0.000 OA
ATOM     11  H   UNL     1       7.074   4.833  14.962  0.00  0.00    +0.000 HD
ENDBRANCH   8  10
ENDBRANCH   2   8
BRANCH   2  12
ATOM     12  C   UNL     1       4.320   5.888  17.217  0.00  0.00    +0.000 C 
BRANCH  12  13
ATOM     13  C   UNL     1       3.367   5.215  18.180  0.00  0.00    +0.000 A 
ATOM     14  C   UNL     1       3.391   5.532  19.553  0.00  0.00    +0.000 A 
ATOM     15  C   UNL     1       2.537   4.887  20.456  0.00  0.00    +0.000 A 
ATOM     16  C   UNL     1       1.656   3.925  19.988  0.00  0.00    +0.000 A 
ATOM     17  C   UNL     1       1.621   3.610  18.632  0.00  0.00    +0.000 A 
ATOM     18  C   UNL     1       2.476   4.230  17.731  0.00  0.00    +0.000 A 
BRANCH  16  19
ATOM     19  O   UNL     1       0.798   3.261  20.819  0.00  0.00    +0.000 OA
ATOM     20  H   UNL     1      -0.112   3.439  20.518  0.00  0.00    +0.000 HD
ENDBRANCH  16  19
BRANCH  17  21
ATOM     21  O   UNL     1       0.742   2.670  18.175  0.00  0.00    +0.000 OA
ATOM     22  H   UNL     1       1.147   1.813  18.424  0.00  0.00    +0.000 HD
ENDBRANCH  17  21
ENDBRANCH  12  13
ENDBRANCH   2  12
TORSDOF 8
ENDMDL
MODEL 5
REMARK VINA RESULT:      -6.5      1.926      2.293
REMARK  Name = 
REMARK  9 active torsions:
REMARK  status: ('A' for Active; 'I' for Inactive)
REMARK    1  A    between atoms: C_1  and  C_2
REMARK    2  A    between atoms: C_2  and  C_3
REMARK    3  A    between atoms: C_2  and  N_12
REMARK    4  A    between atoms: C_2  and  C_14
REMARK    5  A    between atoms: C_3  and  C_4
REMARK    6  A    between atoms: C_7  and  O_8
REMARK    7  A    between atoms: C_9  and  O_10
REMARK    8  A    between atoms: N_12  and  N_13
REMARK    9  A    between atoms: C_14  and  O_16
REMARK                            x       y       z     vdW  Elec       q    Type
REMARK                         _______ _______ _______ _____ _____    ______ ____
ROOT
ATOM      1  C   UNL     1       5.589   6.438  16.265  0.00  0.00    +0.000 C 
ATOM      2  C   UNL     1       6.615   5.972  17.302  0.00  0.00    +0.000 C 
ENDROOT
BRANCH   2   3
ATOM      3  N   UNL     1       7.454   4.832  16.767  0.00  0.00    +0.000 NA
ATOM      4  H   UNL     1       8.109   5.216  16.070  0.00  0.00    +0.000 HD
BRANCH   3   5
ATOM      5  N   UNL     1       8.185   4.106  17.786  0.00  0.00    +0.000 NA
ATOM      6  H   UNL     1       9.181   4.341  17.864  0.00  0.00    +0.000 HD
ATOM      7  H   UNL     1       8.138   3.086  17.687  0.00  0.00    +0.000 HD
ENDBRANCH   3   5
ENDBRANCH   2   3
BRANCH   2   8
ATOM      8  C   UNL     1       7.560   7.122  17.711  0.00  0.00    +0.000 C 
ATOM      9  O   UNL     1       7.716   8.174  17.099  0.00  0.00    +0.000 OA
BRANCH   8  10
ATOM     10  O   UNL     1       8.230   6.844  18.869  0.00  0.00    +0.000 OA
ATOM     11  H   UNL     1       9.061   7.384  18.839  0.00  0.00    +0.000 HD
ENDBRANCH   8  10
ENDBRANCH   2   8
BRANCH   2  12
ATOM     12  C   UNL     1       5.926   5.419  18.588  0.00  0.00    +0.000 C 
BRANCH  12  13
ATOM     13  C   UNL     1       4.559   4.787  18.445  0.00  0.00    +0.000 A 
ATOM     14  C   UNL     1       3.391   5.562  18.586  0.00  0.00    +0.000 A 
ATOM     15  C   UNL     1       2.122   4.978  18.491  0.00  0.00    +0.000 A 
ATOM     16  C   UNL     1       2.018   3.616  18.254  0.00  0.00    +0.000 A 
ATOM     17  C   UNL     1       3.167   2.843  18.107  0.00  0.00    +0.000 A 
ATOM     18  C   UNL     1       4.430   3.409  18.219  0.00  0.00    +0.000 A 
BRANCH  16  19
ATOM     19  O   UNL     1       0.810   2.987  18.151  0.00  0.00    +0.000 OA
ATOM     20  H   UNL     1       0.138   3.657  17.926  0.00  0.00    +0.000 HD
ENDBRANCH  16  19
BRANCH  17  21
ATOM     21  O   UNL     1       3.058   1.504  17.861  0.00  0.00    +0.000 OA
ATOM     22  H   UNL     1       2.631   1.449  16.981  0.00  0.00    +0.000 HD
ENDBRANCH  17  21
ENDBRANCH  12  13
ENDBRANCH   2  12
TORSDOF 8
ENDMDL
MODEL 6
REMARK VINA RESULT:      -6.5      1.528      1.798
REMARK  Name = 
REMARK  9 active torsions:
REMARK  status: ('A' for Active; 'I' for Inactive)
REMARK    1  A    between atoms: C_1  and  C_2
REMARK    2  A    between atoms: C_2  and  C_3
REMARK    3  A    between atoms: C_2  and  N_12
REMARK    4  A    between atoms: C_2  and  C_14
REMARK    5  A    between atoms: C_3  and  C_4
REMARK    6  A    between atoms: C_7  and  O_8
REMARK    7  A    between atoms: C_9  and  O_10
REMARK    8  A    between atoms: N_12  and  N_13
REMARK    9  A    between atoms: C_14  and  O_16
REMARK                            x       y       z     vdW  Elec       q    Type
REMARK                         _______ _______ _______ _____ _____    ______ ____
ROOT
ATOM      1  C   UNL     1       6.234   7.146  17.458  0.00  0.00    +0.000 C 
ATOM      2  C   UNL     1       6.561   5.805  16.795  0.00  0.00    +0.000 C 
ENDROOT
BRANCH   2   3
ATOM      3  N   UNL     1       7.604   5.971  15.712  0.00  0.00    +0.000 NA
ATOM      4  H   UNL     1       8.527   5.759  16.120  0.00  0.00    +0.000 HD
BRANCH   3   5
ATOM      5  N   UNL     1       7.379   5.146  14.541  0.00  0.00    +0.000 NA
ATOM      6  H   UNL     1       6.476   4.658  14.515  0.00  0.00    +0.000 HD
ATOM      7  H   UNL     1       8.097   4.428  14.391  0.00  0.00    +0.000 HD
ENDBRANCH   3   5
ENDBRANCH   2   3
BRANCH   2   8
ATOM      8  C   UNL     1       7.087   4.783  17.825  0.00  0.00    +0.000 C 
ATOM      9  O   UNL     1       6.647   4.617  18.960  0.00  0.00    +0.000 OA
BRANCH   8  10
ATOM     10  O   UNL     1       8.128   4.049  17.331  0.00  0.00    +0.000 OA
ATOM     11  H   UNL     1       7.831   3.716  16.445  0.00  0.00    +0.000 HD
ENDBRANCH   8  10
ENDBRANCH   2   8
BRANCH   2  12
ATOM     12  C   UNL     1       5.313   5.192  16.086  0.00  0.00    +0.000 C 
BRANCH  12  13
ATOM     13  C   UNL     1       4.157   4.738  16.951  0.00  0.00    +0.000 A 
ATOM     14  C   UNL     1       3.404   5.672  17.690  0.00  0.00    +0.000 A 
ATOM     15  C   UNL     1       2.356   5.256  18.520  0.00  0.00    +0.000 A 
ATOM     16  C   UNL     1       2.058   3.905  18.612  0.00  0.00    +0.000 A 
ATOM     17  C   UNL     1       2.793   2.976  17.880  0.00  0.00    +0.000 A 
ATOM     18  C   UNL     1       3.846   3.376  17.069  0.00  0.00    +0.000 A 
BRANCH  16  19
ATOM     19  O   UNL     1       1.048   3.437  19.404  0.00  0.00    +0.000 OA
ATOM     20  H   UNL     1       0.205   3.575  18.933  0.00  0.00    +0.000 HD
ENDBRANCH  16  19
BRANCH  17  21
ATOM     21  O   UNL     1       2.487   1.648  17.965  0.00  0.00    +0.000 OA
ATOM     22  H   UNL     1       3.221   1.259  18.485  0.00  0.00    +0.000 HD
ENDBRANCH  17  21
ENDBRANCH  12  13
ENDBRANCH   2  12
TORSDOF 8
ENDMDL
MODEL 7
REMARK VINA RESULT:      -6.5      1.813      2.025
REMARK  Name = 
REMARK  9 active torsions:
REMARK  status: ('A' for Active; 'I' for Inactive)
REMARK    1  A    between atoms: C_1  and  C_2
REMARK    2  A    between atoms: C_2  and  C_3
REMARK    3  A    between atoms: C_2  and  N_12
REMARK    4  A    between atoms: C_2  and  C_14
REMARK    5  A    between atoms: C_3  and  C_4
REMARK    6  A    between atoms: C_7  and  O_8
REMARK    7  A    between atoms: C_9  and  O_10
REMARK    8  A    between atoms: N_12  and  N_13
REMARK    9  A    between atoms: C_14  and  O_16
REMARK                            x       y       z     vdW  Elec       q    Type
REMARK                         _______ _______ _______ _____ _____    ______ ____
ROOT
ATOM      1  C   UNL     1       4.673   6.514  17.473  0.00  0.00    +0.000 C 
ATOM      2  C   UNL     1       5.659   5.470  16.942  0.00  0.00    +0.000 C 
ENDROOT
BRANCH   2   3
ATOM      3  N   UNL     1       6.068   5.777  15.518  0.00  0.00    +0.000 NA
ATOM      4  H   UNL     1       5.832   6.761  15.321  0.00  0.00    +0.000 HD
BRANCH   3   5
ATOM      5  N   UNL     1       7.471   5.540  15.241  0.00  0.00    +0.000 NA
ATOM      6  H   UNL     1       7.689   4.620  14.840  0.00  0.00    +0.000 HD
ATOM      7  H   UNL     1       8.083   5.649  16.058  0.00  0.00    +0.000 HD
ENDBRANCH   3   5
ENDBRANCH   2   3
BRANCH   2   8
ATOM      8  C   UNL     1       6.932   5.408  17.812  0.00  0.00    +0.000 C 
ATOM      9  O   UNL     1       7.515   6.372  18.300  0.00  0.00    +0.000 OA
BRANCH   8  10
ATOM     10  O   UNL     1       7.365   4.125  17.994  0.00  0.00    +0.000 OA
ATOM     11  H   UNL     1       8.188   4.190  18.543  0.00  0.00    +0.000 HD
ENDBRANCH   8  10
ENDBRANCH   2   8
BRANCH   2  12
ATOM     12  C   UNL     1       5.023   4.046  16.899  0.00  0.00    +0.000 C 
BRANCH  12  13
ATOM     13  C   UNL     1       3.829   3.774  17.788  0.00  0.00    +0.000 A 
ATOM     14  C   UNL     1       2.519   3.990  17.317  0.00  0.00    +0.000 A 
ATOM     15  C   UNL     1       1.411   3.775  18.146  0.00  0.00    +0.000 A 
ATOM     16  C   UNL     1       1.611   3.341  19.448  0.00  0.00    +0.000 A 
ATOM     17  C   UNL     1       2.902   3.119  19.919  0.00  0.00    +0.000 A 
ATOM     18  C   UNL     1       4.008   3.348  19.112  0.00  0.00    +0.000 A 
BRANCH  16  19
ATOM     19  O   UNL     1       0.572   3.114  20.304  0.00  0.00    +0.000 OA
ATOM     20  H   UNL     1      -0.038   3.872  20.248  0.00  0.00    +0.000 HD
ENDBRANCH  16  19
BRANCH  17  21
ATOM     21  O   UNL     1       3.092   2.681  21.199  0.00  0.00    +0.000 OA
ATOM     22  H   UNL     1       4.012   2.343  21.209  0.00  0.00    +0.000 HD
ENDBRANCH  17  21
ENDBRANCH  12  13
ENDBRANCH   2  12
TORSDOF 8
ENDMDL
MODEL 8
REMARK VINA RESULT:      -6.4      0.959      1.301
REMARK  Name = 
REMARK  9 active torsions:
REMARK  status: ('A' for Active; 'I' for Inactive)
REMARK    1  A    between atoms: C_1  and  C_2
REMARK    2  A    between atoms: C_2  and  C_3
REMARK    3  A    between atoms: C_2  and  N_12
REMARK    4  A    between atoms: C_2  and  C_14
REMARK    5  A    between atoms: C_3  and  C_4
REMARK    6  A    between atoms: C_7  and  O_8
REMARK    7  A    between atoms: C_9  and  O_10
REMARK    8  A    between atoms: N_12  and  N_13
REMARK    9  A    between atoms: C_14  and  O_16
REMARK                            x       y       z     vdW  Elec       q    Type
REMARK                         _______ _______ _______ _____ _____    ______ ____
ROOT
ATOM      1  C   UNL     1       5.939   5.101  18.824  0.00  0.00    +0.000 C 
ATOM      2  C   UNL     1       6.016   5.190  17.298  0.00  0.00    +0.000 C 
ENDROOT
BRANCH   2   3
ATOM      3  N   UNL     1       5.861   6.618  16.824  0.00  0.00    +0.000 NA
ATOM      4  H   UNL     1       6.791   7.064  16.839  0.00  0.00    +0.000 HD
BRANCH   3   5
ATOM      5  N   UNL     1       5.273   6.745  15.506  0.00  0.00    +0.000 NA
ATOM      6  H   UNL     1       5.514   5.998  14.843  0.00  0.00    +0.000 HD
ATOM      7  H   UNL     1       5.493   7.628  15.032  0.00  0.00    +0.000 HD
ENDBRANCH   3   5
ENDBRANCH   2   3
BRANCH   2   8
ATOM      8  C   UNL     1       7.361   4.645  16.771  0.00  0.00    +0.000 C 
ATOM      9  O   UNL     1       8.255   4.157  17.456  0.00  0.00    +0.000 OA
BRANCH   8  10
ATOM     10  O   UNL     1       7.463   4.762  15.414  0.00  0.00    +0.000 OA
ATOM     11  H   UNL     1       8.431   4.855  15.220  0.00  0.00    +0.000 HD
ENDBRANCH   8  10
ENDBRANCH   2   8
BRANCH   2  12
ATOM     12  C   UNL     1       4.861   4.393  16.614  0.00  0.00    +0.000 C 
BRANCH  12  13
ATOM     13  C   UNL     1       3.641   4.059  17.445  0.00  0.00    +0.000 A 
ATOM     14  C   UNL     1       2.769   5.076  17.880  0.00  0.00    +0.000 A 
ATOM     15  C   UNL     1       1.657   4.779  18.679  0.00  0.00    +0.000 A 
ATOM     16  C   UNL     1       1.415   3.464  19.042  0.00  0.00    +0.000 A 
ATOM     17  C   UNL     1       2.268   2.451  18.611  0.00  0.00    +0.000 A 
ATOM     18  C   UNL     1       3.383   2.737  17.835  0.00  0.00    +0.000 A 
BRANCH  16  19
ATOM     19  O   UNL     1       0.348   3.110  19.819  0.00  0.00    +0.000 OA
ATOM     20  H   UNL     1       0.264   2.139  19.793  0.00  0.00    +0.000 HD
ENDBRANCH  16  19
BRANCH  17  21
ATOM     21  O   UNL     1       2.017   1.155  18.962  0.00  0.00    +0.000 OA
ATOM     22  H   UNL     1       2.260   1.106  19.910  0.00  0.00    +0.000 HD
ENDBRANCH  17  21
ENDBRANCH  12  13
ENDBRANCH   2  12
TORSDOF 8
ENDMDL
MODEL 9
REMARK VINA RESULT:      -6.4      2.436      5.322
REMARK  Name = 
REMARK  9 active torsions:
REMARK  status: ('A' for Active; 'I' for Inactive)
REMARK    1  A    between atoms: C_1  and  C_2
REMARK    2  A    between atoms: C_2  and  C_3
REMARK    3  A    between atoms: C_2  and  N_12
REMARK    4  A    between atoms: C_2  and  C_14
REMARK    5  A    between atoms: C_3  and  C_4
REMARK    6  A    between atoms: C_7  and  O_8
REMARK    7  A    between atoms: C_9  and  O_10
REMARK    8  A    between atoms: N_12  and  N_13
REMARK    9  A    between atoms: C_14  and  O_16
REMARK                            x       y       z     vdW  Elec       q    Type
REMARK                         _______ _______ _______ _____ _____    ______ ____
ROOT
ATOM      1  C   UNL     1       2.758   3.659  20.518  0.00  0.00    +0.000 C 
ATOM      2  C   UNL     1       3.533   3.478  19.210  0.00  0.00    +0.000 C 
ENDROOT
BRANCH   2   3
ATOM      3  N   UNL     1       4.972   3.094  19.475  0.00  0.00    +0.000 NA
ATOM      4  H   UNL     1       5.435   3.887  19.942  0.00  0.00    +0.000 HD
BRANCH   3   5
ATOM      5  N   UNL     1       5.127   1.891  20.268  0.00  0.00    +0.000 NA
ATOM      6  H   UNL     1       4.663   1.906  21.184  0.00  0.00    +0.000 HD
ATOM      7  H   UNL     1       6.103   1.630  20.447  0.00  0.00    +0.000 HD
ENDBRANCH   3   5
ENDBRANCH   2   3
BRANCH   2   8
ATOM      8  C   UNL     1       2.893   2.387  18.325  0.00  0.00    +0.000 C 
ATOM      9  O   UNL     1       3.344   1.261  18.136  0.00  0.00    +0.000 OA
BRANCH   8  10
ATOM     10  O   UNL     1       1.728   2.812  17.752  0.00  0.00    +0.000 OA
ATOM     11  H   UNL     1       1.494   2.130  17.071  0.00  0.00    +0.000 HD
ENDBRANCH   8  10
ENDBRANCH   2   8
BRANCH   2  12
ATOM     12  C   UNL     1       3.596   4.803  18.388  0.00  0.00    +0.000 C 
BRANCH  12  13
ATOM     13  C   UNL     1       4.698   4.950  17.361  0.00  0.00    +0.000 A 
ATOM     14  C   UNL     1       4.752   4.098  16.240  0.00  0.00    +0.000 A 
ATOM     15  C   UNL     1       5.789   4.204  15.305  0.00  0.00    +0.000 A 
ATOM     16  C   UNL     1       6.772   5.163  15.488  0.00  0.00    +0.000 A 
ATOM     17  C   UNL     1       6.723   6.014  16.589  0.00  0.00    +0.000 A 
ATOM     18  C   UNL     1       5.710   5.904  17.533  0.00  0.00    +0.000 A 
BRANCH  16  19
ATOM     19  O   UNL     1       7.809   5.316  14.611  0.00  0.00    +0.000 OA
ATOM     20  H   UNL     1       8.489   4.653  14.828  0.00  0.00    +0.000 HD
ENDBRANCH  16  19
BRANCH  17  21
ATOM     21  O   UNL     1       7.688   6.965  16.757  0.00  0.00    +0.000 OA
ATOM     22  H   UNL     1       7.195   7.774  17.008  0.00  0.00    +0.000 HD
ENDBRANCH  17  21
ENDBRANCH  12  13
ENDBRANCH   2  12
TORSDOF 8
ENDMDL
