MODEL 1
REMARK VINA RESULT:      -7.7      0.000      0.000
REMARK  Name = 
REMARK  8 active torsions:
REMARK  status: ('A' for Active; 'I' for Inactive)
REMARK    1  A    between atoms: C_1  and  C_2
REMARK    2  A    between atoms: C_2  and  C_3
REMARK    3  A    between atoms: C_2  and  C_4
REMARK    4  A    between atoms: C_4  and  C_5
REMARK    5  A    between atoms: C_8  and  C_9
REMARK    6  A    between atoms: C_9  and  N_10
REMARK    7  A    between atoms: N_10  and  C_11
REMARK    8  A    between atoms: C_12  and  C_14
REMARK                            x       y       z     vdW  Elec       q    Type
REMARK                         _______ _______ _______ _____ _____    ______ ____
ROOT
ATOM      1  C   UNL     1       6.683   4.208  17.177  0.00  0.00    +0.000 C 
ENDROOT
BRANCH   1   5
ATOM      2  C   UNL     1       6.871   4.406  13.620  0.00  0.00    +0.000 A 
ATOM      3  N   UNL     1       7.587   5.498  13.918  0.00  0.00    +0.000 NA
ATOM      4  O   UNL     1       7.544   5.537  15.316  0.00  0.00    +0.000 OA
ATOM      5  C   UNL     1       6.809   4.455  15.712  0.00  0.00    +0.000 A 
ATOM      6  N   UNL     1       6.380   3.726  14.701  0.00  0.00    +0.000 NA
BRANCH   2   7
ATOM      7  C   UNL     1       6.658   3.928  12.228  0.00  0.00    +0.000 C 
BRANCH   7   9
ATOM      8  C   UNL     1       4.328   3.296  11.434  0.00  0.00    +0.000 C 
ATOM      9  C   UNL     1       5.606   2.808  12.119  0.00  0.00    +0.000 C 
ATOM     10  C   UNL     1       6.183   1.616  11.352  0.00  0.00    +0.000 C 
ENDBRANCH   7   9
ENDBRANCH   2   7
ENDBRANCH   1   5
BRANCH   1  11
ATOM     11  N   UNL     1       5.345   4.539  17.684  0.00  0.00    +0.000 N 
ATOM     12  C   UNL     1       4.227   4.407  16.759  0.00  0.00    +0.000 C 
ATOM     13  C   UNL     1       5.213   4.859  19.040  0.00  0.00    +0.000 C 
ATOM     14  O   UNL     1       6.206   4.994  19.751  0.00  0.00    +0.000 OA
BRANCH  13  15
ATOM     15  C   UNL     1       3.890   5.098  19.598  0.00  0.00    +0.000 A 
ATOM     16  C   UNL     1       2.911   4.279  20.143  0.00  0.00    +0.000 A 
ATOM     17  C   UNL     1       1.766   5.068  20.411  0.00  0.00    +0.000 A 
ATOM     18  C   UNL     1       2.099   6.370  20.130  0.00  0.00    +0.000 A 
ATOM     19  N   UNL     1       3.404   6.386  19.715  0.00  0.00    +0.000 N 
ATOM     20  H   UNL     1       3.939   7.209  19.464  0.00  0.00    +0.000 HD
ENDBRANCH  13  15
ENDBRANCH   1  11
TORSDOF 5
ENDMDL
MODEL 2
REMARK VINA RESULT:      -7.7      1.230      1.362
REMARK  Name = 
REMARK  8 active torsions:
REMARK  status: ('A' for Active; 'I' for Inactive)
REMARK    1  A    between atoms: C_1  and  C_2
REMARK    2  A    between atoms: C_2  and  C_3
REMARK    3  A    between atoms: C_2  and  C_4
REMARK    4  A    between atoms: C_4  and  C_5
REMARK    5  A    between atoms: C_8  and  C_9
REMARK    6  A    between atoms: C_9  and  N_10
REMARK    7  A    between atoms: N_10  and  C_11
REMARK    8  A    between atoms: C_12  and  C_14
REMARK                            x       y       z     vdW  Elec       q    Type
REMARK                         _______ _______ _______ _____ _____    ______ ____
ROOT
ATOM      1  C   UNL     1       6.380   4.342  17.398  0.00  0.00    +0.000 C 
ENDROOT
BRANCH   1   5
ATOM      2  C   UNL     1       6.834   4.381  13.860  0.00  0.00    +0.000 A 
ATOM      3  N   UNL     1       7.531   5.485  14.161  0.00  0.00    +0.000 NA
ATOM      4  O   UNL     1       7.384   5.586  15.550  0.00  0.00    +0.000 OA
ATOM      5  C   UNL     1       6.617   4.523  15.937  0.00  0.00    +0.000 A 
ATOM      6  N   UNL     1       6.261   3.750  14.930  0.00  0.00    +0.000 NA
BRANCH   2   7
ATOM      7  C   UNL     1       6.723   3.841  12.478  0.00  0.00    +0.000 C 
BRANCH   7   9
ATOM      8  C   UNL     1       4.344   3.499  11.653  0.00  0.00    +0.000 C 
ATOM      9  C   UNL     1       5.564   2.843  12.301  0.00  0.00    +0.000 C 
ATOM     10  C   UNL     1       6.021   1.649  11.459  0.00  0.00    +0.000 C 
ENDBRANCH   7   9
ENDBRANCH   2   7
ENDBRANCH   1   5
BRANCH   1  11
ATOM     11  N   UNL     1       4.950   4.301  17.730  0.00  0.00    +0.000 N 
ATOM     12  C   UNL     1       4.031   4.963  16.814  0.00  0.00    +0.000 C 
ATOM     13  C   UNL     1       4.552   3.548  18.841  0.00  0.00    +0.000 C 
ATOM     14  O   UNL     1       5.387   3.052  19.593  0.00  0.00    +0.000 OA
BRANCH  13  15
ATOM     15  C   UNL     1       3.135   3.406  19.143  0.00  0.00    +0.000 A 
ATOM     16  C   UNL     1       2.163   2.479  18.792  0.00  0.00    +0.000 A 
ATOM     17  C   UNL     1       0.916   2.930  19.290  0.00  0.00    +0.000 A 
ATOM     18  C   UNL     1       1.161   4.062  20.028  0.00  0.00    +0.000 A 
ATOM     19  N   UNL     1       2.511   4.295  19.996  0.00  0.00    +0.000 N 
ATOM     20  H   UNL     1       2.996   5.045  20.473  0.00  0.00    +0.000 HD
ENDBRANCH  13  15
ENDBRANCH   1  11
TORSDOF 5
ENDMDL
MODEL 3
REMARK VINA RESULT:      -7.4      1.342      1.654
REMARK  Name = 
REMARK  8 active torsions:
REMARK  status: ('A' for Active; 'I' for Inactive)
REMARK    1  A    between atoms: C_1  and  C_2
REMARK    2  A    between atoms: C_2  and  C_3
REMARK    3  A    between atoms: C_2  and  C_4
REMARK    4  A    between atoms: C_4  and  C_5
REMARK    5  A    between atoms: C_8  and  C_9
REMARK    6  A    between atoms: C_9  and  N_10
REMARK    7  A    between atoms: N_10  and  C_11
REMARK    8  A    between atoms: C_12  and  C_14
REMARK                            x       y       z     vdW  Elec       q    Type
REMARK                         _______ _______ _______ _____ _____    ______ ____
ROOT
ATOM      1  C   UNL     1       6.286   4.428  17.134  0.00  0.00    +0.000 C 
ENDROOT
BRANCH   1   5
ATOM      2  C   UNL     1       6.858   4.380  13.613  0.00  0.00    +0.000 A 
ATOM      3  N   UNL     1       7.647   5.415  13.928  0.00  0.00    +0.000 NA
ATOM      4  O   UNL     1       7.465   5.547  15.310  0.00  0.00    +0.000 OA
ATOM      5  C   UNL     1       6.587   4.568  15.680  0.00  0.00    +0.000 A 
ATOM      6  N   UNL     1       6.192   3.820  14.669  0.00  0.00    +0.000 NA
BRANCH   2   7
ATOM      7  C   UNL     1       6.741   3.836  12.234  0.00  0.00    +0.000 C 
BRANCH   7   9
ATOM      8  C   UNL     1       4.378   3.302  11.464  0.00  0.00    +0.000 C 
ATOM      9  C   UNL     1       5.659   2.749  12.093  0.00  0.00    +0.000 C 
ATOM     10  C   UNL     1       6.189   1.585  11.253  0.00  0.00    +0.000 C 
ENDBRANCH   7   9
ENDBRANCH   2   7
ENDBRANCH   1   5
BRANCH   1  11
ATOM     11  N   UNL     1       5.448   5.523  17.638  0.00  0.00    +0.000 N 
ATOM     12  C   UNL     1       5.948   6.881  17.469  0.00  0.00    +0.000 C 
ATOM     13  C   UNL     1       4.185   5.205  18.151  0.00  0.00    +0.000 C 
ATOM     14  O   UNL     1       3.848   4.034  18.303  0.00  0.00    +0.000 OA
BRANCH  13  15
ATOM     15  C   UNL     1       3.289   6.273  18.569  0.00  0.00    +0.000 A 
ATOM     16  C   UNL     1       2.666   7.324  17.909  0.00  0.00    +0.000 A 
ATOM     17  C   UNL     1       1.999   8.122  18.869  0.00  0.00    +0.000 A 
ATOM     18  C   UNL     1       2.130   7.491  20.081  0.00  0.00    +0.000 A 
ATOM     19  N   UNL     1       2.843   6.339  19.875  0.00  0.00    +0.000 N 
ATOM     20  H   UNL     1       3.075   5.649  20.580  0.00  0.00    +0.000 HD
ENDBRANCH  13  15
ENDBRANCH   1  11
TORSDOF 5
ENDMDL
MODEL 4
REMARK VINA RESULT:      -7.3      1.524      6.832
REMARK  Name = 
REMARK  8 active torsions:
REMARK  status: ('A' for Active; 'I' for Inactive)
REMARK    1  A    between atoms: C_1  and  C_2
REMARK    2  A    between atoms: C_2  and  C_3
REMARK    3  A    between atoms: C_2  and  C_4
REMARK    4  A    between atoms: C_4  and  C_5
REMARK    5  A    between atoms: C_8  and  C_9
REMARK    6  A    between atoms: C_9  and  N_10
REMARK    7  A    between atoms: N_10  and  C_11
REMARK    8  A    between atoms: C_12  and  C_14
REMARK                            x       y       z     vdW  Elec       q    Type
REMARK                         _______ _______ _______ _____ _____    ______ ____
ROOT
ATOM      1  C   UNL     1       6.203   6.114  17.774  0.00  0.00    +0.000 C 
ENDROOT
BRANCH   1   5
ATOM      2  C   UNL     1       3.591   4.827  19.836  0.00  0.00    +0.000 A 
ATOM      3  N   UNL     1       4.403   3.762  19.857  0.00  0.00    +0.000 NA
ATOM      4  O   UNL     1       5.464   4.153  19.032  0.00  0.00    +0.000 OA
ATOM      5  C   UNL     1       5.178   5.420  18.607  0.00  0.00    +0.000 A 
ATOM      6  N   UNL     1       4.038   5.879  19.083  0.00  0.00    +0.000 NA
BRANCH   2   7
ATOM      7  C   UNL     1       2.321   4.897  20.607  0.00  0.00    +0.000 C 
BRANCH   7   9
ATOM      8  C   UNL     1       1.367   3.801  18.522  0.00  0.00    +0.000 C 
ATOM      9  C   UNL     1       1.203   4.010  20.029  0.00  0.00    +0.000 C 
ATOM     10  C   UNL     1       1.184   2.655  20.742  0.00  0.00    +0.000 C 
ENDBRANCH   7   9
ENDBRANCH   2   7
ENDBRANCH   1   5
BRANCH   1  11
ATOM     11  N   UNL     1       6.098   5.761  16.353  0.00  0.00    +0.000 N 
ATOM     12  C   UNL     1       5.073   6.437  15.568  0.00  0.00    +0.000 C 
ATOM     13  C   UNL     1       7.046   4.880  15.820  0.00  0.00    +0.000 C 
ATOM     14  O   UNL     1       7.855   4.313  16.551  0.00  0.00    +0.000 OA
BRANCH  13  15
ATOM     15  C   UNL     1       7.030   4.582  14.396  0.00  0.00    +0.000 A 
ATOM     16  C   UNL     1       7.689   5.110  13.293  0.00  0.00    +0.000 A 
ATOM     17  C   UNL     1       7.176   4.490  12.127  0.00  0.00    +0.000 A 
ATOM     18  C   UNL     1       6.297   3.520  12.540  0.00  0.00    +0.000 A 
ATOM     19  N   UNL     1       6.276   3.531  13.910  0.00  0.00    +0.000 N 
ATOM     20  H   UNL     1       5.740   2.908  14.502  0.00  0.00    +0.000 HD
ENDBRANCH  13  15
ENDBRANCH   1  11
TORSDOF 5
ENDMDL
MODEL 5
REMARK VINA RESULT:      -7.3      1.762      6.998
REMARK  Name = 
REMARK  8 active torsions:
REMARK  status: ('A' for Active; 'I' for Inactive)
REMARK    1  A    between atoms: C_1  and  C_2
REMARK    2  A    between atoms: C_2  and  C_3
REMARK    3  A    between atoms: C_2  and  C_4
REMARK    4  A    between atoms: C_4  and  C_5
REMARK    5  A    between atoms: C_8  and  C_9
REMARK    6  A    between atoms: C_9  and  N_10
REMARK    7  A    between atoms: N_10  and  C_11
REMARK    8  A    between atoms: C_12  and  C_14
REMARK                            x       y       z     vdW  Elec       q    Type
REMARK                         _______ _______ _______ _____ _____    ______ ____
ROOT
ATOM      1  C   UNL     1       5.884   5.554  17.938  0.00  0.00    +0.000 C 
ENDROOT
BRANCH   1   5
ATOM      2  C   UNL     1       3.356   3.341  19.139  0.00  0.00    +0.000 A 
ATOM      3  N   UNL     1       4.381   2.889  19.873  0.00  0.00    +0.000 NA
ATOM      4  O   UNL     1       5.454   3.679  19.446  0.00  0.00    +0.000 OA
ATOM      5  C   UNL     1       4.955   4.531  18.500  0.00  0.00    +0.000 A 
ATOM      6  N   UNL     1       3.666   4.363  18.284  0.00  0.00    +0.000 NA
BRANCH   2   7
ATOM      7  C   UNL     1       1.970   2.817  19.267  0.00  0.00    +0.000 C 
BRANCH   7   9
ATOM      8  C   UNL     1       1.553   2.667  21.769  0.00  0.00    +0.000 C 
ATOM      9  C   UNL     1       1.204   3.397  20.470  0.00  0.00    +0.000 C 
ATOM     10  C   UNL     1       1.504   4.890  20.616  0.00  0.00    +0.000 C 
ENDBRANCH   7   9
ENDBRANCH   2   7
ENDBRANCH   1   5
BRANCH   1  11
ATOM     11  N   UNL     1       5.948   5.502  16.471  0.00  0.00    +0.000 N 
ATOM     12  C   UNL     1       5.011   6.336  15.731  0.00  0.00    +0.000 C 
ATOM     13  C   UNL     1       6.963   4.740  15.882  0.00  0.00    +0.000 C 
ATOM     14  O   UNL     1       7.691   4.027  16.569  0.00  0.00    +0.000 OA
BRANCH  13  15
ATOM     15  C   UNL     1       7.116   4.743  14.435  0.00  0.00    +0.000 A 
ATOM     16  C   UNL     1       6.507   4.046  13.400  0.00  0.00    +0.000 A 
ATOM     17  C   UNL     1       7.159   4.384  12.188  0.00  0.00    +0.000 A 
ATOM     18  C   UNL     1       8.078   5.360  12.484  0.00  0.00    +0.000 A 
ATOM     19  N   UNL     1       7.989   5.623  13.825  0.00  0.00    +0.000 N 
ATOM     20  H   UNL     1       8.524   6.319  14.332  0.00  0.00    +0.000 HD
ENDBRANCH  13  15
ENDBRANCH   1  11
TORSDOF 5
ENDMDL
MODEL 6
REMARK VINA RESULT:      -7.3      1.595      2.059
REMARK  Name = 
REMARK  8 active torsions:
REMARK  status: ('A' for Active; 'I' for Inactive)
REMARK    1  A    between atoms: C_1  and  C_2
REMARK    2  A    between atoms: C_2  and  C_3
REMARK    3  A    between atoms: C_2  and  C_4
REMARK    4  A    between atoms: C_4  and  C_5
REMARK    5  A    between atoms: C_8  and  C_9
REMARK    6  A    between atoms: C_9  and  N_10
REMARK    7  A    between atoms: N_10  and  C_11
REMARK    8  A    between atoms: C_12  and  C_14
REMARK                            x       y       z     vdW  Elec       q    Type
REMARK                         _______ _______ _______ _____ _____    ______ ____
ROOT
ATOM      1  C   UNL     1       6.082   5.451  18.302  0.00  0.00    +0.000 C 
ENDROOT
BRANCH   1   5
ATOM      2  C   UNL     1       6.067   4.738  14.806  0.00  0.00    +0.000 A 
ATOM      3  N   UNL     1       7.337   5.148  14.920  0.00  0.00    +0.000 NA
ATOM      4  O   UNL     1       7.442   5.494  16.272  0.00  0.00    +0.000 OA
ATOM      5  C   UNL     1       6.219   5.248  16.831  0.00  0.00    +0.000 A 
ATOM      6  N   UNL     1       5.343   4.775  15.967  0.00  0.00    +0.000 NA
BRANCH   2   7
ATOM      7  C   UNL     1       5.486   4.233  13.534  0.00  0.00    +0.000 C 
BRANCH   7   9
ATOM      8  C   UNL     1       5.841   2.446  11.761  0.00  0.00    +0.000 C 
ATOM      9  C   UNL     1       6.508   3.508  12.638  0.00  0.00    +0.000 C 
ATOM     10  C   UNL     1       7.247   4.519  11.759  0.00  0.00    +0.000 C 
ENDBRANCH   7   9
ENDBRANCH   2   7
ENDBRANCH   1   5
BRANCH   1  11
ATOM     11  N   UNL     1       4.706   5.236  18.768  0.00  0.00    +0.000 N 
ATOM     12  C   UNL     1       3.737   6.291  18.504  0.00  0.00    +0.000 C 
ATOM     13  C   UNL     1       4.389   3.999  19.341  0.00  0.00    +0.000 C 
ATOM     14  O   UNL     1       5.268   3.172  19.573  0.00  0.00    +0.000 OA
BRANCH  13  15
ATOM     15  C   UNL     1       3.015   3.716  19.726  0.00  0.00    +0.000 A 
ATOM     16  C   UNL     1       2.259   3.975  20.862  0.00  0.00    +0.000 A 
ATOM     17  C   UNL     1       0.998   3.347  20.712  0.00  0.00    +0.000 A 
ATOM     18  C   UNL     1       0.962   2.810  19.449  0.00  0.00    +0.000 A 
ATOM     19  N   UNL     1       2.152   3.105  18.837  0.00  0.00    +0.000 N 
ATOM     20  H   UNL     1       2.408   2.864  17.887  0.00  0.00    +0.000 HD
ENDBRANCH  13  15
ENDBRANCH   1  11
TORSDOF 5
ENDMDL
MODEL 7
REMARK VINA RESULT:      -7.3      1.558      2.031
REMARK  Name = 
REMARK  8 active torsions:
REMARK  status: ('A' for Active; 'I' for Inactive)
REMARK    1  A    between atoms: C_1  and  C_2
REMARK    2  A    between atoms: C_2  and  C_3
REMARK    3  A    between atoms: C_2  and  C_4
REMARK    4  A    between atoms: C_4  and  C_5
REMARK    5  A    between atoms: C_8  and  C_9
REMARK    6  A    between atoms: C_9  and  N_10
REMARK    7  A    between atoms: N_10  and  C_11
REMARK    8  A    between atoms: C_12  and  C_14
REMARK                            x       y       z     vdW  Elec       q    Type
REMARK                         _______ _______ _______ _____ _____    ______ ____
ROOT
ATOM      1  C   UNL     1       5.589   6.560  17.748  0.00  0.00    +0.000 C 
ENDROOT
BRANCH   1   5
ATOM      2  C   UNL     1       6.288   4.513  14.911  0.00  0.00    +0.000 A 
ATOM      3  N   UNL     1       7.455   5.167  14.975  0.00  0.00    +0.000 NA
ATOM      4  O   UNL     1       7.272   6.040  16.054  0.00  0.00    +0.000 OA
ATOM      5  C   UNL     1       6.011   5.812  16.528  0.00  0.00    +0.000 A 
ATOM      6  N   UNL     1       5.371   4.874  15.859  0.00  0.00    +0.000 NA
BRANCH   2   7
ATOM      7  C   UNL     1       6.012   3.438  13.921  0.00  0.00    +0.000 C 
BRANCH   7   9
ATOM      8  C   UNL     1       7.107   3.765  11.651  0.00  0.00    +0.000 C 
ATOM      9  C   UNL     1       5.837   3.959  12.482  0.00  0.00    +0.000 C 
ATOM     10  C   UNL     1       4.661   3.252  11.805  0.00  0.00    +0.000 C 
ENDBRANCH   7   9
ENDBRANCH   2   7
ENDBRANCH   1   5
BRANCH   1  11
ATOM     11  N   UNL     1       4.363   6.011  18.341  0.00  0.00    +0.000 N 
ATOM     12  C   UNL     1       3.097   6.598  17.923  0.00  0.00    +0.000 C 
ATOM     13  C   UNL     1       4.478   4.900  19.185  0.00  0.00    +0.000 C 
ATOM     14  O   UNL     1       5.582   4.485  19.527  0.00  0.00    +0.000 OA
BRANCH  13  15
ATOM     15  C   UNL     1       3.276   4.272  19.713  0.00  0.00    +0.000 A 
ATOM     16  C   UNL     1       2.400   4.581  20.745  0.00  0.00    +0.000 A 
ATOM     17  C   UNL     1       1.467   3.523  20.872  0.00  0.00    +0.000 A 
ATOM     18  C   UNL     1       1.717   2.641  19.850  0.00  0.00    +0.000 A 
ATOM     19  N   UNL     1       2.758   3.140  19.113  0.00  0.00    +0.000 N 
ATOM     20  H   UNL     1       3.150   2.723  18.277  0.00  0.00    +0.000 HD
ENDBRANCH  13  15
ENDBRANCH   1  11
TORSDOF 5
ENDMDL
MODEL 8
REMARK VINA RESULT:      -7.2      1.741      6.926
REMARK  Name = 
REMARK  8 active torsions:
REMARK  status: ('A' for Active; 'I' for Inactive)
REMARK    1  A    between atoms: C_1  and  C_2
REMARK    2  A    between atoms: C_2  and  C_3
REMARK    3  A    between atoms: C_2  and  C_4
REMARK    4  A    between atoms: C_4  and  C_5
REMARK    5  A    between atoms: C_8  and  C_9
REMARK    6  A    between atoms: C_9  and  N_10
REMARK    7  A    between atoms: N_10  and  C_11
REMARK    8  A    between atoms: C_12  and  C_14
REMARK                            x       y       z     vdW  Elec       q    Type
REMARK                         _______ _______ _______ _____ _____    ______ ____
ROOT
ATOM      1  C   UNL     1       6.237   6.169  17.860  0.00  0.00    +0.000 C 
ENDROOT
BRANCH   1   5
ATOM      2  C   UNL     1       3.771   4.326  19.663  0.00  0.00    +0.000 A 
ATOM      3  N   UNL     1       3.182   5.529  19.695  0.00  0.00    +0.000 NA
ATOM      4  O   UNL     1       4.101   6.352  19.034  0.00  0.00    +0.000 OA
ATOM      5  C   UNL     1       5.146   5.551  18.668  0.00  0.00    +0.000 A 
ATOM      6  N   UNL     1       4.983   4.294  19.029  0.00  0.00    +0.000 NA
BRANCH   2   7
ATOM      7  C   UNL     1       3.146   3.100  20.226  0.00  0.00    +0.000 C 
BRANCH   7   9
ATOM      8  C   UNL     1       0.753   2.789  19.430  0.00  0.00    +0.000 C 
ATOM      9  C   UNL     1       1.654   3.273  20.567  0.00  0.00    +0.000 C 
ATOM     10  C   UNL     1       1.317   2.517  21.855  0.00  0.00    +0.000 C 
ENDBRANCH   7   9
ENDBRANCH   2   7
ENDBRANCH   1   5
BRANCH   1  11
ATOM     11  N   UNL     1       6.112   5.864  16.429  0.00  0.00    +0.000 N 
ATOM     12  C   UNL     1       5.102   6.593  15.675  0.00  0.00    +0.000 C 
ATOM     13  C   UNL     1       7.032   4.974  15.862  0.00  0.00    +0.000 C 
ATOM     14  O   UNL     1       7.829   4.362  16.568  0.00  0.00    +0.000 OA
BRANCH  13  15
ATOM     15  C   UNL     1       6.998   4.721  14.429  0.00  0.00    +0.000 A 
ATOM     16  C   UNL     1       6.278   3.852  13.620  0.00  0.00    +0.000 A 
ATOM     17  C   UNL     1       6.762   3.972  12.294  0.00  0.00    +0.000 A 
ATOM     18  C   UNL     1       7.688   4.986  12.293  0.00  0.00    +0.000 A 
ATOM     19  N   UNL     1       7.765   5.481  13.567  0.00  0.00    +0.000 N 
ATOM     20  H   UNL     1       8.344   6.255  13.871  0.00  0.00    +0.000 HD
ENDBRANCH  13  15
ENDBRANCH   1  11
TORSDOF 5
ENDMDL
MODEL 9
REMARK VINA RESULT:      -7.1      1.749      6.549
REMARK  Name = 
REMARK  8 active torsions:
REMARK  status: ('A' for Active; 'I' for Inactive)
REMARK    1  A    between atoms: C_1  and  C_2
REMARK    2  A    between atoms: C_2  and  C_3
REMARK    3  A    between atoms: C_2  and  C_4
REMARK    4  A    between atoms: C_4  and  C_5
REMARK    5  A    between atoms: C_8  and  C_9
REMARK    6  A    between atoms: C_9  and  N_10
REMARK    7  A    between atoms: N_10  and  C_11
REMARK    8  A    between atoms: C_12  and  C_14
REMARK                            x       y       z     vdW  Elec       q    Type
REMARK                         _______ _______ _______ _____ _____    ______ ____
ROOT
ATOM      1  C   UNL     1       6.293   5.940  17.928  0.00  0.00    +0.000 C 
ENDROOT
BRANCH   1   5
ATOM      2  C   UNL     1       3.947   3.932  19.715  0.00  0.00    +0.000 A 
ATOM      3  N   UNL     1       3.339   5.117  19.854  0.00  0.00    +0.000 NA
ATOM      4  O   UNL     1       4.212   6.001  19.208  0.00  0.00    +0.000 OA
ATOM      5  C   UNL     1       5.252   5.247  18.742  0.00  0.00    +0.000 A 
ATOM      6  N   UNL     1       5.128   3.966  19.025  0.00  0.00    +0.000 NA
BRANCH   2   7
ATOM      7  C   UNL     1       3.371   2.658  20.223  0.00  0.00    +0.000 C 
BRANCH   7   9
ATOM      8  C   UNL     1       0.880   2.946  19.810  0.00  0.00    +0.000 C 
ATOM      9  C   UNL     1       2.145   2.178  19.424  0.00  0.00    +0.000 C 
ATOM     10  C   UNL     1       2.404   2.325  17.923  0.00  0.00    +0.000 C 
ENDBRANCH   7   9
ENDBRANCH   2   7
ENDBRANCH   1   5
BRANCH   1  11
ATOM     11  N   UNL     1       6.162   5.650  16.494  0.00  0.00    +0.000 N 
ATOM     12  C   UNL     1       5.133   6.369  15.756  0.00  0.00    +0.000 C 
ATOM     13  C   UNL     1       7.094   4.784  15.909  0.00  0.00    +0.000 C 
ATOM     14  O   UNL     1       7.908   4.179  16.602  0.00  0.00    +0.000 OA
BRANCH  13  15
ATOM     15  C   UNL     1       7.054   4.549  14.473  0.00  0.00    +0.000 A 
ATOM     16  C   UNL     1       7.684   5.133  13.383  0.00  0.00    +0.000 A 
ATOM     17  C   UNL     1       7.156   4.559  12.201  0.00  0.00    +0.000 A 
ATOM     18  C   UNL     1       6.295   3.561  12.587  0.00  0.00    +0.000 A 
ATOM     19  N   UNL     1       6.301   3.513  13.956  0.00  0.00    +0.000 N 
ATOM     20  H   UNL     1       5.783   2.858  14.530  0.00  0.00    +0.000 HD
ENDBRANCH  13  15
ENDBRANCH   1  11
TORSDOF 5
ENDMDL
