MODEL 1
REMARK VINA RESULT:      -8.1      0.000      0.000
REMARK  Name = 
REMARK  12 active torsions:
REMARK  status: ('A' for Active; 'I' for Inactive)
REMARK    1  A    between atoms: C_1  and  C_2
REMARK    2  A    between atoms: C_2  and  O_3
REMARK    3  A    between atoms: O_3  and  C_4
REMARK    4  A    between atoms: C_4  and  C_6
REMARK    5  A    between atoms: C_11  and  C_13
REMARK    6  A    between atoms: C_13  and  O_14
REMARK    7  A    between atoms: O_14  and  C_15
REMARK    8  A    between atoms: C_18  and  N_19
REMARK    9  A    between atoms: N_19  and  C_20
REMARK   10  A    between atoms: N_19  and  S_21
REMARK   11  A    between atoms: S_21  and  C_24
REMARK   12  A    between atoms: C_27  and  C_28
REMARK                            x       y       z     vdW  Elec       q    Type
REMARK                         _______ _______ _______ _____ _____    ______ ____
ROOT
ATOM      1  C   UNL     1       8.028   7.625  18.406  0.00  0.00    +0.000 A 
ATOM      2  C   UNL     1       8.041   6.355  18.988  0.00  0.00    +0.000 A 
ATOM      3  C   UNL     1       7.151   5.365  18.565  0.00  0.00    +0.000 A 
ATOM      4  C   UNL     1       6.225   5.646  17.562  0.00  0.00    +0.000 A 
ATOM      5  C   UNL     1       6.181   6.928  17.007  0.00  0.00    +0.000 A 
ATOM      6  C   UNL     1       7.084   7.918  17.424  0.00  0.00    +0.000 A 
ENDROOT
BRANCH   4   7
ATOM      7  N   UNL     1       5.357   4.636  17.033  0.00  0.00    +0.000 N 
ATOM      8  C   UNL     1       5.856   3.876  15.877  0.00  0.00    +0.000 C 
BRANCH   7   9
ATOM      9  S   UNL     1       4.277   3.848  18.085  0.00  0.00    +0.000 S 
ATOM     10  O   UNL     1       3.389   3.004  17.310  0.00  0.00    +0.000 OA
ATOM     11  O   UNL     1       5.058   3.282  19.171  0.00  0.00    +0.000 OA
BRANCH   9  12
ATOM     12  C   UNL     1       3.280   5.145  18.805  0.00  0.00    +0.000 A 
ATOM     13  C   UNL     1       2.795   5.008  20.111  0.00  0.00    +0.000 A 
ATOM     14  C   UNL     1       2.109   6.066  20.715  0.00  0.00    +0.000 A 
ATOM     15  C   UNL     1       1.911   7.273  20.033  0.00  0.00    +0.000 A 
ATOM     16  C   UNL     1       1.192   8.420  20.685  0.00  0.00    +0.000 C 
ATOM     17  C   UNL     1       2.437   7.418  18.742  0.00  0.00    +0.000 A 
ATOM     18  C   UNL     1       3.122   6.362  18.129  0.00  0.00    +0.000 A 
ENDBRANCH   9  12
ENDBRANCH   7   9
ENDBRANCH   4   7
BRANCH   1  19
ATOM     19  O   UNL     1       8.952   8.496  18.913  0.00  0.00    +0.000 OA
BRANCH  19  20
ATOM     20  C   UNL     1       8.820   9.868  18.552  0.00  0.00    +0.000 C 
BRANCH  20  26
ATOM     21  C   UNL     1      11.384  13.928  19.563  0.00  0.00    +0.000 C 
ATOM     22  C   UNL     1      11.741  14.054  18.081  0.00  0.00    +0.000 C 
ATOM     23  C   UNL     1      10.946  13.098  17.194  0.00  0.00    +0.000 C 
ATOM     24  C   UNL     1      11.016  11.668  17.718  0.00  0.00    +0.000 C 
ATOM     25  N   UNL     1      10.538  11.616  19.096  0.00  0.00    +0.000 N 
ATOM     26  C   UNL     1       9.540  10.765  19.576  0.00  0.00    +0.000 C 
ATOM     27  O   UNL     1       9.244  10.737  20.773  0.00  0.00    +0.000 OA
ATOM     28  C   UNL     1      11.253  12.478  20.041  0.00  0.00    +0.000 C 
BRANCH  21  29
ATOM     29  C   UNL     1      10.186  14.782  19.932  0.00  0.00    +0.000 C 
ATOM     30  O   UNL     1       9.461  14.525  20.887  0.00  0.00    +0.000 OA
BRANCH  29  31
ATOM     31  O   UNL     1      10.016  15.834  19.092  0.00  0.00    +0.000 OA
BRANCH  31  33
ATOM     32  C   UNL     1       9.592  18.012  20.001  0.00  0.00    +0.000 C 
ATOM     33  C   UNL     1       8.965  16.745  19.446  0.00  0.00    +0.000 C 
ENDBRANCH  31  33
ENDBRANCH  29  31
ENDBRANCH  21  29
ENDBRANCH  20  26
ENDBRANCH  19  20
ENDBRANCH   1  19
TORSDOF 9
ENDMDL
MODEL 2
REMARK VINA RESULT:      -7.9      6.405     10.083
REMARK  Name = 
REMARK  12 active torsions:
REMARK  status: ('A' for Active; 'I' for Inactive)
REMARK    1  A    between atoms: C_1  and  C_2
REMARK    2  A    between atoms: C_2  and  O_3
REMARK    3  A    between atoms: O_3  and  C_4
REMARK    4  A    between atoms: C_4  and  C_6
REMARK    5  A    between atoms: C_11  and  C_13
REMARK    6  A    between atoms: C_13  and  O_14
REMARK    7  A    between atoms: O_14  and  C_15
REMARK    8  A    between atoms: C_18  and  N_19
REMARK    9  A    between atoms: N_19  and  C_20
REMARK   10  A    between atoms: N_19  and  S_21
REMARK   11  A    between atoms: S_21  and  C_24
REMARK   12  A    between atoms: C_27  and  C_28
REMARK                            x       y       z     vdW  Elec       q    Type
REMARK                         _______ _______ _______ _____ _____    ______ ____
ROOT
ATOM      1  C   UNL     1       1.657   8.427  19.506  0.00  0.00    +0.000 A 
ATOM      2  C   UNL     1       2.310   8.146  18.303  0.00  0.00    +0.000 A 
ATOM      3  C   UNL     1       2.891   6.896  18.079  0.00  0.00    +0.000 A 
ATOM      4  C   UNL     1       2.836   5.917  19.070  0.00  0.00    +0.000 A 
ATOM      5  C   UNL     1       2.221   6.208  20.290  0.00  0.00    +0.000 A 
ATOM      6  C   UNL     1       1.626   7.460  20.509  0.00  0.00    +0.000 A 
ENDROOT
BRANCH   4   7
ATOM      7  N   UNL     1       3.335   4.592  18.849  0.00  0.00    +0.000 N 
ATOM      8  C   UNL     1       2.590   3.756  17.896  0.00  0.00    +0.000 C 
BRANCH   7   9
ATOM      9  S   UNL     1       5.005   4.306  19.008  0.00  0.00    +0.000 S 
ATOM     10  O   UNL     1       5.608   5.405  19.736  0.00  0.00    +0.000 OA
ATOM     11  O   UNL     1       5.173   2.942  19.475  0.00  0.00    +0.000 OA
BRANCH   9  12
ATOM     12  C   UNL     1       5.656   4.352  17.344  0.00  0.00    +0.000 A 
ATOM     13  C   UNL     1       4.791   4.214  16.253  0.00  0.00    +0.000 A 
ATOM     14  C   UNL     1       5.279   4.358  14.951  0.00  0.00    +0.000 A 
ATOM     15  C   UNL     1       6.629   4.655  14.722  0.00  0.00    +0.000 A 
ATOM     16  C   UNL     1       7.155   4.832  13.326  0.00  0.00    +0.000 C 
ATOM     17  C   UNL     1       7.481   4.835  15.821  0.00  0.00    +0.000 A 
ATOM     18  C   UNL     1       6.998   4.688  17.127  0.00  0.00    +0.000 A 
ENDBRANCH   9  12
ENDBRANCH   7   9
ENDBRANCH   4   7
BRANCH   1  19
ATOM     19  O   UNL     1       1.134   9.687  19.592  0.00  0.00    +0.000 OA
BRANCH  19  20
ATOM     20  C   UNL     1      -0.047   9.849  20.372  0.00  0.00    +0.000 C 
BRANCH  20  26
ATOM     21  C   UNL     1      -3.674  11.868  17.754  0.00  0.00    +0.000 C 
ATOM     22  C   UNL     1      -3.749  10.597  16.906  0.00  0.00    +0.000 C 
ATOM     23  C   UNL     1      -2.925   9.447  17.482  0.00  0.00    +0.000 C 
ATOM     24  C   UNL     1      -1.500   9.889  17.794  0.00  0.00    +0.000 C 
ATOM     25  N   UNL     1      -1.516  11.024  18.709  0.00  0.00    +0.000 N 
ATOM     26  C   UNL     1      -0.823  11.100  19.919  0.00  0.00    +0.000 C 
ATOM     27  O   UNL     1      -0.837  12.128  20.601  0.00  0.00    +0.000 OA
ATOM     28  C   UNL     1      -2.258  12.198  18.240  0.00  0.00    +0.000 C 
BRANCH  21  29
ATOM     29  C   UNL     1      -4.697  11.864  18.874  0.00  0.00    +0.000 C 
ATOM     30  O   UNL     1      -4.523  12.464  19.929  0.00  0.00    +0.000 OA
BRANCH  29  31
ATOM     31  O   UNL     1      -5.795  11.125  18.575  0.00  0.00    +0.000 OA
BRANCH  31  33
ATOM     32  C   UNL     1      -7.186  12.818  17.599  0.00  0.00    +0.000 C 
ATOM     33  C   UNL     1      -7.053  11.801  18.720  0.00  0.00    +0.000 C 
ENDBRANCH  31  33
ENDBRANCH  29  31
ENDBRANCH  21  29
ENDBRANCH  20  26
ENDBRANCH  19  20
ENDBRANCH   1  19
TORSDOF 9
ENDMDL
MODEL 3
REMARK VINA RESULT:      -7.8      6.307     10.188
REMARK  Name = 
REMARK  12 active torsions:
REMARK  status: ('A' for Active; 'I' for Inactive)
REMARK    1  A    between atoms: C_1  and  C_2
REMARK    2  A    between atoms: C_2  and  O_3
REMARK    3  A    between atoms: O_3  and  C_4
REMARK    4  A    between atoms: C_4  and  C_6
REMARK    5  A    between atoms: C_11  and  C_13
REMARK    6  A    between atoms: C_13  and  O_14
REMARK    7  A    between atoms: O_14  and  C_15
REMARK    8  A    between atoms: C_18  and  N_19
REMARK    9  A    between atoms: N_19  and  C_20
REMARK   10  A    between atoms: N_19  and  S_21
REMARK   11  A    between atoms: S_21  and  C_24
REMARK   12  A    between atoms: C_27  and  C_28
REMARK                            x       y       z     vdW  Elec       q    Type
REMARK                         _______ _______ _______ _____ _____    ______ ____
ROOT
ATOM      1  C   UNL     1       1.571   8.431  19.699  0.00  0.00    +0.000 A 
ATOM      2  C   UNL     1       2.196   8.210  18.469  0.00  0.00    +0.000 A 
ATOM      3  C   UNL     1       2.759   6.968  18.166  0.00  0.00    +0.000 A 
ATOM      4  C   UNL     1       2.715   5.938  19.103  0.00  0.00    +0.000 A 
ATOM      5  C   UNL     1       2.128   6.168  20.350  0.00  0.00    +0.000 A 
ATOM      6  C   UNL     1       1.551   7.411  20.649  0.00  0.00    +0.000 A 
ENDROOT
BRANCH   4   7
ATOM      7  N   UNL     1       3.196   4.623  18.800  0.00  0.00    +0.000 N 
ATOM      8  C   UNL     1       2.434   3.852  17.806  0.00  0.00    +0.000 C 
BRANCH   7   9
ATOM      9  S   UNL     1       4.864   4.309  18.926  0.00  0.00    +0.000 S 
ATOM     10  O   UNL     1       5.470   5.299  19.796  0.00  0.00    +0.000 OA
ATOM     11  O   UNL     1       5.023   2.893  19.210  0.00  0.00    +0.000 OA
BRANCH   9  12
ATOM     12  C   UNL     1       5.524   4.571  17.286  0.00  0.00    +0.000 A 
ATOM     13  C   UNL     1       6.780   5.167  17.127  0.00  0.00    +0.000 A 
ATOM     14  C   UNL     1       7.346   5.275  15.853  0.00  0.00    +0.000 A 
ATOM     15  C   UNL     1       6.676   4.777  14.728  0.00  0.00    +0.000 A 
ATOM     16  C   UNL     1       7.289   4.871  13.360  0.00  0.00    +0.000 C 
ATOM     17  C   UNL     1       5.438   4.142  14.900  0.00  0.00    +0.000 A 
ATOM     18  C   UNL     1       4.864   4.036  16.173  0.00  0.00    +0.000 A 
ENDBRANCH   9  12
ENDBRANCH   7   9
ENDBRANCH   4   7
BRANCH   1  19
ATOM     19  O   UNL     1       1.062   9.689  19.864  0.00  0.00    +0.000 OA
BRANCH  19  20
ATOM     20  C   UNL     1      -0.230   9.795  20.456  0.00  0.00    +0.000 C 
BRANCH  20  26
ATOM     21  C   UNL     1      -3.767  11.923  17.802  0.00  0.00    +0.000 C 
ATOM     22  C   UNL     1      -3.919  10.631  16.996  0.00  0.00    +0.000 C 
ATOM     23  C   UNL     1      -3.153   9.457  17.604  0.00  0.00    +0.000 C 
ATOM     24  C   UNL     1      -1.703   9.830  17.890  0.00  0.00    +0.000 C 
ATOM     25  N   UNL     1      -1.648  10.994  18.767  0.00  0.00    +0.000 N 
ATOM     26  C   UNL     1      -0.941  11.071  19.968  0.00  0.00    +0.000 C 
ATOM     27  O   UNL     1      -0.892  12.120  20.616  0.00  0.00    +0.000 OA
ATOM     28  C   UNL     1      -2.331  12.191  18.265  0.00  0.00    +0.000 C 
BRANCH  21  29
ATOM     29  C   UNL     1      -4.777  12.011  18.929  0.00  0.00    +0.000 C 
ATOM     30  O   UNL     1      -4.456  12.260  20.085  0.00  0.00    +0.000 OA
BRANCH  29  31
ATOM     31  O   UNL     1      -6.047  11.776  18.511  0.00  0.00    +0.000 OA
BRANCH  31  33
ATOM     32  C   UNL     1      -7.448  10.792  20.190  0.00  0.00    +0.000 C 
ATOM     33  C   UNL     1      -6.620  10.534  18.942  0.00  0.00    +0.000 C 
ENDBRANCH  31  33
ENDBRANCH  29  31
ENDBRANCH  21  29
ENDBRANCH  20  26
ENDBRANCH  19  20
ENDBRANCH   1  19
TORSDOF 9
ENDMDL
MODEL 4
REMARK VINA RESULT:      -7.8      5.578      9.235
REMARK  Name = 
REMARK  12 active torsions:
REMARK  status: ('A' for Active; 'I' for Inactive)
REMARK    1  A    between atoms: C_1  and  C_2
REMARK    2  A    between atoms: C_2  and  O_3
REMARK    3  A    between atoms: O_3  and  C_4
REMARK    4  A    between atoms: C_4  and  C_6
REMARK    5  A    between atoms: C_11  and  C_13
REMARK    6  A    between atoms: C_13  and  O_14
REMARK    7  A    between atoms: O_14  and  C_15
REMARK    8  A    between atoms: C_18  and  N_19
REMARK    9  A    between atoms: N_19  and  C_20
REMARK   10  A    between atoms: N_19  and  S_21
REMARK   11  A    between atoms: S_21  and  C_24
REMARK   12  A    between atoms: C_27  and  C_28
REMARK                            x       y       z     vdW  Elec       q    Type
REMARK                         _______ _______ _______ _____ _____    ______ ____
ROOT
ATOM      1  C   UNL     1       1.513   7.643  20.496  0.00  0.00    +0.000 A 
ATOM      2  C   UNL     1       2.122   7.667  19.238  0.00  0.00    +0.000 A 
ATOM      3  C   UNL     1       2.455   6.481  18.582  0.00  0.00    +0.000 A 
ATOM      4  C   UNL     1       2.196   5.254  19.190  0.00  0.00    +0.000 A 
ATOM      5  C   UNL     1       1.627   5.226  20.466  0.00  0.00    +0.000 A 
ATOM      6  C   UNL     1       1.280   6.419  21.119  0.00  0.00    +0.000 A 
ENDROOT
BRANCH   4   7
ATOM      7  N   UNL     1       2.435   4.013  18.516  0.00  0.00    +0.000 N 
ATOM      8  C   UNL     1       1.715   3.797  17.252  0.00  0.00    +0.000 C 
BRANCH   7   9
ATOM      9  S   UNL     1       3.951   3.260  18.694  0.00  0.00    +0.000 S 
ATOM     10  O   UNL     1       4.156   2.928  20.091  0.00  0.00    +0.000 OA
ATOM     11  O   UNL     1       4.050   2.228  17.677  0.00  0.00    +0.000 OA
BRANCH   9  12
ATOM     12  C   UNL     1       5.157   4.508  18.265  0.00  0.00    +0.000 A 
ATOM     13  C   UNL     1       5.130   5.094  16.994  0.00  0.00    +0.000 A 
ATOM     14  C   UNL     1       6.000   6.145  16.691  0.00  0.00    +0.000 A 
ATOM     15  C   UNL     1       6.894   6.634  17.653  0.00  0.00    +0.000 A 
ATOM     16  C   UNL     1       7.816   7.778  17.341  0.00  0.00    +0.000 C 
ATOM     17  C   UNL     1       6.884   6.071  18.938  0.00  0.00    +0.000 A 
ATOM     18  C   UNL     1       6.018   5.015  19.245  0.00  0.00    +0.000 A 
ENDBRANCH   9  12
ENDBRANCH   7   9
ENDBRANCH   4   7
BRANCH   1  19
ATOM     19  O   UNL     1       1.240   8.875  21.023  0.00  0.00    +0.000 OA
BRANCH  19  20
ATOM     20  C   UNL     1      -0.115   9.150  21.365  0.00  0.00    +0.000 C 
BRANCH  20  26
ATOM     21  C   UNL     1      -2.003  13.539  22.484  0.00  0.00    +0.000 C 
ATOM     22  C   UNL     1      -2.447  13.702  21.029  0.00  0.00    +0.000 C 
ATOM     23  C   UNL     1      -2.305  12.417  20.215  0.00  0.00    +0.000 C 
ATOM     24  C   UNL     1      -0.912  11.818  20.364  0.00  0.00    +0.000 C 
ATOM     25  N   UNL     1      -0.618  11.576  21.772  0.00  0.00    +0.000 N 
ATOM     26  C   UNL     1      -0.195  10.360  22.314  0.00  0.00    +0.000 C 
ATOM     27  O   UNL     1       0.099  10.260  23.508  0.00  0.00    +0.000 OA
ATOM     28  C   UNL     1      -0.697  12.753  22.642  0.00  0.00    +0.000 C 
BRANCH  21  29
ATOM     29  C   UNL     1      -3.121  13.010  23.361  0.00  0.00    +0.000 C 
ATOM     30  O   UNL     1      -3.540  11.861  23.275  0.00  0.00    +0.000 OA
BRANCH  29  31
ATOM     31  O   UNL     1      -3.594  13.944  24.225  0.00  0.00    +0.000 OA
BRANCH  31  33
ATOM     32  C   UNL     1      -4.732  16.054  24.293  0.00  0.00    +0.000 C 
ATOM     33  C   UNL     1      -4.795  14.613  23.815  0.00  0.00    +0.000 C 
ENDBRANCH  31  33
ENDBRANCH  29  31
ENDBRANCH  21  29
ENDBRANCH  20  26
ENDBRANCH  19  20
ENDBRANCH   1  19
TORSDOF 9
ENDMDL
MODEL 5
REMARK VINA RESULT:      -7.7      5.643      8.909
REMARK  Name = 
REMARK  12 active torsions:
REMARK  status: ('A' for Active; 'I' for Inactive)
REMARK    1  A    between atoms: C_1  and  C_2
REMARK    2  A    between atoms: C_2  and  O_3
REMARK    3  A    between atoms: O_3  and  C_4
REMARK    4  A    between atoms: C_4  and  C_6
REMARK    5  A    between atoms: C_11  and  C_13
REMARK    6  A    between atoms: C_13  and  O_14
REMARK    7  A    between atoms: O_14  and  C_15
REMARK    8  A    between atoms: C_18  and  N_19
REMARK    9  A    between atoms: N_19  and  C_20
REMARK   10  A    between atoms: N_19  and  S_21
REMARK   11  A    between atoms: S_21  and  C_24
REMARK   12  A    between atoms: C_27  and  C_28
REMARK                            x       y       z     vdW  Elec       q    Type
REMARK                         _______ _______ _______ _____ _____    ______ ____
ROOT
ATOM      1  C   UNL     1       1.890   7.458  19.567  0.00  0.00    +0.000 A 
ATOM      2  C   UNL     1       1.806   6.641  20.698  0.00  0.00    +0.000 A 
ATOM      3  C   UNL     1       1.869   5.251  20.583  0.00  0.00    +0.000 A 
ATOM      4  C   UNL     1       2.000   4.663  19.326  0.00  0.00    +0.000 A 
ATOM      5  C   UNL     1       2.041   5.474  18.189  0.00  0.00    +0.000 A 
ATOM      6  C   UNL     1       1.991   6.872  18.306  0.00  0.00    +0.000 A 
ENDROOT
BRANCH   4   7
ATOM      7  N   UNL     1       2.161   3.248  19.169  0.00  0.00    +0.000 N 
ATOM      8  C   UNL     1       1.063   2.527  18.508  0.00  0.00    +0.000 C 
BRANCH   7   9
ATOM      9  S   UNL     1       3.732   2.615  19.000  0.00  0.00    +0.000 S 
ATOM     10  O   UNL     1       4.217   2.194  20.299  0.00  0.00    +0.000 OA
ATOM     11  O   UNL     1       3.709   1.677  17.891  0.00  0.00    +0.000 OA
BRANCH   9  12
ATOM     12  C   UNL     1       4.746   3.990  18.476  0.00  0.00    +0.000 A 
ATOM     13  C   UNL     1       5.450   4.738  19.427  0.00  0.00    +0.000 A 
ATOM     14  C   UNL     1       6.329   5.744  19.013  0.00  0.00    +0.000 A 
ATOM     15  C   UNL     1       6.527   6.004  17.651  0.00  0.00    +0.000 A 
ATOM     16  C   UNL     1       7.486   7.069  17.200  0.00  0.00    +0.000 C 
ATOM     17  C   UNL     1       5.852   5.222  16.703  0.00  0.00    +0.000 A 
ATOM     18  C   UNL     1       4.967   4.216  17.112  0.00  0.00    +0.000 A 
ENDBRANCH   9  12
ENDBRANCH   7   9
ENDBRANCH   4   7
BRANCH   1  19
ATOM     19  O   UNL     1       1.817   8.798  19.822  0.00  0.00    +0.000 OA
BRANCH  19  20
ATOM     20  C   UNL     1       1.154   9.610  18.857  0.00  0.00    +0.000 C 
BRANCH  20  26
ATOM     21  C   UNL     1      -2.327  12.847  20.074  0.00  0.00    +0.000 C 
ATOM     22  C   UNL     1      -3.286  12.161  19.099  0.00  0.00    +0.000 C 
ATOM     23  C   UNL     1      -2.747  10.834  18.570  0.00  0.00    +0.000 C 
ATOM     24  C   UNL     1      -1.331  10.987  18.027  0.00  0.00    +0.000 C 
ATOM     25  N   UNL     1      -0.454  11.527  19.060  0.00  0.00    +0.000 N 
ATOM     26  C   UNL     1       0.753  10.962  19.475  0.00  0.00    +0.000 C 
ATOM     27  O   UNL     1       1.469  11.523  20.308  0.00  0.00    +0.000 OA
ATOM     28  C   UNL     1      -0.865  12.819  19.618  0.00  0.00    +0.000 C 
BRANCH  21  29
ATOM     29  C   UNL     1      -2.513  12.351  21.495  0.00  0.00    +0.000 C 
ATOM     30  O   UNL     1      -1.587  11.911  22.167  0.00  0.00    +0.000 OA
BRANCH  29  31
ATOM     31  O   UNL     1      -3.800  12.444  21.916  0.00  0.00    +0.000 OA
BRANCH  31  33
ATOM     32  C   UNL     1      -4.248  12.749  24.253  0.00  0.00    +0.000 C 
ATOM     33  C   UNL     1      -4.053  13.442  22.915  0.00  0.00    +0.000 C 
ENDBRANCH  31  33
ENDBRANCH  29  31
ENDBRANCH  21  29
ENDBRANCH  20  26
ENDBRANCH  19  20
ENDBRANCH   1  19
TORSDOF 9
ENDMDL
MODEL 6
REMARK VINA RESULT:      -7.7      5.554      8.108
REMARK  Name = 
REMARK  12 active torsions:
REMARK  status: ('A' for Active; 'I' for Inactive)
REMARK    1  A    between atoms: C_1  and  C_2
REMARK    2  A    between atoms: C_2  and  O_3
REMARK    3  A    between atoms: O_3  and  C_4
REMARK    4  A    between atoms: C_4  and  C_6
REMARK    5  A    between atoms: C_11  and  C_13
REMARK    6  A    between atoms: C_13  and  O_14
REMARK    7  A    between atoms: O_14  and  C_15
REMARK    8  A    between atoms: C_18  and  N_19
REMARK    9  A    between atoms: N_19  and  C_20
REMARK   10  A    between atoms: N_19  and  S_21
REMARK   11  A    between atoms: S_21  and  C_24
REMARK   12  A    between atoms: C_27  and  C_28
REMARK                            x       y       z     vdW  Elec       q    Type
REMARK                         _______ _______ _______ _____ _____    ______ ____
ROOT
ATOM      1  C   UNL     1       1.918   7.616  19.551  0.00  0.00    +0.000 A 
ATOM      2  C   UNL     1       2.158   7.041  18.301  0.00  0.00    +0.000 A 
ATOM      3  C   UNL     1       2.282   5.657  18.162  0.00  0.00    +0.000 A 
ATOM      4  C   UNL     1       2.183   4.834  19.283  0.00  0.00    +0.000 A 
ATOM      5  C   UNL     1       1.985   5.409  20.541  0.00  0.00    +0.000 A 
ATOM      6  C   UNL     1       1.847   6.798  20.678  0.00  0.00    +0.000 A 
ENDROOT
BRANCH   4   7
ATOM      7  N   UNL     1       2.211   3.406  19.174  0.00  0.00    +0.000 N 
ATOM      8  C   UNL     1       1.095   2.776  18.452  0.00  0.00    +0.000 C 
BRANCH   7   9
ATOM      9  S   UNL     1       3.717   2.614  19.138  0.00  0.00    +0.000 S 
ATOM     10  O   UNL     1       4.103   2.264  20.491  0.00  0.00    +0.000 OA
ATOM     11  O   UNL     1       3.649   1.590  18.111  0.00  0.00    +0.000 OA
BRANCH   9  12
ATOM     12  C   UNL     1       4.884   3.836  18.554  0.00  0.00    +0.000 A 
ATOM     13  C   UNL     1       5.028   4.060  17.180  0.00  0.00    +0.000 A 
ATOM     14  C   UNL     1       5.859   5.089  16.724  0.00  0.00    +0.000 A 
ATOM     15  C   UNL     1       6.541   5.912  17.629  0.00  0.00    +0.000 A 
ATOM     16  C   UNL     1       7.417   7.032  17.145  0.00  0.00    +0.000 C 
ATOM     17  C   UNL     1       6.357   5.709  19.004  0.00  0.00    +0.000 A 
ATOM     18  C   UNL     1       5.531   4.678  19.467  0.00  0.00    +0.000 A 
ENDBRANCH   9  12
ENDBRANCH   7   9
ENDBRANCH   4   7
BRANCH   1  19
ATOM     19  O   UNL     1       1.817   8.979  19.544  0.00  0.00    +0.000 OA
BRANCH  19  20
ATOM     20  C   UNL     1       0.559   9.540  19.910  0.00  0.00    +0.000 C 
BRANCH  20  26
ATOM     21  C   UNL     1       0.013  14.366  20.611  0.00  0.00    +0.000 C 
ATOM     22  C   UNL     1      -0.214  14.544  19.109  0.00  0.00    +0.000 C 
ATOM     23  C   UNL     1      -0.395  13.218  18.373  0.00  0.00    +0.000 C 
ATOM     24  C   UNL     1       0.725  12.240  18.709  0.00  0.00    +0.000 C 
ATOM     25  N   UNL     1       0.790  12.028  20.151  0.00  0.00    +0.000 N 
ATOM     26  C   UNL     1       0.763  10.787  20.790  0.00  0.00    +0.000 C 
ATOM     27  O   UNL     1       0.893  10.695  22.013  0.00  0.00    +0.000 OA
ATOM     28  C   UNL     1       0.992  13.238  20.954  0.00  0.00    +0.000 C 
BRANCH  21  29
ATOM     29  C   UNL     1      -1.294  14.267  21.374  0.00  0.00    +0.000 C 
ATOM     30  O   UNL     1      -1.677  15.140  22.145  0.00  0.00    +0.000 OA
BRANCH  29  31
ATOM     31  O   UNL     1      -1.966  13.117  21.111  0.00  0.00    +0.000 OA
BRANCH  31  33
ATOM     32  C   UNL     1      -2.170  11.818  23.116  0.00  0.00    +0.000 C 
ATOM     33  C   UNL     1      -2.899  12.702  22.118  0.00  0.00    +0.000 C 
ENDBRANCH  31  33
ENDBRANCH  29  31
ENDBRANCH  21  29
ENDBRANCH  20  26
ENDBRANCH  19  20
ENDBRANCH   1  19
TORSDOF 9
ENDMDL
MODEL 7
REMARK VINA RESULT:      -7.7      6.241      9.670
REMARK  Name = 
REMARK  12 active torsions:
REMARK  status: ('A' for Active; 'I' for Inactive)
REMARK    1  A    between atoms: C_1  and  C_2
REMARK    2  A    between atoms: C_2  and  O_3
REMARK    3  A    between atoms: O_3  and  C_4
REMARK    4  A    between atoms: C_4  and  C_6
REMARK    5  A    between atoms: C_11  and  C_13
REMARK    6  A    between atoms: C_13  and  O_14
REMARK    7  A    between atoms: O_14  and  C_15
REMARK    8  A    between atoms: C_18  and  N_19
REMARK    9  A    between atoms: N_19  and  C_20
REMARK   10  A    between atoms: N_19  and  S_21
REMARK   11  A    between atoms: S_21  and  C_24
REMARK   12  A    between atoms: C_27  and  C_28
REMARK                            x       y       z     vdW  Elec       q    Type
REMARK                         _______ _______ _______ _____ _____    ______ ____
ROOT
ATOM      1  C   UNL     1       1.490   8.575  19.735  0.00  0.00    +0.000 A 
ATOM      2  C   UNL     1       2.120   8.350  18.508  0.00  0.00    +0.000 A 
ATOM      3  C   UNL     1       2.688   7.109  18.213  0.00  0.00    +0.000 A 
ATOM      4  C   UNL     1       2.646   6.083  19.156  0.00  0.00    +0.000 A 
ATOM      5  C   UNL     1       2.055   6.318  20.400  0.00  0.00    +0.000 A 
ATOM      6  C   UNL     1       1.472   7.561  20.691  0.00  0.00    +0.000 A 
ENDROOT
BRANCH   4   7
ATOM      7  N   UNL     1       3.133   4.768  18.862  0.00  0.00    +0.000 N 
ATOM      8  C   UNL     1       2.380   3.992  17.864  0.00  0.00    +0.000 C 
BRANCH   7   9
ATOM      9  S   UNL     1       4.800   4.459  19.002  0.00  0.00    +0.000 S 
ATOM     10  O   UNL     1       5.405   5.480  19.835  0.00  0.00    +0.000 OA
ATOM     11  O   UNL     1       4.959   3.055  19.337  0.00  0.00    +0.000 OA
BRANCH   9  12
ATOM     12  C   UNL     1       5.463   4.661  17.354  0.00  0.00    +0.000 A 
ATOM     13  C   UNL     1       6.724   5.241  17.176  0.00  0.00    +0.000 A 
ATOM     14  C   UNL     1       7.291   5.301  15.900  0.00  0.00    +0.000 A 
ATOM     15  C   UNL     1       6.617   4.773  14.791  0.00  0.00    +0.000 A 
ATOM     16  C   UNL     1       7.231   4.816  13.421  0.00  0.00    +0.000 C 
ATOM     17  C   UNL     1       5.373   4.155  14.984  0.00  0.00    +0.000 A 
ATOM     18  C   UNL     1       4.798   4.095  16.259  0.00  0.00    +0.000 A 
ENDBRANCH   9  12
ENDBRANCH   7   9
ENDBRANCH   4   7
BRANCH   1  19
ATOM     19  O   UNL     1       0.977   9.832  19.892  0.00  0.00    +0.000 OA
BRANCH  19  20
ATOM     20  C   UNL     1      -0.392   9.932  20.276  0.00  0.00    +0.000 C 
BRANCH  20  26
ATOM     21  C   UNL     1      -2.198  13.639  22.938  0.00  0.00    +0.000 C 
ATOM     22  C   UNL     1      -2.479  14.409  21.647  0.00  0.00    +0.000 C 
ATOM     23  C   UNL     1      -2.307  13.554  20.393  0.00  0.00    +0.000 C 
ATOM     24  C   UNL     1      -0.964  12.834  20.393  0.00  0.00    +0.000 C 
ATOM     25  N   UNL     1      -0.830  12.021  21.597  0.00  0.00    +0.000 N 
ATOM     26  C   UNL     1      -0.519  10.661  21.627  0.00  0.00    +0.000 C 
ATOM     27  O   UNL     1      -0.357  10.065  22.694  0.00  0.00    +0.000 OA
ATOM     28  C   UNL     1      -0.950  12.751  22.863  0.00  0.00    +0.000 C 
BRANCH  21  29
ATOM     29  C   UNL     1      -3.423  12.894  23.432  0.00  0.00    +0.000 C 
ATOM     30  O   UNL     1      -3.369  11.749  23.865  0.00  0.00    +0.000 OA
BRANCH  29  31
ATOM     31  O   UNL     1      -4.558  13.631  23.329  0.00  0.00    +0.000 OA
BRANCH  31  33
ATOM     32  C   UNL     1      -6.800  12.910  23.782  0.00  0.00    +0.000 C 
ATOM     33  C   UNL     1      -5.684  12.955  22.752  0.00  0.00    +0.000 C 
ENDBRANCH  31  33
ENDBRANCH  29  31
ENDBRANCH  21  29
ENDBRANCH  20  26
ENDBRANCH  19  20
ENDBRANCH   1  19
TORSDOF 9
ENDMDL
MODEL 8
REMARK VINA RESULT:      -7.7      5.656      8.830
REMARK  Name = 
REMARK  12 active torsions:
REMARK  status: ('A' for Active; 'I' for Inactive)
REMARK    1  A    between atoms: C_1  and  C_2
REMARK    2  A    between atoms: C_2  and  O_3
REMARK    3  A    between atoms: O_3  and  C_4
REMARK    4  A    between atoms: C_4  and  C_6
REMARK    5  A    between atoms: C_11  and  C_13
REMARK    6  A    between atoms: C_13  and  O_14
REMARK    7  A    between atoms: O_14  and  C_15
REMARK    8  A    between atoms: C_18  and  N_19
REMARK    9  A    between atoms: N_19  and  C_20
REMARK   10  A    between atoms: N_19  and  S_21
REMARK   11  A    between atoms: S_21  and  C_24
REMARK   12  A    between atoms: C_27  and  C_28
REMARK                            x       y       z     vdW  Elec       q    Type
REMARK                         _______ _______ _______ _____ _____    ______ ____
ROOT
ATOM      1  C   UNL     1       1.860   7.445  19.878  0.00  0.00    +0.000 A 
ATOM      2  C   UNL     1       2.122   7.006  18.578  0.00  0.00    +0.000 A 
ATOM      3  C   UNL     1       2.280   5.646  18.300  0.00  0.00    +0.000 A 
ATOM      4  C   UNL     1       2.194   4.712  19.331  0.00  0.00    +0.000 A 
ATOM      5  C   UNL     1       1.974   5.151  20.640  0.00  0.00    +0.000 A 
ATOM      6  C   UNL     1       1.802   6.516  20.915  0.00  0.00    +0.000 A 
ENDROOT
BRANCH   4   7
ATOM      7  N   UNL     1       2.256   3.303  19.079  0.00  0.00    +0.000 N 
ATOM      8  C   UNL     1       1.183   2.731  18.251  0.00  0.00    +0.000 C 
BRANCH   7   9
ATOM      9  S   UNL     1       3.779   2.546  19.024  0.00  0.00    +0.000 S 
ATOM     10  O   UNL     1       4.165   2.156  20.366  0.00  0.00    +0.000 OA
ATOM     11  O   UNL     1       3.738   1.557  17.960  0.00  0.00    +0.000 OA
BRANCH   9  12
ATOM     12  C   UNL     1       4.922   3.812  18.490  0.00  0.00    +0.000 A 
ATOM     13  C   UNL     1       5.051   4.106  17.128  0.00  0.00    +0.000 A 
ATOM     14  C   UNL     1       5.862   5.168  16.716  0.00  0.00    +0.000 A 
ATOM     15  C   UNL     1       6.540   5.956  17.654  0.00  0.00    +0.000 A 
ATOM     16  C   UNL     1       7.395   7.112  17.218  0.00  0.00    +0.000 C 
ATOM     17  C   UNL     1       6.372   5.683  19.019  0.00  0.00    +0.000 A 
ATOM     18  C   UNL     1       5.565   4.618  19.438  0.00  0.00    +0.000 A 
ENDBRANCH   9  12
ENDBRANCH   7   9
ENDBRANCH   4   7
BRANCH   1  19
ATOM     19  O   UNL     1       1.726   8.799  20.008  0.00  0.00    +0.000 OA
BRANCH  19  20
ATOM     20  C   UNL     1       1.522   9.310  21.323  0.00  0.00    +0.000 C 
BRANCH  20  26
ATOM     21  C   UNL     1      -1.778  12.501  19.587  0.00  0.00    +0.000 C 
ATOM     22  C   UNL     1      -0.669  13.193  18.793  0.00  0.00    +0.000 C 
ATOM     23  C   UNL     1       0.639  12.403  18.784  0.00  0.00    +0.000 C 
ATOM     24  C   UNL     1       1.056  12.006  20.195  0.00  0.00    +0.000 C 
ATOM     25  N   UNL     1      -0.007  11.240  20.836  0.00  0.00    +0.000 N 
ATOM     26  C   UNL     1       0.142   9.985  21.429  0.00  0.00    +0.000 C 
ATOM     27  O   UNL     1      -0.797   9.437  22.010  0.00  0.00    +0.000 OA
ATOM     28  C   UNL     1      -1.303  11.919  20.924  0.00  0.00    +0.000 C 
BRANCH  21  29
ATOM     29  C   UNL     1      -2.538  11.497  18.743  0.00  0.00    +0.000 C 
ATOM     30  O   UNL     1      -2.009  10.496  18.271  0.00  0.00    +0.000 OA
BRANCH  29  31
ATOM     31  O   UNL     1      -3.840  11.839  18.570  0.00  0.00    +0.000 OA
BRANCH  31  33
ATOM     32  C   UNL     1      -5.746  12.245  17.173  0.00  0.00    +0.000 C 
ATOM     33  C   UNL     1      -4.372  11.602  17.259  0.00  0.00    +0.000 C 
ENDBRANCH  31  33
ENDBRANCH  29  31
ENDBRANCH  21  29
ENDBRANCH  20  26
ENDBRANCH  19  20
ENDBRANCH   1  19
TORSDOF 9
ENDMDL
MODEL 9
REMARK VINA RESULT:      -7.7      5.774      8.812
REMARK  Name = 
REMARK  12 active torsions:
REMARK  status: ('A' for Active; 'I' for Inactive)
REMARK    1  A    between atoms: C_1  and  C_2
REMARK    2  A    between atoms: C_2  and  O_3
REMARK    3  A    between atoms: O_3  and  C_4
REMARK    4  A    between atoms: C_4  and  C_6
REMARK    5  A    between atoms: C_11  and  C_13
REMARK    6  A    between atoms: C_13  and  O_14
REMARK    7  A    between atoms: O_14  and  C_15
REMARK    8  A    between atoms: C_18  and  N_19
REMARK    9  A    between atoms: N_19  and  C_20
REMARK   10  A    between atoms: N_19  and  S_21
REMARK   11  A    between atoms: S_21  and  C_24
REMARK   12  A    between atoms: C_27  and  C_28
REMARK                            x       y       z     vdW  Elec       q    Type
REMARK                         _______ _______ _______ _____ _____    ______ ____
ROOT
ATOM      1  C   UNL     1       2.053   7.309  19.543  0.00  0.00    +0.000 A 
ATOM      2  C   UNL     1       1.898   6.518  20.684  0.00  0.00    +0.000 A 
ATOM      3  C   UNL     1       1.907   5.124  20.595  0.00  0.00    +0.000 A 
ATOM      4  C   UNL     1       2.056   4.508  19.354  0.00  0.00    +0.000 A 
ATOM      5  C   UNL     1       2.169   5.296  18.205  0.00  0.00    +0.000 A 
ATOM      6  C   UNL     1       2.173   6.696  18.297  0.00  0.00    +0.000 A 
ENDROOT
BRANCH   4   7
ATOM      7  N   UNL     1       2.164   3.085  19.226  0.00  0.00    +0.000 N 
ATOM      8  C   UNL     1       1.129   2.412  18.427  0.00  0.00    +0.000 C 
BRANCH   7   9
ATOM      9  S   UNL     1       3.708   2.372  19.273  0.00  0.00    +0.000 S 
ATOM     10  O   UNL     1       4.084   2.140  20.654  0.00  0.00    +0.000 OA
ATOM     11  O   UNL     1       3.713   1.275  18.322  0.00  0.00    +0.000 OA
BRANCH   9  12
ATOM     12  C   UNL     1       4.824   3.607  18.622  0.00  0.00    +0.000 A 
ATOM     13  C   UNL     1       4.938   3.783  17.238  0.00  0.00    +0.000 A 
ATOM     14  C   UNL     1       5.726   4.819  16.728  0.00  0.00    +0.000 A 
ATOM     15  C   UNL     1       6.396   5.699  17.589  0.00  0.00    +0.000 A 
ATOM     16  C   UNL     1       7.226   6.827  17.047  0.00  0.00    +0.000 C 
ATOM     17  C   UNL     1       6.242   5.543  18.974  0.00  0.00    +0.000 A 
ATOM     18  C   UNL     1       5.458   4.505  19.490  0.00  0.00    +0.000 A 
ENDBRANCH   9  12
ENDBRANCH   7   9
ENDBRANCH   4   7
BRANCH   1  19
ATOM     19  O   UNL     1       2.027   8.656  19.773  0.00  0.00    +0.000 OA
BRANCH  19  20
ATOM     20  C   UNL     1       1.551   9.090  21.044  0.00  0.00    +0.000 C 
BRANCH  20  26
ATOM     21  C   UNL     1      -1.860  11.940  18.964  0.00  0.00    +0.000 C 
ATOM     22  C   UNL     1      -0.753  12.858  18.442  0.00  0.00    +0.000 C 
ATOM     23  C   UNL     1       0.644  12.266  18.618  0.00  0.00    +0.000 C 
ATOM     24  C   UNL     1       0.869  11.793  20.049  0.00  0.00    +0.000 C 
ATOM     25  N   UNL     1      -0.155  10.824  20.424  0.00  0.00    +0.000 N 
ATOM     26  C   UNL     1       0.085   9.550  20.941  0.00  0.00    +0.000 C 
ATOM     27  O   UNL     1      -0.843   8.819  21.297  0.00  0.00    +0.000 OA
ATOM     28  C   UNL     1      -1.537  11.300  20.319  0.00  0.00    +0.000 C 
BRANCH  21  29
ATOM     29  C   UNL     1      -2.295  10.928  17.922  0.00  0.00    +0.000 C 
ATOM     30  O   UNL     1      -1.523  10.112  17.431  0.00  0.00    +0.000 OA
BRANCH  29  31
ATOM     31  O   UNL     1      -3.609  11.040  17.602  0.00  0.00    +0.000 OA
BRANCH  31  33
ATOM     32  C   UNL     1      -5.646  12.297  17.752  0.00  0.00    +0.000 C 
ATOM     33  C   UNL     1      -4.394  11.850  18.488  0.00  0.00    +0.000 C 
ENDBRANCH  31  33
ENDBRANCH  29  31
ENDBRANCH  21  29
ENDBRANCH  20  26
ENDBRANCH  19  20
ENDBRANCH   1  19
TORSDOF 9
ENDMDL
