MODEL 1
REMARK VINA RESULT:      -6.8      0.000      0.000
REMARK  Name = 
REMARK  11 active torsions:
REMARK  status: ('A' for Active; 'I' for Inactive)
REMARK    1  A    between atoms: C_1  and  C_2
REMARK    2  A    between atoms: C_2  and  C_3
REMARK    3  A    between atoms: C_2  and  C_4
REMARK    4  A    between atoms: C_4  and  O_5
REMARK    5  A    between atoms: O_5  and  C_6
REMARK    6  A    between atoms: C_6  and  C_7
REMARK    7  A    between atoms: C_7  and  C_8
REMARK    8  A    between atoms: C_8  and  N_9
REMARK    9  A    between atoms: N_9  and  S_10
REMARK   10  A    between atoms: S_10  and  C_13
REMARK   11  A    between atoms: C_16  and  C_17
REMARK                            x       y       z     vdW  Elec       q    Type
REMARK                         _______ _______ _______ _____ _____    ______ ____
ROOT
ATOM      1  S   UNL     1       6.535   5.586  16.304  0.00  0.00    +0.000 S 
ATOM      2  O   UNL     1       6.334   5.590  14.876  0.00  0.00    +0.000 OA
ATOM      3  O   UNL     1       7.668   4.911  16.911  0.00  0.00    +0.000 OA
ENDROOT
BRANCH   1   4
ATOM      4  C   UNL     1       5.052   4.974  17.060  0.00  0.00    +0.000 A 
ATOM      5  C   UNL     1       4.312   5.847  17.859  0.00  0.00    +0.000 A 
ATOM      6  C   UNL     1       3.136   5.403  18.473  0.00  0.00    +0.000 A 
ATOM      7  C   UNL     1       2.670   4.101  18.259  0.00  0.00    +0.000 A 
ATOM      8  C   UNL     1       3.417   3.234  17.439  0.00  0.00    +0.000 A 
ATOM      9  C   UNL     1       4.602   3.670  16.835  0.00  0.00    +0.000 A 
BRANCH   7  10
ATOM     10  C   UNL     1       1.398   3.590  18.853  0.00  0.00    +0.000 C 
ATOM     11  N   UNL     1       0.963   4.127  20.033  0.00  0.00    +0.000 N 
ATOM     12  O   UNL     1       0.739   2.720  18.299  0.00  0.00    +0.000 OA
ATOM     13  H   UNL     1       1.410   4.878  20.537  0.00  0.00    +0.000 HD
ATOM     14  H   UNL     1       0.072   3.800  20.380  0.00  0.00    +0.000 HD
ENDBRANCH   7  10
ENDBRANCH   1   4
BRANCH   1  15
ATOM     15  N   UNL     1       6.602   7.215  16.791  0.00  0.00    +0.000 NA
ATOM     16  H   UNL     1       6.486   7.811  15.963  0.00  0.00    +0.000 HD
BRANCH  15  17
ATOM     17  C   UNL     1       7.728   7.554  17.665  0.00  0.00    +0.000 C 
BRANCH  17  18
ATOM     18  C   UNL     1       7.923   9.055  17.809  0.00  0.00    +0.000 C 
BRANCH  18  19
ATOM     19  C   UNL     1       8.993   9.309  18.869  0.00  0.00    +0.000 C 
BRANCH  19  20
ATOM     20  O   UNL     1       8.947  10.666  19.299  0.00  0.00    +0.000 OA
BRANCH  20  21
ATOM     21  C   UNL     1       9.826  11.476  18.513  0.00  0.00    +0.000 C 
BRANCH  21  23
ATOM     22  C   UNL     1      10.357  12.152  20.867  0.00  0.00    +0.000 C 
ATOM     23  C   UNL     1      10.836  12.189  19.416  0.00  0.00    +0.000 C 
ATOM     24  C   UNL     1      12.226  11.563  19.299  0.00  0.00    +0.000 C 
ENDBRANCH  21  23
ENDBRANCH  20  21
ENDBRANCH  19  20
ENDBRANCH  18  19
ENDBRANCH  17  18
ENDBRANCH  15  17
ENDBRANCH   1  15
TORSDOF 9
ENDMDL
MODEL 2
REMARK VINA RESULT:      -6.7      0.695      1.310
REMARK  Name = 
REMARK  11 active torsions:
REMARK  status: ('A' for Active; 'I' for Inactive)
REMARK    1  A    between atoms: C_1  and  C_2
REMARK    2  A    between atoms: C_2  and  C_3
REMARK    3  A    between atoms: C_2  and  C_4
REMARK    4  A    between atoms: C_4  and  O_5
REMARK    5  A    between atoms: O_5  and  C_6
REMARK    6  A    between atoms: C_6  and  C_7
REMARK    7  A    between atoms: C_7  and  C_8
REMARK    8  A    between atoms: C_8  and  N_9
REMARK    9  A    between atoms: N_9  and  S_10
REMARK   10  A    between atoms: S_10  and  C_13
REMARK   11  A    between atoms: C_16  and  C_17
REMARK                            x       y       z     vdW  Elec       q    Type
REMARK                         _______ _______ _______ _____ _____    ______ ____
ROOT
ATOM      1  S   UNL     1       6.601   5.544  16.269  0.00  0.00    +0.000 S 
ATOM      2  O   UNL     1       6.349   5.860  14.885  0.00  0.00    +0.000 OA
ATOM      3  O   UNL     1       7.640   4.607  16.659  0.00  0.00    +0.000 OA
ENDROOT
BRANCH   1   4
ATOM      4  C   UNL     1       5.071   5.011  16.992  0.00  0.00    +0.000 A 
ATOM      5  C   UNL     1       4.731   3.661  16.892  0.00  0.00    +0.000 A 
ATOM      6  C   UNL     1       3.534   3.201  17.450  0.00  0.00    +0.000 A 
ATOM      7  C   UNL     1       2.690   4.075  18.145  0.00  0.00    +0.000 A 
ATOM      8  C   UNL     1       3.052   5.431  18.252  0.00  0.00    +0.000 A 
ATOM      9  C   UNL     1       4.243   5.898  17.684  0.00  0.00    +0.000 A 
BRANCH   7  10
ATOM     10  C   UNL     1       1.424   3.627  18.798  0.00  0.00    +0.000 C 
ATOM     11  N   UNL     1       1.067   4.187  19.993  0.00  0.00    +0.000 N 
ATOM     12  O   UNL     1       0.700   2.787  18.277  0.00  0.00    +0.000 OA
ATOM     13  H   UNL     1       1.571   4.917  20.473  0.00  0.00    +0.000 HD
ATOM     14  H   UNL     1       0.178   3.904  20.381  0.00  0.00    +0.000 HD
ENDBRANCH   7  10
ENDBRANCH   1   4
BRANCH   1  15
ATOM     15  N   UNL     1       6.934   7.018  17.052  0.00  0.00    +0.000 NA
ATOM     16  H   UNL     1       7.179   7.719  16.344  0.00  0.00    +0.000 HD
BRANCH  15  17
ATOM     17  C   UNL     1       7.849   6.919  18.192  0.00  0.00    +0.000 C 
BRANCH  17  18
ATOM     18  C   UNL     1       8.449   8.262  18.576  0.00  0.00    +0.000 C 
BRANCH  18  19
ATOM     19  C   UNL     1       7.886   9.332  17.644  0.00  0.00    +0.000 C 
BRANCH  19  20
ATOM     20  O   UNL     1       8.490  10.592  17.918  0.00  0.00    +0.000 OA
BRANCH  20  21
ATOM     21  C   UNL     1       9.328  10.510  19.075  0.00  0.00    +0.000 C 
BRANCH  21  23
ATOM     22  C   UNL     1      10.928  11.799  20.511  0.00  0.00    +0.000 C 
ATOM     23  C   UNL     1      10.262  11.722  19.137  0.00  0.00    +0.000 C 
ATOM     24  C   UNL     1      11.321  11.665  18.035  0.00  0.00    +0.000 C 
ENDBRANCH  21  23
ENDBRANCH  20  21
ENDBRANCH  19  20
ENDBRANCH  18  19
ENDBRANCH  17  18
ENDBRANCH  15  17
ENDBRANCH   1  15
TORSDOF 9
ENDMDL
MODEL 3
REMARK VINA RESULT:      -6.7      4.409      7.374
REMARK  Name = 
REMARK  11 active torsions:
REMARK  status: ('A' for Active; 'I' for Inactive)
REMARK    1  A    between atoms: C_1  and  C_2
REMARK    2  A    between atoms: C_2  and  C_3
REMARK    3  A    between atoms: C_2  and  C_4
REMARK    4  A    between atoms: C_4  and  O_5
REMARK    5  A    between atoms: O_5  and  C_6
REMARK    6  A    between atoms: C_6  and  C_7
REMARK    7  A    between atoms: C_7  and  C_8
REMARK    8  A    between atoms: C_8  and  N_9
REMARK    9  A    between atoms: N_9  and  S_10
REMARK   10  A    between atoms: S_10  and  C_13
REMARK   11  A    between atoms: C_16  and  C_17
REMARK                            x       y       z     vdW  Elec       q    Type
REMARK                         _______ _______ _______ _____ _____    ______ ____
ROOT
ATOM      1  S   UNL     1       7.130   5.682  17.361  0.00  0.00    +0.000 S 
ATOM      2  O   UNL     1       7.779   6.929  17.041  0.00  0.00    +0.000 OA
ATOM      3  O   UNL     1       7.773   4.682  18.194  0.00  0.00    +0.000 OA
ENDROOT
BRANCH   1   4
ATOM      4  C   UNL     1       6.652   4.912  15.836  0.00  0.00    +0.000 A 
ATOM      5  C   UNL     1       7.363   5.242  14.681  0.00  0.00    +0.000 A 
ATOM      6  C   UNL     1       7.017   4.656  13.459  0.00  0.00    +0.000 A 
ATOM      7  C   UNL     1       5.990   3.708  13.389  0.00  0.00    +0.000 A 
ATOM      8  C   UNL     1       5.290   3.372  14.564  0.00  0.00    +0.000 A 
ATOM      9  C   UNL     1       5.624   3.967  15.787  0.00  0.00    +0.000 A 
BRANCH   7  10
ATOM     10  C   UNL     1       5.610   3.019  12.120  0.00  0.00    +0.000 C 
ATOM     11  N   UNL     1       6.442   2.054  11.623  0.00  0.00    +0.000 N 
ATOM     12  O   UNL     1       4.571   3.292  11.531  0.00  0.00    +0.000 OA
ATOM     13  H   UNL     1       7.290   1.728  12.059  0.00  0.00    +0.000 HD
ATOM     14  H   UNL     1       6.129   1.568  10.793  0.00  0.00    +0.000 HD
ENDBRANCH   7  10
ENDBRANCH   1   4
BRANCH   1  15
ATOM     15  N   UNL     1       5.651   6.079  18.102  0.00  0.00    +0.000 NA
ATOM     16  H   UNL     1       5.228   5.222  18.474  0.00  0.00    +0.000 HD
BRANCH  15  17
ATOM     17  C   UNL     1       4.766   6.928  17.299  0.00  0.00    +0.000 C 
BRANCH  17  18
ATOM     18  C   UNL     1       3.385   7.080  17.917  0.00  0.00    +0.000 C 
BRANCH  18  19
ATOM     19  C   UNL     1       2.752   5.696  18.042  0.00  0.00    +0.000 C 
BRANCH  19  20
ATOM     20  O   UNL     1       2.784   5.260  19.397  0.00  0.00    +0.000 OA
BRANCH  20  21
ATOM     21  C   UNL     1       3.120   3.872  19.474  0.00  0.00    +0.000 C 
BRANCH  21  23
ATOM     22  C   UNL     1       3.228   1.911  17.917  0.00  0.00    +0.000 C 
ATOM     23  C   UNL     1       2.374   3.087  18.391  0.00  0.00    +0.000 C 
ATOM     24  C   UNL     1       1.019   2.592  18.896  0.00  0.00    +0.000 C 
ENDBRANCH  21  23
ENDBRANCH  20  21
ENDBRANCH  19  20
ENDBRANCH  18  19
ENDBRANCH  17  18
ENDBRANCH  15  17
ENDBRANCH   1  15
TORSDOF 9
ENDMDL
MODEL 4
REMARK VINA RESULT:      -6.7      4.408      7.466
REMARK  Name = 
REMARK  11 active torsions:
REMARK  status: ('A' for Active; 'I' for Inactive)
REMARK    1  A    between atoms: C_1  and  C_2
REMARK    2  A    between atoms: C_2  and  C_3
REMARK    3  A    between atoms: C_2  and  C_4
REMARK    4  A    between atoms: C_4  and  O_5
REMARK    5  A    between atoms: O_5  and  C_6
REMARK    6  A    between atoms: C_6  and  C_7
REMARK    7  A    between atoms: C_7  and  C_8
REMARK    8  A    between atoms: C_8  and  N_9
REMARK    9  A    between atoms: N_9  and  S_10
REMARK   10  A    between atoms: S_10  and  C_13
REMARK   11  A    between atoms: C_16  and  C_17
REMARK                            x       y       z     vdW  Elec       q    Type
REMARK                         _______ _______ _______ _____ _____    ______ ____
ROOT
ATOM      1  S   UNL     1       7.195   5.624  17.335  0.00  0.00    +0.000 S 
ATOM      2  O   UNL     1       7.796   6.895  17.016  0.00  0.00    +0.000 OA
ATOM      3  O   UNL     1       7.901   4.623  18.113  0.00  0.00    +0.000 OA
ENDROOT
BRANCH   1   4
ATOM      4  C   UNL     1       6.664   4.877  15.816  0.00  0.00    +0.000 A 
ATOM      5  C   UNL     1       7.364   5.190  14.650  0.00  0.00    +0.000 A 
ATOM      6  C   UNL     1       6.977   4.621  13.432  0.00  0.00    +0.000 A 
ATOM      7  C   UNL     1       5.918   3.707  13.377  0.00  0.00    +0.000 A 
ATOM      8  C   UNL     1       5.230   3.389  14.563  0.00  0.00    +0.000 A 
ATOM      9  C   UNL     1       5.605   3.966  15.782  0.00  0.00    +0.000 A 
BRANCH   7  10
ATOM     10  C   UNL     1       5.494   3.038  12.112  0.00  0.00    +0.000 C 
ATOM     11  N   UNL     1       6.237   1.990  11.642  0.00  0.00    +0.000 N 
ATOM     12  O   UNL     1       4.494   3.399  11.502  0.00  0.00    +0.000 OA
ATOM     13  H   UNL     1       7.044   1.592  12.097  0.00  0.00    +0.000 HD
ATOM     14  H   UNL     1       5.892   1.523  10.815  0.00  0.00    +0.000 HD
ENDBRANCH   7  10
ENDBRANCH   1   4
BRANCH   1  15
ATOM     15  N   UNL     1       5.743   5.966  18.154  0.00  0.00    +0.000 NA
ATOM     16  H   UNL     1       5.368   5.091  18.538  0.00  0.00    +0.000 HD
BRANCH  15  17
ATOM     17  C   UNL     1       4.791   6.791  17.406  0.00  0.00    +0.000 C 
BRANCH  17  18
ATOM     18  C   UNL     1       3.361   6.622  17.897  0.00  0.00    +0.000 C 
BRANCH  18  19
ATOM     19  C   UNL     1       3.099   5.137  18.132  0.00  0.00    +0.000 C 
BRANCH  19  20
ATOM     20  O   UNL     1       1.789   4.945  18.657  0.00  0.00    +0.000 OA
BRANCH  20  21
ATOM     21  C   UNL     1       1.815   4.930  20.087  0.00  0.00    +0.000 C 
BRANCH  21  23
ATOM     22  C   UNL     1       0.788   2.736  19.444  0.00  0.00    +0.000 C 
ATOM     23  C   UNL     1       1.168   3.645  20.613  0.00  0.00    +0.000 C 
ATOM     24  C   UNL     1       2.098   2.909  21.579  0.00  0.00    +0.000 C 
ENDBRANCH  21  23
ENDBRANCH  20  21
ENDBRANCH  19  20
ENDBRANCH  18  19
ENDBRANCH  17  18
ENDBRANCH  15  17
ENDBRANCH   1  15
TORSDOF 9
ENDMDL
MODEL 5
REMARK VINA RESULT:      -6.6      4.033      7.185
REMARK  Name = 
REMARK  11 active torsions:
REMARK  status: ('A' for Active; 'I' for Inactive)
REMARK    1  A    between atoms: C_1  and  C_2
REMARK    2  A    between atoms: C_2  and  C_3
REMARK    3  A    between atoms: C_2  and  C_4
REMARK    4  A    between atoms: C_4  and  O_5
REMARK    5  A    between atoms: O_5  and  C_6
REMARK    6  A    between atoms: C_6  and  C_7
REMARK    7  A    between atoms: C_7  and  C_8
REMARK    8  A    between atoms: C_8  and  N_9
REMARK    9  A    between atoms: N_9  and  S_10
REMARK   10  A    between atoms: S_10  and  C_13
REMARK   11  A    between atoms: C_16  and  C_17
REMARK                            x       y       z     vdW  Elec       q    Type
REMARK                         _______ _______ _______ _____ _____    ______ ____
ROOT
ATOM      1  S   UNL     1       2.850   2.422  18.620  0.00  0.00    +0.000 S 
ATOM      2  O   UNL     1       3.499   1.157  18.858  0.00  0.00    +0.000 OA
ATOM      3  O   UNL     1       1.676   2.528  17.773  0.00  0.00    +0.000 OA
ENDROOT
BRANCH   1   4
ATOM      4  C   UNL     1       4.074   3.557  18.020  0.00  0.00    +0.000 A 
ATOM      5  C   UNL     1       5.036   4.023  18.918  0.00  0.00    +0.000 A 
ATOM      6  C   UNL     1       6.019   4.917  18.484  0.00  0.00    +0.000 A 
ATOM      7  C   UNL     1       6.075   5.320  17.144  0.00  0.00    +0.000 A 
ATOM      8  C   UNL     1       5.108   4.830  16.245  0.00  0.00    +0.000 A 
ATOM      9  C   UNL     1       4.114   3.945  16.678  0.00  0.00    +0.000 A 
BRANCH   7  10
ATOM     10  C   UNL     1       7.129   6.237  16.619  0.00  0.00    +0.000 C 
ATOM     11  N   UNL     1       7.438   7.360  17.335  0.00  0.00    +0.000 N 
ATOM     12  O   UNL     1       7.725   5.994  15.576  0.00  0.00    +0.000 OA
ATOM     13  H   UNL     1       7.039   7.618  18.224  0.00  0.00    +0.000 HD
ATOM     14  H   UNL     1       8.195   7.930  16.982  0.00  0.00    +0.000 HD
ENDBRANCH   7  10
ENDBRANCH   1   4
BRANCH   1  15
ATOM     15  N   UNL     1       2.426   3.045  20.146  0.00  0.00    +0.000 NA
ATOM     16  H   UNL     1       2.247   2.262  20.784  0.00  0.00    +0.000 HD
BRANCH  15  17
ATOM     17  C   UNL     1       1.402   4.093  20.123  0.00  0.00    +0.000 C 
BRANCH  17  18
ATOM     18  C   UNL     1       1.891   5.400  20.728  0.00  0.00    +0.000 C 
BRANCH  18  19
ATOM     19  C   UNL     1       2.279   6.347  19.595  0.00  0.00    +0.000 C 
BRANCH  19  20
ATOM     20  O   UNL     1       2.089   7.700  19.997  0.00  0.00    +0.000 OA
BRANCH  20  21
ATOM     21  C   UNL     1       1.237   7.772  21.145  0.00  0.00    +0.000 C 
BRANCH  21  23
ATOM     22  C   UNL     1       0.136   9.797  20.161  0.00  0.00    +0.000 C 
ATOM     23  C   UNL     1       0.820   9.222  21.402  0.00  0.00    +0.000 C 
ATOM     24  C   UNL     1      -0.104   9.329  22.615  0.00  0.00    +0.000 C 
ENDBRANCH  21  23
ENDBRANCH  20  21
ENDBRANCH  19  20
ENDBRANCH  18  19
ENDBRANCH  17  18
ENDBRANCH  15  17
ENDBRANCH   1  15
TORSDOF 9
ENDMDL
MODEL 6
REMARK VINA RESULT:      -6.6      4.290      7.197
REMARK  Name = 
REMARK  11 active torsions:
REMARK  status: ('A' for Active; 'I' for Inactive)
REMARK    1  A    between atoms: C_1  and  C_2
REMARK    2  A    between atoms: C_2  and  C_3
REMARK    3  A    between atoms: C_2  and  C_4
REMARK    4  A    between atoms: C_4  and  O_5
REMARK    5  A    between atoms: O_5  and  C_6
REMARK    6  A    between atoms: C_6  and  C_7
REMARK    7  A    between atoms: C_7  and  C_8
REMARK    8  A    between atoms: C_8  and  N_9
REMARK    9  A    between atoms: N_9  and  S_10
REMARK   10  A    between atoms: S_10  and  C_13
REMARK   11  A    between atoms: C_16  and  C_17
REMARK                            x       y       z     vdW  Elec       q    Type
REMARK                         _______ _______ _______ _____ _____    ______ ____
ROOT
ATOM      1  S   UNL     1       4.256   1.942  19.799  0.00  0.00    +0.000 S 
ATOM      2  O   UNL     1       5.314   1.663  20.738  0.00  0.00    +0.000 OA
ATOM      3  O   UNL     1       3.741   0.919  18.908  0.00  0.00    +0.000 OA
ENDROOT
BRANCH   1   4
ATOM      4  C   UNL     1       4.753   3.335  18.820  0.00  0.00    +0.000 A 
ATOM      5  C   UNL     1       4.512   3.293  17.446  0.00  0.00    +0.000 A 
ATOM      6  C   UNL     1       4.888   4.371  16.639  0.00  0.00    +0.000 A 
ATOM      7  C   UNL     1       5.468   5.514  17.202  0.00  0.00    +0.000 A 
ATOM      8  C   UNL     1       5.692   5.551  18.592  0.00  0.00    +0.000 A 
ATOM      9  C   UNL     1       5.330   4.468  19.401  0.00  0.00    +0.000 A 
BRANCH   7  10
ATOM     10  C   UNL     1       5.847   6.711  16.393  0.00  0.00    +0.000 C 
ATOM     11  N   UNL     1       5.263   6.887  15.169  0.00  0.00    +0.000 N 
ATOM     12  O   UNL     1       6.651   7.535  16.810  0.00  0.00    +0.000 OA
ATOM     13  H   UNL     1       4.558   6.291  14.763  0.00  0.00    +0.000 HD
ATOM     14  H   UNL     1       5.498   7.734  14.671  0.00  0.00    +0.000 HD
ENDBRANCH   7  10
ENDBRANCH   1   4
BRANCH   1  15
ATOM     15  N   UNL     1       2.942   2.527  20.708  0.00  0.00    +0.000 NA
ATOM     16  H   UNL     1       3.033   2.192  21.673  0.00  0.00    +0.000 HD
BRANCH  15  17
ATOM     17  C   UNL     1       1.628   2.334  20.089  0.00  0.00    +0.000 C 
BRANCH  17  18
ATOM     18  C   UNL     1       0.932   3.649  19.775  0.00  0.00    +0.000 C 
BRANCH  18  19
ATOM     19  C   UNL     1       1.251   4.038  18.334  0.00  0.00    +0.000 C 
BRANCH  19  20
ATOM     20  O   UNL     1       1.864   5.323  18.295  0.00  0.00    +0.000 OA
BRANCH  20  21
ATOM     21  C   UNL     1       2.047   5.836  19.618  0.00  0.00    +0.000 C 
BRANCH  21  23
ATOM     22  C   UNL     1       2.395   7.814  18.118  0.00  0.00    +0.000 C 
ATOM     23  C   UNL     1       2.458   7.310  19.560  0.00  0.00    +0.000 C 
ATOM     24  C   UNL     1       1.574   8.171  20.464  0.00  0.00    +0.000 C 
ENDBRANCH  21  23
ENDBRANCH  20  21
ENDBRANCH  19  20
ENDBRANCH  18  19
ENDBRANCH  17  18
ENDBRANCH  15  17
ENDBRANCH   1  15
TORSDOF 9
ENDMDL
MODEL 7
REMARK VINA RESULT:      -6.5      4.820      7.791
REMARK  Name = 
REMARK  11 active torsions:
REMARK  status: ('A' for Active; 'I' for Inactive)
REMARK    1  A    between atoms: C_1  and  C_2
REMARK    2  A    between atoms: C_2  and  C_3
REMARK    3  A    between atoms: C_2  and  C_4
REMARK    4  A    between atoms: C_4  and  O_5
REMARK    5  A    between atoms: O_5  and  C_6
REMARK    6  A    between atoms: C_6  and  C_7
REMARK    7  A    between atoms: C_7  and  C_8
REMARK    8  A    between atoms: C_8  and  N_9
REMARK    9  A    between atoms: N_9  and  S_10
REMARK   10  A    between atoms: S_10  and  C_13
REMARK   11  A    between atoms: C_16  and  C_17
REMARK                            x       y       z     vdW  Elec       q    Type
REMARK                         _______ _______ _______ _____ _____    ______ ____
ROOT
ATOM      1  S   UNL     1       4.820   4.167  18.200  0.00  0.00    +0.000 S 
ATOM      2  O   UNL     1       5.741   3.615  19.162  0.00  0.00    +0.000 OA
ATOM      3  O   UNL     1       3.562   3.514  17.889  0.00  0.00    +0.000 OA
ENDROOT
BRANCH   1   4
ATOM      4  C   UNL     1       5.705   4.422  16.684  0.00  0.00    +0.000 A 
ATOM      5  C   UNL     1       5.065   4.099  15.486  0.00  0.00    +0.000 A 
ATOM      6  C   UNL     1       5.729   4.285  14.269  0.00  0.00    +0.000 A 
ATOM      7  C   UNL     1       7.017   4.833  14.237  0.00  0.00    +0.000 A 
ATOM      8  C   UNL     1       7.646   5.168  15.452  0.00  0.00    +0.000 A 
ATOM      9  C   UNL     1       6.990   4.970  16.672  0.00  0.00    +0.000 A 
BRANCH   7  10
ATOM     10  C   UNL     1       7.752   5.094  12.964  0.00  0.00    +0.000 C 
ATOM     11  N   UNL     1       8.803   5.969  12.981  0.00  0.00    +0.000 N 
ATOM     12  O   UNL     1       7.441   4.533  11.921  0.00  0.00    +0.000 OA
ATOM     13  H   UNL     1       9.162   6.440  13.797  0.00  0.00    +0.000 HD
ATOM     14  H   UNL     1       9.315   6.082  12.116  0.00  0.00    +0.000 HD
ENDBRANCH   7  10
ENDBRANCH   1   4
BRANCH   1  15
ATOM     15  N   UNL     1       4.451   5.742  18.729  0.00  0.00    +0.000 NA
ATOM     16  H   UNL     1       4.007   5.684  19.652  0.00  0.00    +0.000 HD
BRANCH  15  17
ATOM     17  C   UNL     1       3.761   6.580  17.743  0.00  0.00    +0.000 C 
BRANCH  17  18
ATOM     18  C   UNL     1       2.527   7.257  18.316  0.00  0.00    +0.000 C 
BRANCH  18  19
ATOM     19  C   UNL     1       2.251   6.678  19.701  0.00  0.00    +0.000 C 
BRANCH  19  20
ATOM     20  O   UNL     1       1.703   5.368  19.587  0.00  0.00    +0.000 OA
BRANCH  20  21
ATOM     21  C   UNL     1       1.262   4.891  20.861  0.00  0.00    +0.000 C 
BRANCH  21  23
ATOM     22  C   UNL     1       0.732   2.798  19.587  0.00  0.00    +0.000 C 
ATOM     23  C   UNL     1       1.296   3.360  20.892  0.00  0.00    +0.000 C 
ATOM     24  C   UNL     1       2.714   2.839  21.127  0.00  0.00    +0.000 C 
ENDBRANCH  21  23
ENDBRANCH  20  21
ENDBRANCH  19  20
ENDBRANCH  18  19
ENDBRANCH  17  18
ENDBRANCH  15  17
ENDBRANCH   1  15
TORSDOF 9
ENDMDL
MODEL 8
REMARK VINA RESULT:      -6.5      3.134      5.077
REMARK  Name = 
REMARK  11 active torsions:
REMARK  status: ('A' for Active; 'I' for Inactive)
REMARK    1  A    between atoms: C_1  and  C_2
REMARK    2  A    between atoms: C_2  and  C_3
REMARK    3  A    between atoms: C_2  and  C_4
REMARK    4  A    between atoms: C_4  and  O_5
REMARK    5  A    between atoms: O_5  and  C_6
REMARK    6  A    between atoms: C_6  and  C_7
REMARK    7  A    between atoms: C_7  and  C_8
REMARK    8  A    between atoms: C_8  and  N_9
REMARK    9  A    between atoms: N_9  and  S_10
REMARK   10  A    between atoms: S_10  and  C_13
REMARK   11  A    between atoms: C_16  and  C_17
REMARK                            x       y       z     vdW  Elec       q    Type
REMARK                         _______ _______ _______ _____ _____    ______ ____
ROOT
ATOM      1  S   UNL     1       2.977   3.219  18.141  0.00  0.00    +0.000 S 
ATOM      2  O   UNL     1       2.371   3.147  16.834  0.00  0.00    +0.000 OA
ATOM      3  O   UNL     1       2.769   2.181  19.133  0.00  0.00    +0.000 OA
ENDROOT
BRANCH   1   4
ATOM      4  C   UNL     1       2.532   4.777  18.862  0.00  0.00    +0.000 A 
ATOM      5  C   UNL     1       2.084   4.786  20.184  0.00  0.00    +0.000 A 
ATOM      6  C   UNL     1       1.724   5.995  20.789  0.00  0.00    +0.000 A 
ATOM      7  C   UNL     1       1.848   7.204  20.095  0.00  0.00    +0.000 A 
ATOM      8  C   UNL     1       2.315   7.182  18.766  0.00  0.00    +0.000 A 
ATOM      9  C   UNL     1       2.663   5.974  18.152  0.00  0.00    +0.000 A 
BRANCH   7  10
ATOM     10  C   UNL     1       1.520   8.525  20.708  0.00  0.00    +0.000 C 
ATOM     11  N   UNL     1       1.830   8.733  22.024  0.00  0.00    +0.000 N 
ATOM     12  O   UNL     1       0.998   9.420  20.055  0.00  0.00    +0.000 OA
ATOM     13  H   UNL     1       2.302   8.077  22.627  0.00  0.00    +0.000 HD
ATOM     14  H   UNL     1       1.647   9.655  22.394  0.00  0.00    +0.000 HD
ENDBRANCH   7  10
ENDBRANCH   1   4
BRANCH   1  15
ATOM     15  N   UNL     1       4.656   3.347  17.892  0.00  0.00    +0.000 NA
ATOM     16  H   UNL     1       5.029   4.063  18.524  0.00  0.00    +0.000 HD
BRANCH  15  17
ATOM     17  C   UNL     1       5.065   3.461  16.489  0.00  0.00    +0.000 C 
BRANCH  17  18
ATOM     18  C   UNL     1       5.353   4.898  16.082  0.00  0.00    +0.000 C 
BRANCH  18  19
ATOM     19  C   UNL     1       6.764   4.967  15.502  0.00  0.00    +0.000 C 
BRANCH  19  20
ATOM     20  O   UNL     1       7.505   6.007  16.132  0.00  0.00    +0.000 OA
BRANCH  20  21
ATOM     21  C   UNL     1       6.626   6.955  16.745  0.00  0.00    +0.000 C 
BRANCH  21  23
ATOM     22  C   UNL     1       7.964   6.298  18.760  0.00  0.00    +0.000 C 
ATOM     23  C   UNL     1       7.214   7.440  18.073  0.00  0.00    +0.000 C 
ATOM     24  C   UNL     1       8.143   8.637  17.867  0.00  0.00    +0.000 C 
ENDBRANCH  21  23
ENDBRANCH  20  21
ENDBRANCH  19  20
ENDBRANCH  18  19
ENDBRANCH  17  18
ENDBRANCH  15  17
ENDBRANCH   1  15
TORSDOF 9
ENDMDL
MODEL 9
REMARK VINA RESULT:      -6.5      1.312      1.874
REMARK  Name = 
REMARK  11 active torsions:
REMARK  status: ('A' for Active; 'I' for Inactive)
REMARK    1  A    between atoms: C_1  and  C_2
REMARK    2  A    between atoms: C_2  and  C_3
REMARK    3  A    between atoms: C_2  and  C_4
REMARK    4  A    between atoms: C_4  and  O_5
REMARK    5  A    between atoms: O_5  and  C_6
REMARK    6  A    between atoms: C_6  and  C_7
REMARK    7  A    between atoms: C_7  and  C_8
REMARK    8  A    between atoms: C_8  and  N_9
REMARK    9  A    between atoms: N_9  and  S_10
REMARK   10  A    between atoms: S_10  and  C_13
REMARK   11  A    between atoms: C_16  and  C_17
REMARK                            x       y       z     vdW  Elec       q    Type
REMARK                         _______ _______ _______ _____ _____    ______ ____
ROOT
ATOM      1  S   UNL     1       7.518   5.230  18.081  0.00  0.00    +0.000 S 
ATOM      2  O   UNL     1       8.196   4.164  17.387  0.00  0.00    +0.000 OA
ATOM      3  O   UNL     1       7.916   5.645  19.414  0.00  0.00    +0.000 OA
ENDROOT
BRANCH   1   4
ATOM      4  C   UNL     1       5.787   4.844  18.112  0.00  0.00    +0.000 A 
ATOM      5  C   UNL     1       5.243   4.174  17.015  0.00  0.00    +0.000 A 
ATOM      6  C   UNL     1       3.882   3.850  17.001  0.00  0.00    +0.000 A 
ATOM      7  C   UNL     1       3.066   4.155  18.097  0.00  0.00    +0.000 A 
ATOM      8  C   UNL     1       3.631   4.817  19.204  0.00  0.00    +0.000 A 
ATOM      9  C   UNL     1       4.989   5.155  19.216  0.00  0.00    +0.000 A 
BRANCH   7  10
ATOM     10  C   UNL     1       1.619   3.792  18.153  0.00  0.00    +0.000 C 
ATOM     11  N   UNL     1       1.155   3.109  19.243  0.00  0.00    +0.000 N 
ATOM     12  O   UNL     1       0.847   4.106  17.255  0.00  0.00    +0.000 OA
ATOM     13  H   UNL     1       1.701   2.850  20.050  0.00  0.00    +0.000 HD
ATOM     14  H   UNL     1       0.161   2.928  19.277  0.00  0.00    +0.000 HD
ENDBRANCH   7  10
ENDBRANCH   1   4
BRANCH   1  15
ATOM     15  N   UNL     1       7.614   6.601  17.078  0.00  0.00    +0.000 NA
ATOM     16  H   UNL     1       8.454   6.524  16.493  0.00  0.00    +0.000 HD
BRANCH  15  17
ATOM     17  C   UNL     1       7.435   7.884  17.765  0.00  0.00    +0.000 C 
BRANCH  17  18
ATOM     18  C   UNL     1       8.511   8.895  17.402  0.00  0.00    +0.000 C 
BRANCH  18  19
ATOM     19  C   UNL     1       8.664   9.880  18.559  0.00  0.00    +0.000 C 
BRANCH  19  20
ATOM     20  O   UNL     1       9.430  11.007  18.147  0.00  0.00    +0.000 OA
BRANCH  20  21
ATOM     21  C   UNL     1       9.349  12.056  19.117  0.00  0.00    +0.000 C 
BRANCH  21  23
ATOM     22  C   UNL     1      11.731  11.798  19.851  0.00  0.00    +0.000 C 
ATOM     23  C   UNL     1      10.271  11.752  20.301  0.00  0.00    +0.000 C 
ATOM     24  C   UNL     1      10.038  12.731  21.453  0.00  0.00    +0.000 C 
ENDBRANCH  21  23
ENDBRANCH  20  21
ENDBRANCH  19  20
ENDBRANCH  18  19
ENDBRANCH  17  18
ENDBRANCH  15  17
ENDBRANCH   1  15
TORSDOF 9
ENDMDL
