MODEL 1
REMARK VINA RESULT:      -8.3      0.000      0.000
REMARK  Name = 
REMARK  7 active torsions:
REMARK  status: ('A' for Active; 'I' for Inactive)
REMARK    1  A    between atoms: C_1  and  C_2
REMARK    2  A    between atoms: C_2  and  C_3
REMARK    3  A    between atoms: C_6  and  N_7
REMARK    4  A    between atoms: C_12  and  C_13
REMARK    5  A    between atoms: N_15  and  C_16
REMARK    6  A    between atoms: C_16  and  C_17
REMARK    7  A    between atoms: C_20  and  C_21
REMARK                            x       y       z     vdW  Elec       q    Type
REMARK                         _______ _______ _______ _____ _____    ______ ____
ROOT
ATOM      1  N   UNL     1      -1.993  11.895  22.289  0.00  0.00    +0.000 N 
ATOM      2  C   UNL     1      -1.404  11.079  23.252  0.00  0.00    +0.000 A 
ATOM      3  N   UNL     1      -0.223  10.648  22.935  0.00  0.00    +0.000 NA
ATOM      4  C   UNL     1      -0.200  10.823  21.600  0.00  0.00    +0.000 A 
ATOM      5  C   UNL     1       0.783  10.261  20.786  0.00  0.00    +0.000 A 
ATOM      6  C   UNL     1       0.601  10.203  19.424  0.00  0.00    +0.000 A 
ATOM      7  C   UNL     1      -0.483  10.931  18.882  0.00  0.00    +0.000 A 
ATOM      8  C   UNL     1      -1.447  11.638  19.696  0.00  0.00    +0.000 A 
ATOM      9  C   UNL     1      -1.327  11.510  21.100  0.00  0.00    +0.000 A 
ENDROOT
BRANCH   1  13
ATOM     10  C   UNL     1      -5.717  13.382  23.685  0.00  0.00    +0.000 A 
ATOM     11  C   UNL     1      -4.835  12.715  24.520  0.00  0.00    +0.000 A 
ATOM     12  C   UNL     1      -3.553  12.417  24.065  0.00  0.00    +0.000 A 
ATOM     13  C   UNL     1      -3.115  12.696  22.740  0.00  0.00    +0.000 A 
ATOM     14  C   UNL     1      -3.908  13.542  21.976  0.00  0.00    +0.000 A 
ATOM     15  C   UNL     1      -5.214  13.873  22.456  0.00  0.00    +0.000 A 
BRANCH  10  17
ATOM     16  C   UNL     1      -7.916  14.708  23.654  0.00  0.00    +0.000 C 
ATOM     17  C   UNL     1      -7.178  13.452  24.084  0.00  0.00    +0.000 C 
ENDBRANCH  10  17
ENDBRANCH   1  13
BRANCH   6  18
ATOM     18  C   UNL     1       1.565   9.339  18.630  0.00  0.00    +0.000 C 
ATOM     19  O   UNL     1       1.852   9.631  17.477  0.00  0.00    +0.000 OA
ATOM     20  N   UNL     1       2.072   8.203  19.284  0.00  0.00    +0.000 N 
ATOM     21  H   UNL     1       1.580   7.867  20.102  0.00  0.00    +0.000 HD
BRANCH  20  22
ATOM     22  C   UNL     1       2.957   7.226  18.658  0.00  0.00    +0.000 C 
BRANCH  22  23
ATOM     23  C   UNL     1       2.474   5.781  18.775  0.00  0.00    +0.000 A 
ATOM     24  C   UNL     1       1.908   5.291  19.971  0.00  0.00    +0.000 A 
ATOM     25  C   UNL     1       1.389   3.985  20.057  0.00  0.00    +0.000 A 
ATOM     26  C   UNL     1       1.411   3.133  18.949  0.00  0.00    +0.000 A 
ATOM     27  C   UNL     1       0.857   1.737  19.019  0.00  0.00    +0.000 C 
ATOM     28  C   UNL     1       1.966   3.621  17.751  0.00  0.00    +0.000 A 
ATOM     29  C   UNL     1       2.479   4.927  17.674  0.00  0.00    +0.000 A 
ENDBRANCH  22  23
ENDBRANCH  20  22
ENDBRANCH   6  18
TORSDOF 5
ENDMDL
MODEL 2
REMARK VINA RESULT:      -8.2      3.156     10.846
REMARK  Name = 
REMARK  7 active torsions:
REMARK  status: ('A' for Active; 'I' for Inactive)
REMARK    1  A    between atoms: C_1  and  C_2
REMARK    2  A    between atoms: C_2  and  C_3
REMARK    3  A    between atoms: C_6  and  N_7
REMARK    4  A    between atoms: C_12  and  C_13
REMARK    5  A    between atoms: N_15  and  C_16
REMARK    6  A    between atoms: C_16  and  C_17
REMARK    7  A    between atoms: C_20  and  C_21
REMARK                            x       y       z     vdW  Elec       q    Type
REMARK                         _______ _______ _______ _____ _____    ______ ____
ROOT
ATOM      1  N   UNL     1       4.030   6.021  18.021  0.00  0.00    +0.000 N 
ATOM      2  C   UNL     1       4.072   5.488  19.307  0.00  0.00    +0.000 A 
ATOM      3  N   UNL     1       3.038   5.769  20.036  0.00  0.00    +0.000 NA
ATOM      4  C   UNL     1       2.511   6.830  19.393  0.00  0.00    +0.000 A 
ATOM      5  C   UNL     1       1.523   7.635  19.957  0.00  0.00    +0.000 A 
ATOM      6  C   UNL     1       1.240   8.865  19.410  0.00  0.00    +0.000 A 
ATOM      7  C   UNL     1       1.808   9.162  18.150  0.00  0.00    +0.000 A 
ATOM      8  C   UNL     1       2.736   8.283  17.474  0.00  0.00    +0.000 A 
ATOM      9  C   UNL     1       3.145   7.117  18.164  0.00  0.00    +0.000 A 
ENDROOT
BRANCH   1  13
ATOM     10  C   UNL     1       5.942   4.315  14.636  0.00  0.00    +0.000 A 
ATOM     11  C   UNL     1       5.597   5.656  14.684  0.00  0.00    +0.000 A 
ATOM     12  C   UNL     1       5.149   6.206  15.882  0.00  0.00    +0.000 A 
ATOM     13  C   UNL     1       4.948   5.436  17.063  0.00  0.00    +0.000 A 
ATOM     14  C   UNL     1       5.485   4.155  17.082  0.00  0.00    +0.000 A 
ATOM     15  C   UNL     1       5.973   3.601  15.858  0.00  0.00    +0.000 A 
BRANCH  10  17
ATOM     16  C   UNL     1       4.940   3.614  12.378  0.00  0.00    +0.000 C 
ATOM     17  C   UNL     1       6.159   3.672  13.280  0.00  0.00    +0.000 C 
ENDBRANCH  10  17
ENDBRANCH   1  13
BRANCH   6  18
ATOM     18  C   UNL     1       0.365   9.803  20.223  0.00  0.00    +0.000 C 
ATOM     19  O   UNL     1      -0.011   9.482  21.343  0.00  0.00    +0.000 OA
ATOM     20  N   UNL     1       0.011  11.017  19.611  0.00  0.00    +0.000 N 
ATOM     21  H   UNL     1       0.103  11.087  18.606  0.00  0.00    +0.000 HD
BRANCH  20  22
ATOM     22  C   UNL     1      -0.874  12.009  20.214  0.00  0.00    +0.000 C 
BRANCH  22  23
ATOM     23  C   UNL     1      -2.272  12.055  19.600  0.00  0.00    +0.000 A 
ATOM     24  C   UNL     1      -2.556  11.421  18.371  0.00  0.00    +0.000 A 
ATOM     25  C   UNL     1      -3.860  11.393  17.843  0.00  0.00    +0.000 A 
ATOM     26  C   UNL     1      -4.922  11.988  18.530  0.00  0.00    +0.000 A 
ATOM     27  C   UNL     1      -6.323  11.965  17.984  0.00  0.00    +0.000 C 
ATOM     28  C   UNL     1      -4.646  12.613  19.760  0.00  0.00    +0.000 A 
ATOM     29  C   UNL     1      -3.341  12.634  20.281  0.00  0.00    +0.000 A 
ENDBRANCH  22  23
ENDBRANCH  20  22
ENDBRANCH   6  18
TORSDOF 5
ENDMDL
MODEL 3
REMARK VINA RESULT:      -8.1      3.161     10.771
REMARK  Name = 
REMARK  7 active torsions:
REMARK  status: ('A' for Active; 'I' for Inactive)
REMARK    1  A    between atoms: C_1  and  C_2
REMARK    2  A    between atoms: C_2  and  C_3
REMARK    3  A    between atoms: C_6  and  N_7
REMARK    4  A    between atoms: C_12  and  C_13
REMARK    5  A    between atoms: N_15  and  C_16
REMARK    6  A    between atoms: C_16  and  C_17
REMARK    7  A    between atoms: C_20  and  C_21
REMARK                            x       y       z     vdW  Elec       q    Type
REMARK                         _______ _______ _______ _____ _____    ______ ____
ROOT
ATOM      1  N   UNL     1       3.745   5.985  18.345  0.00  0.00    +0.000 N 
ATOM      2  C   UNL     1       3.713   5.544  19.665  0.00  0.00    +0.000 A 
ATOM      3  N   UNL     1       2.700   5.975  20.348  0.00  0.00    +0.000 NA
ATOM      4  C   UNL     1       2.290   7.033  19.621  0.00  0.00    +0.000 A 
ATOM      5  C   UNL     1       1.377   7.969  20.105  0.00  0.00    +0.000 A 
ATOM      6  C   UNL     1       1.225   9.178  19.467  0.00  0.00    +0.000 A 
ATOM      7  C   UNL     1       1.840   9.328  18.203  0.00  0.00    +0.000 A 
ATOM      8  C   UNL     1       2.688   8.317  17.612  0.00  0.00    +0.000 A 
ATOM      9  C   UNL     1       2.969   7.169  18.391  0.00  0.00    +0.000 A 
ENDROOT
BRANCH   1  13
ATOM     10  C   UNL     1       6.136   4.571  15.135  0.00  0.00    +0.000 A 
ATOM     11  C   UNL     1       6.537   5.627  15.937  0.00  0.00    +0.000 A 
ATOM     12  C   UNL     1       5.812   5.928  17.087  0.00  0.00    +0.000 A 
ATOM     13  C   UNL     1       4.616   5.247  17.452  0.00  0.00    +0.000 A 
ATOM     14  C   UNL     1       4.329   4.067  16.779  0.00  0.00    +0.000 A 
ATOM     15  C   UNL     1       5.093   3.741  15.614  0.00  0.00    +0.000 A 
BRANCH  10  17
ATOM     16  C   UNL     1       5.990   3.565  12.776  0.00  0.00    +0.000 C 
ATOM     17  C   UNL     1       6.758   4.430  13.760  0.00  0.00    +0.000 C 
ENDBRANCH  10  17
ENDBRANCH   1  13
BRANCH   6  18
ATOM     18  C   UNL     1       0.433  10.252  20.193  0.00  0.00    +0.000 C 
ATOM     19  O   UNL     1       0.521  10.371  21.407  0.00  0.00    +0.000 OA
ATOM     20  N   UNL     1      -0.398  11.060  19.399  0.00  0.00    +0.000 N 
ATOM     21  H   UNL     1      -0.645  10.727  18.476  0.00  0.00    +0.000 HD
BRANCH  20  22
ATOM     22  C   UNL     1      -1.278  12.097  19.930  0.00  0.00    +0.000 C 
BRANCH  22  23
ATOM     23  C   UNL     1      -2.709  12.035  19.395  0.00  0.00    +0.000 A 
ATOM     24  C   UNL     1      -3.780  12.629  20.095  0.00  0.00    +0.000 A 
ATOM     25  C   UNL     1      -5.084  12.644  19.567  0.00  0.00    +0.000 A 
ATOM     26  C   UNL     1      -5.357  12.076  18.319  0.00  0.00    +0.000 A 
ATOM     27  C   UNL     1      -6.742  12.085  17.735  0.00  0.00    +0.000 C 
ATOM     28  C   UNL     1      -4.289  11.491  17.612  0.00  0.00    +0.000 A 
ATOM     29  C   UNL     1      -2.989  11.483  18.147  0.00  0.00    +0.000 A 
ENDBRANCH  22  23
ENDBRANCH  20  22
ENDBRANCH   6  18
TORSDOF 5
ENDMDL
MODEL 4
REMARK VINA RESULT:      -8.0      3.714      5.961
REMARK  Name = 
REMARK  7 active torsions:
REMARK  status: ('A' for Active; 'I' for Inactive)
REMARK    1  A    between atoms: C_1  and  C_2
REMARK    2  A    between atoms: C_2  and  C_3
REMARK    3  A    between atoms: C_6  and  N_7
REMARK    4  A    between atoms: C_12  and  C_13
REMARK    5  A    between atoms: N_15  and  C_16
REMARK    6  A    between atoms: C_16  and  C_17
REMARK    7  A    between atoms: C_20  and  C_21
REMARK                            x       y       z     vdW  Elec       q    Type
REMARK                         _______ _______ _______ _____ _____    ______ ____
ROOT
ATOM      1  N   UNL     1       1.077   9.158  19.598  0.00  0.00    +0.000 N 
ATOM      2  C   UNL     1       1.533  10.035  18.617  0.00  0.00    +0.000 A 
ATOM      3  N   UNL     1       2.143   9.460  17.629  0.00  0.00    +0.000 NA
ATOM      4  C   UNL     1       2.467   8.259  18.147  0.00  0.00    +0.000 A 
ATOM      5  C   UNL     1       3.362   7.389  17.526  0.00  0.00    +0.000 A 
ATOM      6  C   UNL     1       3.895   6.332  18.226  0.00  0.00    +0.000 A 
ATOM      7  C   UNL     1       3.328   6.036  19.487  0.00  0.00    +0.000 A 
ATOM      8  C   UNL     1       2.299   6.846  20.101  0.00  0.00    +0.000 A 
ATOM      9  C   UNL     1       1.919   8.031  19.428  0.00  0.00    +0.000 A 
ENDROOT
BRANCH   1  13
ATOM     10  C   UNL     1      -1.306  11.513  22.204  0.00  0.00    +0.000 A 
ATOM     11  C   UNL     1      -1.295  11.720  20.833  0.00  0.00    +0.000 A 
ATOM     12  C   UNL     1      -0.649  10.805  20.008  0.00  0.00    +0.000 A 
ATOM     13  C   UNL     1       0.080   9.688  20.507  0.00  0.00    +0.000 A 
ATOM     14  C   UNL     1      -0.103   9.359  21.843  0.00  0.00    +0.000 A 
ATOM     15  C   UNL     1      -0.793  10.285  22.687  0.00  0.00    +0.000 A 
BRANCH  10  17
ATOM     16  C   UNL     1      -3.191  12.538  23.615  0.00  0.00    +0.000 C 
ATOM     17  C   UNL     1      -1.766  12.645  23.103  0.00  0.00    +0.000 C 
ENDBRANCH  10  17
ENDBRANCH   1  13
BRANCH   6  18
ATOM     18  C   UNL     1       5.063   5.597  17.593  0.00  0.00    +0.000 C 
ATOM     19  O   UNL     1       5.397   4.495  18.006  0.00  0.00    +0.000 OA
ATOM     20  N   UNL     1       5.724   6.258  16.545  0.00  0.00    +0.000 N 
ATOM     21  H   UNL     1       5.592   7.257  16.454  0.00  0.00    +0.000 HD
BRANCH  20  22
ATOM     22  C   UNL     1       6.903   5.734  15.862  0.00  0.00    +0.000 C 
BRANCH  22  23
ATOM     23  C   UNL     1       6.586   4.854  14.654  0.00  0.00    +0.000 A 
ATOM     24  C   UNL     1       5.395   4.100  14.588  0.00  0.00    +0.000 A 
ATOM     25  C   UNL     1       5.062   3.352  13.443  0.00  0.00    +0.000 A 
ATOM     26  C   UNL     1       5.903   3.342  12.326  0.00  0.00    +0.000 A 
ATOM     27  C   UNL     1       5.563   2.553  11.092  0.00  0.00    +0.000 C 
ATOM     28  C   UNL     1       7.087   4.100  12.383  0.00  0.00    +0.000 A 
ATOM     29  C   UNL     1       7.410   4.846  13.530  0.00  0.00    +0.000 A 
ENDBRANCH  22  23
ENDBRANCH  20  22
ENDBRANCH   6  18
TORSDOF 5
ENDMDL
MODEL 5
REMARK VINA RESULT:      -8.0      3.156      5.148
REMARK  Name = 
REMARK  7 active torsions:
REMARK  status: ('A' for Active; 'I' for Inactive)
REMARK    1  A    between atoms: C_1  and  C_2
REMARK    2  A    between atoms: C_2  and  C_3
REMARK    3  A    between atoms: C_6  and  N_7
REMARK    4  A    between atoms: C_12  and  C_13
REMARK    5  A    between atoms: N_15  and  C_16
REMARK    6  A    between atoms: C_16  and  C_17
REMARK    7  A    between atoms: C_20  and  C_21
REMARK                            x       y       z     vdW  Elec       q    Type
REMARK                         _______ _______ _______ _____ _____    ______ ____
ROOT
ATOM      1  N   UNL     1       0.696  10.227  19.706  0.00  0.00    +0.000 N 
ATOM      2  C   UNL     1       1.355  10.717  18.582  0.00  0.00    +0.000 A 
ATOM      3  N   UNL     1       1.815   9.799  17.791  0.00  0.00    +0.000 NA
ATOM      4  C   UNL     1       1.837   8.714  18.589  0.00  0.00    +0.000 A 
ATOM      5  C   UNL     1       2.501   7.539  18.239  0.00  0.00    +0.000 A 
ATOM      6  C   UNL     1       2.760   6.583  19.194  0.00  0.00    +0.000 A 
ATOM      7  C   UNL     1       2.131   6.733  20.451  0.00  0.00    +0.000 A 
ATOM      8  C   UNL     1       1.323   7.881  20.799  0.00  0.00    +0.000 A 
ATOM      9  C   UNL     1       1.243   8.929  19.851  0.00  0.00    +0.000 A 
ENDROOT
BRANCH   1  13
ATOM     10  C   UNL     1      -2.156  12.200  22.155  0.00  0.00    +0.000 A 
ATOM     11  C   UNL     1      -1.016  11.616  22.683  0.00  0.00    +0.000 A 
ATOM     12  C   UNL     1      -0.023  11.152  21.825  0.00  0.00    +0.000 A 
ATOM     13  C   UNL     1      -0.150  11.174  20.407  0.00  0.00    +0.000 A 
ATOM     14  C   UNL     1      -1.180  11.939  19.875  0.00  0.00    +0.000 A 
ATOM     15  C   UNL     1      -2.184  12.442  20.760  0.00  0.00    +0.000 A 
BRANCH  10  17
ATOM     16  C   UNL     1      -3.198  13.628  24.018  0.00  0.00    +0.000 C 
ATOM     17  C   UNL     1      -3.336  12.446  23.075  0.00  0.00    +0.000 C 
ENDBRANCH  10  17
ENDBRANCH   1  13
BRANCH   6  18
ATOM     18  C   UNL     1       3.720   5.468  18.819  0.00  0.00    +0.000 C 
ATOM     19  O   UNL     1       4.701   5.236  19.513  0.00  0.00    +0.000 OA
ATOM     20  N   UNL     1       3.425   4.757  17.643  0.00  0.00    +0.000 N 
ATOM     21  H   UNL     1       2.789   5.180  16.979  0.00  0.00    +0.000 HD
BRANCH  20  22
ATOM     22  C   UNL     1       4.267   3.699  17.094  0.00  0.00    +0.000 C 
BRANCH  22  23
ATOM     23  C   UNL     1       5.223   4.167  15.998  0.00  0.00    +0.000 A 
ATOM     24  C   UNL     1       6.343   4.973  16.295  0.00  0.00    +0.000 A 
ATOM     25  C   UNL     1       7.269   5.339  15.300  0.00  0.00    +0.000 A 
ATOM     26  C   UNL     1       7.111   4.903  13.981  0.00  0.00    +0.000 A 
ATOM     27  C   UNL     1       8.092   5.279  12.906  0.00  0.00    +0.000 C 
ATOM     28  C   UNL     1       6.001   4.091  13.682  0.00  0.00    +0.000 A 
ATOM     29  C   UNL     1       5.083   3.728  14.683  0.00  0.00    +0.000 A 
ENDBRANCH  22  23
ENDBRANCH  20  22
ENDBRANCH   6  18
TORSDOF 5
ENDMDL
MODEL 6
REMARK VINA RESULT:      -8.0      3.685      5.959
REMARK  Name = 
REMARK  7 active torsions:
REMARK  status: ('A' for Active; 'I' for Inactive)
REMARK    1  A    between atoms: C_1  and  C_2
REMARK    2  A    between atoms: C_2  and  C_3
REMARK    3  A    between atoms: C_6  and  N_7
REMARK    4  A    between atoms: C_12  and  C_13
REMARK    5  A    between atoms: N_15  and  C_16
REMARK    6  A    between atoms: C_16  and  C_17
REMARK    7  A    between atoms: C_20  and  C_21
REMARK                            x       y       z     vdW  Elec       q    Type
REMARK                         _______ _______ _______ _____ _____    ______ ____
ROOT
ATOM      1  N   UNL     1       0.988   9.255  19.687  0.00  0.00    +0.000 N 
ATOM      2  C   UNL     1       1.448  10.124  18.701  0.00  0.00    +0.000 A 
ATOM      3  N   UNL     1       2.034   9.538  17.705  0.00  0.00    +0.000 NA
ATOM      4  C   UNL     1       2.343   8.332  18.219  0.00  0.00    +0.000 A 
ATOM      5  C   UNL     1       3.214   7.446  17.587  0.00  0.00    +0.000 A 
ATOM      6  C   UNL     1       3.736   6.379  18.280  0.00  0.00    +0.000 A 
ATOM      7  C   UNL     1       3.180   6.093  19.548  0.00  0.00    +0.000 A 
ATOM      8  C   UNL     1       2.174   6.921  20.175  0.00  0.00    +0.000 A 
ATOM      9  C   UNL     1       1.807   8.113  19.507  0.00  0.00    +0.000 A 
ENDROOT
BRANCH   1  13
ATOM     10  C   UNL     1      -1.291  11.636  22.364  0.00  0.00    +0.000 A 
ATOM     11  C   UNL     1      -1.258  11.892  21.002  0.00  0.00    +0.000 A 
ATOM     12  C   UNL     1      -0.653  10.974  20.147  0.00  0.00    +0.000 A 
ATOM     13  C   UNL     1       0.012   9.803  20.609  0.00  0.00    +0.000 A 
ATOM     14  C   UNL     1      -0.198   9.436  21.931  0.00  0.00    +0.000 A 
ATOM     15  C   UNL     1      -0.846  10.366  22.804  0.00  0.00    +0.000 A 
BRANCH  10  17
ATOM     16  C   UNL     1      -1.007  14.088  23.070  0.00  0.00    +0.000 C 
ATOM     17  C   UNL     1      -1.698  12.756  23.300  0.00  0.00    +0.000 C 
ENDBRANCH  10  17
ENDBRANCH   1  13
BRANCH   6  18
ATOM     18  C   UNL     1       4.882   5.622  17.632  0.00  0.00    +0.000 C 
ATOM     19  O   UNL     1       5.139   4.476  17.975  0.00  0.00    +0.000 OA
ATOM     20  N   UNL     1       5.617   6.316  16.655  0.00  0.00    +0.000 N 
ATOM     21  H   UNL     1       5.544   7.325  16.634  0.00  0.00    +0.000 HD
BRANCH  20  22
ATOM     22  C   UNL     1       6.788   5.772  15.974  0.00  0.00    +0.000 C 
BRANCH  22  23
ATOM     23  C   UNL     1       6.462   4.986  14.704  0.00  0.00    +0.000 A 
ATOM     24  C   UNL     1       7.387   4.890  13.643  0.00  0.00    +0.000 A 
ATOM     25  C   UNL     1       7.123   4.101  12.508  0.00  0.00    +0.000 A 
ATOM     26  C   UNL     1       5.932   3.377  12.402  0.00  0.00    +0.000 A 
ATOM     27  C   UNL     1       5.633   2.525  11.200  0.00  0.00    +0.000 C 
ATOM     28  C   UNL     1       5.010   3.462  13.462  0.00  0.00    +0.000 A 
ATOM     29  C   UNL     1       5.284   4.251  14.593  0.00  0.00    +0.000 A 
ENDBRANCH  22  23
ENDBRANCH  20  22
ENDBRANCH   6  18
TORSDOF 5
ENDMDL
MODEL 7
REMARK VINA RESULT:      -8.0      2.330     10.475
REMARK  Name = 
REMARK  7 active torsions:
REMARK  status: ('A' for Active; 'I' for Inactive)
REMARK    1  A    between atoms: C_1  and  C_2
REMARK    2  A    between atoms: C_2  and  C_3
REMARK    3  A    between atoms: C_6  and  N_7
REMARK    4  A    between atoms: C_12  and  C_13
REMARK    5  A    between atoms: N_15  and  C_16
REMARK    6  A    between atoms: C_16  and  C_17
REMARK    7  A    between atoms: C_20  and  C_21
REMARK                            x       y       z     vdW  Elec       q    Type
REMARK                         _______ _______ _______ _____ _____    ______ ____
ROOT
ATOM      1  N   UNL     1       2.456   6.851  19.051  0.00  0.00    +0.000 N 
ATOM      2  C   UNL     1       2.505   6.066  20.200  0.00  0.00    +0.000 A 
ATOM      3  N   UNL     1       1.604   6.358  21.085  0.00  0.00    +0.000 NA
ATOM      4  C   UNL     1       1.231   7.600  20.719  0.00  0.00    +0.000 A 
ATOM      5  C   UNL     1       0.459   8.423  21.536  0.00  0.00    +0.000 A 
ATOM      6  C   UNL     1       0.364   9.769  21.267  0.00  0.00    +0.000 A 
ATOM      7  C   UNL     1       0.871  10.221  20.027  0.00  0.00    +0.000 A 
ATOM      8  C   UNL     1       1.561   9.359  19.094  0.00  0.00    +0.000 A 
ATOM      9  C   UNL     1       1.803   8.025  19.500  0.00  0.00    +0.000 A 
ENDROOT
BRANCH   1  13
ATOM     10  C   UNL     1       4.999   4.798  16.341  0.00  0.00    +0.000 A 
ATOM     11  C   UNL     1       3.926   4.173  16.956  0.00  0.00    +0.000 A 
ATOM     12  C   UNL     1       3.014   4.933  17.683  0.00  0.00    +0.000 A 
ATOM     13  C   UNL     1       3.167   6.332  17.899  0.00  0.00    +0.000 A 
ATOM     14  C   UNL     1       4.109   6.993  17.121  0.00  0.00    +0.000 A 
ATOM     15  C   UNL     1       5.026   6.214  16.349  0.00  0.00    +0.000 A 
BRANCH  10  17
ATOM     16  C   UNL     1       6.361   4.045  14.298  0.00  0.00    +0.000 C 
ATOM     17  C   UNL     1       6.121   3.938  15.793  0.00  0.00    +0.000 C 
ENDBRANCH  10  17
ENDBRANCH   1  13
BRANCH   6  18
ATOM     18  C   UNL     1      -0.253  10.650  22.339  0.00  0.00    +0.000 C 
ATOM     19  O   UNL     1      -0.512  10.191  23.443  0.00  0.00    +0.000 OA
ATOM     20  N   UNL     1      -0.517  11.982  21.978  0.00  0.00    +0.000 N 
ATOM     21  H   UNL     1      -0.555  12.210  20.993  0.00  0.00    +0.000 HD
BRANCH  20  22
ATOM     22  C   UNL     1      -1.164  12.953  22.855  0.00  0.00    +0.000 C 
BRANCH  22  23
ATOM     23  C   UNL     1      -2.690  12.955  22.767  0.00  0.00    +0.000 A 
ATOM     24  C   UNL     1      -3.354  12.807  21.532  0.00  0.00    +0.000 A 
ATOM     25  C   UNL     1      -4.757  12.727  21.457  0.00  0.00    +0.000 A 
ATOM     26  C   UNL     1      -5.539  12.782  22.614  0.00  0.00    +0.000 A 
ATOM     27  C   UNL     1      -7.039  12.694  22.556  0.00  0.00    +0.000 C 
ATOM     28  C   UNL     1      -4.881  12.920  23.851  0.00  0.00    +0.000 A 
ATOM     29  C   UNL     1      -3.479  12.996  23.916  0.00  0.00    +0.000 A 
ENDBRANCH  22  23
ENDBRANCH  20  22
ENDBRANCH   6  18
TORSDOF 5
ENDMDL
MODEL 8
REMARK VINA RESULT:      -8.0      3.026     10.920
REMARK  Name = 
REMARK  7 active torsions:
REMARK  status: ('A' for Active; 'I' for Inactive)
REMARK    1  A    between atoms: C_1  and  C_2
REMARK    2  A    between atoms: C_2  and  C_3
REMARK    3  A    between atoms: C_6  and  N_7
REMARK    4  A    between atoms: C_12  and  C_13
REMARK    5  A    between atoms: N_15  and  C_16
REMARK    6  A    between atoms: C_16  and  C_17
REMARK    7  A    between atoms: C_20  and  C_21
REMARK                            x       y       z     vdW  Elec       q    Type
REMARK                         _______ _______ _______ _____ _____    ______ ____
ROOT
ATOM      1  N   UNL     1       4.084   5.751  18.080  0.00  0.00    +0.000 N 
ATOM      2  C   UNL     1       4.224   5.161  19.333  0.00  0.00    +0.000 A 
ATOM      3  N   UNL     1       3.248   5.407  20.150  0.00  0.00    +0.000 NA
ATOM      4  C   UNL     1       2.675   6.494  19.597  0.00  0.00    +0.000 A 
ATOM      5  C   UNL     1       1.733   7.270  20.270  0.00  0.00    +0.000 A 
ATOM      6  C   UNL     1       1.410   8.523  19.802  0.00  0.00    +0.000 A 
ATOM      7  C   UNL     1       1.880   8.877  18.517  0.00  0.00    +0.000 A 
ATOM      8  C   UNL     1       2.754   8.031  17.734  0.00  0.00    +0.000 A 
ATOM      9  C   UNL     1       3.213   6.837  18.338  0.00  0.00    +0.000 A 
ENDROOT
BRANCH   1  13
ATOM     10  C   UNL     1       5.755   4.286  14.462  0.00  0.00    +0.000 A 
ATOM     11  C   UNL     1       5.501   5.634  14.659  0.00  0.00    +0.000 A 
ATOM     12  C   UNL     1       5.134   6.085  15.924  0.00  0.00    +0.000 A 
ATOM     13  C   UNL     1       4.926   5.211  17.030  0.00  0.00    +0.000 A 
ATOM     14  C   UNL     1       5.378   3.905  16.898  0.00  0.00    +0.000 A 
ATOM     15  C   UNL     1       5.784   3.450  15.604  0.00  0.00    +0.000 A 
BRANCH  10  17
ATOM     16  C   UNL     1       7.103   4.251  12.277  0.00  0.00    +0.000 C 
ATOM     17  C   UNL     1       5.881   3.774  13.041  0.00  0.00    +0.000 C 
ENDBRANCH  10  17
ENDBRANCH   1  13
BRANCH   6  18
ATOM     18  C   UNL     1       0.599   9.421  20.720  0.00  0.00    +0.000 C 
ATOM     19  O   UNL     1      -0.175   8.935  21.534  0.00  0.00    +0.000 OA
ATOM     20  N   UNL     1       0.780  10.805  20.561  0.00  0.00    +0.000 N 
ATOM     21  H   UNL     1       1.194  11.134  19.698  0.00  0.00    +0.000 HD
BRANCH  20  22
ATOM     22  C   UNL     1       0.041  11.817  21.309  0.00  0.00    +0.000 C 
BRANCH  22  23
ATOM     23  C   UNL     1      -1.402  12.009  20.842  0.00  0.00    +0.000 A 
ATOM     24  C   UNL     1      -2.386  12.545  21.699  0.00  0.00    +0.000 A 
ATOM     25  C   UNL     1      -3.695  12.797  21.248  0.00  0.00    +0.000 A 
ATOM     26  C   UNL     1      -4.059  12.532  19.925  0.00  0.00    +0.000 A 
ATOM     27  C   UNL     1      -5.450  12.799  19.422  0.00  0.00    +0.000 C 
ATOM     28  C   UNL     1      -3.078  12.006  19.063  0.00  0.00    +0.000 A 
ATOM     29  C   UNL     1      -1.772  11.760  19.522  0.00  0.00    +0.000 A 
ENDBRANCH  22  23
ENDBRANCH  20  22
ENDBRANCH   6  18
TORSDOF 5
ENDMDL
MODEL 9
REMARK VINA RESULT:      -7.9      0.456      1.050
REMARK  Name = 
REMARK  7 active torsions:
REMARK  status: ('A' for Active; 'I' for Inactive)
REMARK    1  A    between atoms: C_1  and  C_2
REMARK    2  A    between atoms: C_2  and  C_3
REMARK    3  A    between atoms: C_6  and  N_7
REMARK    4  A    between atoms: C_12  and  C_13
REMARK    5  A    between atoms: N_15  and  C_16
REMARK    6  A    between atoms: C_16  and  C_17
REMARK    7  A    between atoms: C_20  and  C_21
REMARK                            x       y       z     vdW  Elec       q    Type
REMARK                         _______ _______ _______ _____ _____    ______ ____
ROOT
ATOM      1  N   UNL     1      -1.803  12.171  22.256  0.00  0.00    +0.000 N 
ATOM      2  C   UNL     1      -1.353  11.260  23.209  0.00  0.00    +0.000 A 
ATOM      3  N   UNL     1      -0.230  10.686  22.909  0.00  0.00    +0.000 NA
ATOM      4  C   UNL     1      -0.147  10.889  21.580  0.00  0.00    +0.000 A 
ATOM      5  C   UNL     1       0.776  10.224  20.774  0.00  0.00    +0.000 A 
ATOM      6  C   UNL     1       0.625  10.225  19.407  0.00  0.00    +0.000 A 
ATOM      7  C   UNL     1      -0.338  11.103  18.860  0.00  0.00    +0.000 A 
ATOM      8  C   UNL     1      -1.223  11.909  19.670  0.00  0.00    +0.000 A 
ATOM      9  C   UNL     1      -1.160  11.731  21.073  0.00  0.00    +0.000 A 
ENDROOT
BRANCH   1  13
ATOM     10  C   UNL     1      -5.384  14.153  23.384  0.00  0.00    +0.000 A 
ATOM     11  C   UNL     1      -4.811  13.168  24.174  0.00  0.00    +0.000 A 
ATOM     12  C   UNL     1      -3.544  12.686  23.857  0.00  0.00    +0.000 A 
ATOM     13  C   UNL     1      -2.822  13.101  22.702  0.00  0.00    +0.000 A 
ATOM     14  C   UNL     1      -3.289  14.225  22.033  0.00  0.00    +0.000 A 
ATOM     15  C   UNL     1      -4.578  14.739  22.379  0.00  0.00    +0.000 A 
BRANCH  10  17
ATOM     16  C   UNL     1      -7.702  13.334  24.126  0.00  0.00    +0.000 C 
ATOM     17  C   UNL     1      -6.855  14.467  23.573  0.00  0.00    +0.000 C 
ENDBRANCH  10  17
ENDBRANCH   1  13
BRANCH   6  18
ATOM     18  C   UNL     1       1.490   9.262  18.612  0.00  0.00    +0.000 C 
ATOM     19  O   UNL     1       1.627   9.406  17.405  0.00  0.00    +0.000 OA
ATOM     20  N   UNL     1       2.085   8.214  19.334  0.00  0.00    +0.000 N 
ATOM     21  H   UNL     1       1.704   7.985  20.243  0.00  0.00    +0.000 HD
BRANCH  20  22
ATOM     22  C   UNL     1       2.893   7.160  18.728  0.00  0.00    +0.000 C 
BRANCH  22  23
ATOM     23  C   UNL     1       2.287   5.762  18.847  0.00  0.00    +0.000 A 
ATOM     24  C   UNL     1       2.266   4.875  17.750  0.00  0.00    +0.000 A 
ATOM     25  C   UNL     1       1.782   3.560  17.878  0.00  0.00    +0.000 A 
ATOM     26  C   UNL     1       1.314   3.087  19.107  0.00  0.00    +0.000 A 
ATOM     27  C   UNL     1       0.797   1.684  19.266  0.00  0.00    +0.000 C 
ATOM     28  C   UNL     1       1.342   3.964  20.207  0.00  0.00    +0.000 A 
ATOM     29  C   UNL     1       1.830   5.276  20.071  0.00  0.00    +0.000 A 
ENDBRANCH  22  23
ENDBRANCH  20  22
ENDBRANCH   6  18
TORSDOF 5
ENDMDL
