MODEL 1
REMARK VINA RESULT:      -7.8      0.000      0.000
REMARK  Name = 
REMARK  10 active torsions:
REMARK  status: ('A' for Active; 'I' for Inactive)
REMARK    1  A    between atoms: C_1  and  O_2
REMARK    2  A    between atoms: O_2  and  C_3
REMARK    3  A    between atoms: C_9  and  C_10
REMARK    4  A    between atoms: C_10  and  N_11
REMARK    5  A    between atoms: N_18  and  C_19
REMARK    6  A    between atoms: C_22  and  C_23
REMARK    7  A    between atoms: C_23  and  O_25
REMARK    8  A    between atoms: N_32  and  C_33
REMARK    9  A    between atoms: C_33  and  C_34
REMARK   10  A    between atoms: C_33  and  C_35
REMARK                            x       y       z     vdW  Elec       q    Type
REMARK                         _______ _______ _______ _____ _____    ______ ____
ROOT
ATOM      1  N   UNL     1      -0.762  12.551  20.784  0.00  0.00    +0.000 NA
ATOM      2  C   UNL     1       0.561  12.725  20.196  0.00  0.00    +0.000 C 
ATOM      3  C   UNL     1       1.396  11.446  20.170  0.00  0.00    +0.000 C 
ATOM      4  C   UNL     1       0.656  10.199  19.652  0.00  0.00    +0.000 C 
ATOM      5  C   UNL     1      -0.883  10.234  19.802  0.00  0.00    +0.000 C 
ATOM      6  C   UNL     1      -1.532  11.601  19.992  0.00  0.00    +0.000 C 
ATOM      7  C   UNL     1       1.144   8.929  20.343  0.00  0.00    +0.000 C 
ATOM      8  N   UNL     1       1.878   8.190  19.374  0.00  0.00    +0.000 N 
ATOM      9  C   UNL     1       1.874   8.871  18.169  0.00  0.00    +0.000 C 
ATOM     10  O   UNL     1       2.425   8.563  17.130  0.00  0.00    +0.000 OA
ATOM     11  O   UNL     1       1.055   9.983  18.274  0.00  0.00    +0.000 OA
ENDROOT
BRANCH   8  12
ATOM     12  C   UNL     1       2.341   6.874  19.651  0.00  0.00    +0.000 A 
ATOM     13  C   UNL     1       3.378   6.254  18.946  0.00  0.00    +0.000 A 
ATOM     14  C   UNL     1       3.735   4.921  19.230  0.00  0.00    +0.000 A 
ATOM     15  C   UNL     1       3.025   4.185  20.189  0.00  0.00    +0.000 A 
ATOM     16  C   UNL     1       2.042   4.804  20.936  0.00  0.00    +0.000 A 
ATOM     17  C   UNL     1       1.714   6.135  20.672  0.00  0.00    +0.000 A 
BRANCH  15  18
ATOM     18  C   UNL     1       3.346   2.757  20.416  0.00  0.00    +0.000 C 
ATOM     19  O   UNL     1       3.373   2.255  21.529  0.00  0.00    +0.000 OA
BRANCH  18  20
ATOM     20  O   UNL     1       3.637   2.089  19.277  0.00  0.00    +0.000 OA
ATOM     21  H   UNL     1       3.692   1.118  19.366  0.00  0.00    +0.000 HD
ENDBRANCH  18  20
ENDBRANCH  15  18
ENDBRANCH   8  12
BRANCH   1  22
ATOM     22  C   UNL     1      -0.780  12.371  22.247  0.00  0.00    +0.000 C 
BRANCH  22  29
ATOM     23  C   UNL     1      -5.529  13.080  22.782  0.00  0.00    +0.000 A 
ATOM     24  C   UNL     1      -5.783  14.182  23.590  0.00  0.00    +0.000 A 
ATOM     25  C   UNL     1      -4.748  15.013  23.997  0.00  0.00    +0.000 A 
ATOM     26  C   UNL     1      -3.432  14.665  23.660  0.00  0.00    +0.000 A 
ATOM     27  C   UNL     1      -3.116  13.507  22.935  0.00  0.00    +0.000 A 
ATOM     28  C   UNL     1      -4.203  12.725  22.460  0.00  0.00    +0.000 A 
ATOM     29  C   UNL     1      -1.672  13.420  22.886  0.00  0.00    +0.000 A 
ATOM     30  C   UNL     1      -1.200  14.529  23.574  0.00  0.00    +0.000 A 
ATOM     31  N   UNL     1      -2.250  15.316  23.949  0.00  0.00    +0.000 N 
BRANCH  31  32
ATOM     32  C   UNL     1      -2.180  16.638  24.578  0.00  0.00    +0.000 C 
ATOM     33  C   UNL     1      -1.568  16.556  25.976  0.00  0.00    +0.000 C 
ATOM     34  C   UNL     1      -1.460  17.699  23.741  0.00  0.00    +0.000 C 
ENDBRANCH  31  32
BRANCH  23  36
ATOM     35  C   UNL     1      -6.414  11.979  20.887  0.00  0.00    +0.000 C 
ATOM     36  O   UNL     1      -6.524  12.273  22.284  0.00  0.00    +0.000 OA
ENDBRANCH  23  36
ENDBRANCH  22  29
ENDBRANCH   1  22
TORSDOF 7
ENDMDL
MODEL 2
REMARK VINA RESULT:      -7.7      0.340      1.026
REMARK  Name = 
REMARK  10 active torsions:
REMARK  status: ('A' for Active; 'I' for Inactive)
REMARK    1  A    between atoms: C_1  and  O_2
REMARK    2  A    between atoms: O_2  and  C_3
REMARK    3  A    between atoms: C_9  and  C_10
REMARK    4  A    between atoms: C_10  and  N_11
REMARK    5  A    between atoms: N_18  and  C_19
REMARK    6  A    between atoms: C_22  and  C_23
REMARK    7  A    between atoms: C_23  and  O_25
REMARK    8  A    between atoms: N_32  and  C_33
REMARK    9  A    between atoms: C_33  and  C_34
REMARK   10  A    between atoms: C_33  and  C_35
REMARK                            x       y       z     vdW  Elec       q    Type
REMARK                         _______ _______ _______ _____ _____    ______ ____
ROOT
ATOM      1  N   UNL     1      -0.643  12.666  21.025  0.00  0.00    +0.000 NA
ATOM      2  C   UNL     1       0.719  12.786  20.517  0.00  0.00    +0.000 C 
ATOM      3  C   UNL     1       1.468  11.458  20.441  0.00  0.00    +0.000 C 
ATOM      4  C   UNL     1       0.677  10.303  19.799  0.00  0.00    +0.000 C 
ATOM      5  C   UNL     1      -0.862  10.434  19.876  0.00  0.00    +0.000 C 
ATOM      6  C   UNL     1      -1.429  11.827  20.130  0.00  0.00    +0.000 C 
ATOM      7  C   UNL     1       1.043   8.959  20.421  0.00  0.00    +0.000 C 
ATOM      8  N   UNL     1       1.778   8.238  19.440  0.00  0.00    +0.000 N 
ATOM      9  C   UNL     1       1.884   8.998  18.288  0.00  0.00    +0.000 C 
ATOM     10  O   UNL     1       2.469   8.723  17.257  0.00  0.00    +0.000 OA
ATOM     11  O   UNL     1       1.135  10.154  18.431  0.00  0.00    +0.000 OA
ENDROOT
BRANCH   8  12
ATOM     12  C   UNL     1       2.139   6.878  19.645  0.00  0.00    +0.000 A 
ATOM     13  C   UNL     1       1.598   6.078  20.657  0.00  0.00    +0.000 A 
ATOM     14  C   UNL     1       2.056   4.758  20.843  0.00  0.00    +0.000 A 
ATOM     15  C   UNL     1       3.091   4.247  20.048  0.00  0.00    +0.000 A 
ATOM     16  C   UNL     1       3.590   5.004  19.005  0.00  0.00    +0.000 A 
ATOM     17  C   UNL     1       3.110   6.299  18.805  0.00  0.00    +0.000 A 
BRANCH  15  18
ATOM     18  C   UNL     1       3.630   2.893  20.310  0.00  0.00    +0.000 C 
ATOM     19  O   UNL     1       4.281   2.269  19.486  0.00  0.00    +0.000 OA
BRANCH  18  20
ATOM     20  O   UNL     1       3.298   2.415  21.531  0.00  0.00    +0.000 OA
ATOM     21  H   UNL     1       2.425   1.980  21.584  0.00  0.00    +0.000 HD
ENDBRANCH  18  20
ENDBRANCH  15  18
ENDBRANCH   8  12
BRANCH   1  22
ATOM     22  C   UNL     1      -0.751  12.388  22.469  0.00  0.00    +0.000 C 
BRANCH  22  29
ATOM     23  C   UNL     1      -5.544  12.979  22.629  0.00  0.00    +0.000 A 
ATOM     24  C   UNL     1      -5.893  14.004  23.501  0.00  0.00    +0.000 A 
ATOM     25  C   UNL     1      -4.917  14.811  24.070  0.00  0.00    +0.000 A 
ATOM     26  C   UNL     1      -3.569  14.513  23.825  0.00  0.00    +0.000 A 
ATOM     27  C   UNL     1      -3.164  13.427  23.036  0.00  0.00    +0.000 A 
ATOM     28  C   UNL     1      -4.187  12.673  22.400  0.00  0.00    +0.000 A 
ATOM     29  C   UNL     1      -1.720  13.365  23.111  0.00  0.00    +0.000 A 
ATOM     30  C   UNL     1      -1.336  14.417  23.931  0.00  0.00    +0.000 A 
ATOM     31  N   UNL     1      -2.433  15.152  24.275  0.00  0.00    +0.000 N 
BRANCH  31  32
ATOM     32  C   UNL     1      -2.448  16.415  25.018  0.00  0.00    +0.000 C 
ATOM     33  C   UNL     1      -1.406  16.415  26.136  0.00  0.00    +0.000 C 
ATOM     34  C   UNL     1      -2.295  17.664  24.146  0.00  0.00    +0.000 C 
ENDBRANCH  31  32
BRANCH  23  36
ATOM     35  C   UNL     1      -6.691  12.559  20.606  0.00  0.00    +0.000 C 
ATOM     36  O   UNL     1      -6.473  12.205  21.975  0.00  0.00    +0.000 OA
ENDBRANCH  23  36
ENDBRANCH  22  29
ENDBRANCH   1  22
TORSDOF 7
ENDMDL
MODEL 3
REMARK VINA RESULT:      -7.6      1.595      3.249
REMARK  Name = 
REMARK  10 active torsions:
REMARK  status: ('A' for Active; 'I' for Inactive)
REMARK    1  A    between atoms: C_1  and  O_2
REMARK    2  A    between atoms: O_2  and  C_3
REMARK    3  A    between atoms: C_9  and  C_10
REMARK    4  A    between atoms: C_10  and  N_11
REMARK    5  A    between atoms: N_18  and  C_19
REMARK    6  A    between atoms: C_22  and  C_23
REMARK    7  A    between atoms: C_23  and  O_25
REMARK    8  A    between atoms: N_32  and  C_33
REMARK    9  A    between atoms: C_33  and  C_34
REMARK   10  A    between atoms: C_33  and  C_35
REMARK                            x       y       z     vdW  Elec       q    Type
REMARK                         _______ _______ _______ _____ _____    ______ ____
ROOT
ATOM      1  N   UNL     1      -0.925  12.537  20.724  0.00  0.00    +0.000 NA
ATOM      2  C   UNL     1       0.438  12.740  20.247  0.00  0.00    +0.000 C 
ATOM      3  C   UNL     1       1.284  11.469  20.240  0.00  0.00    +0.000 C 
ATOM      4  C   UNL     1       0.598  10.238  19.621  0.00  0.00    +0.000 C 
ATOM      5  C   UNL     1      -0.949  10.257  19.653  0.00  0.00    +0.000 C 
ATOM      6  C   UNL     1      -1.623  11.612  19.841  0.00  0.00    +0.000 C 
ATOM      7  C   UNL     1       1.042   8.946  20.301  0.00  0.00    +0.000 C 
ATOM      8  N   UNL     1       1.856   8.248  19.367  0.00  0.00    +0.000 N 
ATOM      9  C   UNL     1       1.939   8.973  18.190  0.00  0.00    +0.000 C 
ATOM     10  O   UNL     1       2.572   8.706  17.186  0.00  0.00    +0.000 OA
ATOM     11  O   UNL     1       1.104  10.075  18.271  0.00  0.00    +0.000 OA
ENDROOT
BRANCH   8  12
ATOM     12  C   UNL     1       2.309   6.926  19.631  0.00  0.00    +0.000 A 
ATOM     13  C   UNL     1       3.319   6.292  18.899  0.00  0.00    +0.000 A 
ATOM     14  C   UNL     1       3.666   4.954  19.173  0.00  0.00    +0.000 A 
ATOM     15  C   UNL     1       2.970   4.227  20.149  0.00  0.00    +0.000 A 
ATOM     16  C   UNL     1       2.014   4.858  20.921  0.00  0.00    +0.000 A 
ATOM     17  C   UNL     1       1.698   6.194  20.667  0.00  0.00    +0.000 A 
BRANCH  15  18
ATOM     18  C   UNL     1       3.277   2.795  20.367  0.00  0.00    +0.000 C 
ATOM     19  O   UNL     1       3.364   2.299  21.480  0.00  0.00    +0.000 OA
BRANCH  18  20
ATOM     20  O   UNL     1       3.484   2.114  19.217  0.00  0.00    +0.000 OA
ATOM     21  H   UNL     1       3.525   2.662  18.410  0.00  0.00    +0.000 HD
ENDBRANCH  18  20
ENDBRANCH  15  18
ENDBRANCH   8  12
BRANCH   1  22
ATOM     22  C   UNL     1      -1.055  12.303  22.174  0.00  0.00    +0.000 C 
BRANCH  22  29
ATOM     23  C   UNL     1      -1.662  16.113  25.082  0.00  0.00    +0.000 A 
ATOM     24  C   UNL     1      -2.998  16.493  25.136  0.00  0.00    +0.000 A 
ATOM     25  C   UNL     1      -3.979  15.713  24.541  0.00  0.00    +0.000 A 
ATOM     26  C   UNL     1      -3.589  14.587  23.802  0.00  0.00    +0.000 A 
ATOM     27  C   UNL     1      -2.246  14.220  23.631  0.00  0.00    +0.000 A 
ATOM     28  C   UNL     1      -1.273  14.990  24.323  0.00  0.00    +0.000 A 
ATOM     29  C   UNL     1      -2.228  13.095  22.722  0.00  0.00    +0.000 A 
ATOM     30  C   UNL     1      -3.555  12.841  22.403  0.00  0.00    +0.000 A 
ATOM     31  N   UNL     1      -4.365  13.670  23.123  0.00  0.00    +0.000 N 
BRANCH  31  32
ATOM     32  C   UNL     1      -5.829  13.640  23.180  0.00  0.00    +0.000 C 
ATOM     33  C   UNL     1      -6.434  13.396  21.798  0.00  0.00    +0.000 C 
ATOM     34  C   UNL     1      -6.402  12.649  24.196  0.00  0.00    +0.000 C 
ENDBRANCH  31  32
BRANCH  23  36
ATOM     35  C   UNL     1      -0.357  16.335  27.040  0.00  0.00    +0.000 C 
ATOM     36  O   UNL     1      -0.661  16.805  25.722  0.00  0.00    +0.000 OA
ENDBRANCH  23  36
ENDBRANCH  22  29
ENDBRANCH   1  22
TORSDOF 7
ENDMDL
MODEL 4
REMARK VINA RESULT:      -7.5      2.731     11.079
REMARK  Name = 
REMARK  10 active torsions:
REMARK  status: ('A' for Active; 'I' for Inactive)
REMARK    1  A    between atoms: C_1  and  O_2
REMARK    2  A    between atoms: O_2  and  C_3
REMARK    3  A    between atoms: C_9  and  C_10
REMARK    4  A    between atoms: C_10  and  N_11
REMARK    5  A    between atoms: N_18  and  C_19
REMARK    6  A    between atoms: C_22  and  C_23
REMARK    7  A    between atoms: C_23  and  O_25
REMARK    8  A    between atoms: N_32  and  C_33
REMARK    9  A    between atoms: C_33  and  C_34
REMARK   10  A    between atoms: C_33  and  C_35
REMARK                            x       y       z     vdW  Elec       q    Type
REMARK                         _______ _______ _______ _____ _____    ______ ____
ROOT
ATOM      1  N   UNL     1       1.989   8.873  18.024  0.00  0.00    +0.000 NA
ATOM      2  C   UNL     1       0.564   8.568  17.957  0.00  0.00    +0.000 C 
ATOM      3  C   UNL     1      -0.264   9.256  19.040  0.00  0.00    +0.000 C 
ATOM      4  C   UNL     1       0.032  10.755  19.229  0.00  0.00    +0.000 C 
ATOM      5  C   UNL     1       1.442  11.211  18.788  0.00  0.00    +0.000 C 
ATOM      6  C   UNL     1       2.197  10.301  17.824  0.00  0.00    +0.000 C 
ATOM      7  C   UNL     1      -0.142  11.183  20.683  0.00  0.00    +0.000 C 
ATOM      8  N   UNL     1      -1.310  11.993  20.737  0.00  0.00    +0.000 N 
ATOM      9  C   UNL     1      -1.852  12.112  19.469  0.00  0.00    +0.000 C 
ATOM     10  O   UNL     1      -2.865  12.697  19.136  0.00  0.00    +0.000 OA
ATOM     11  O   UNL     1      -1.010  11.505  18.552  0.00  0.00    +0.000 OA
ENDROOT
BRANCH   8  12
ATOM     12  C   UNL     1      -1.670  12.684  21.926  0.00  0.00    +0.000 A 
ATOM     13  C   UNL     1      -2.888  12.502  22.589  0.00  0.00    +0.000 A 
ATOM     14  C   UNL     1      -3.205  13.275  23.725  0.00  0.00    +0.000 A 
ATOM     15  C   UNL     1      -2.324  14.268  24.174  0.00  0.00    +0.000 A 
ATOM     16  C   UNL     1      -1.092  14.416  23.567  0.00  0.00    +0.000 A 
ATOM     17  C   UNL     1      -0.770  13.625  22.463  0.00  0.00    +0.000 A 
BRANCH  15  18
ATOM     18  C   UNL     1      -2.704  15.138  25.311  0.00  0.00    +0.000 C 
ATOM     19  O   UNL     1      -1.921  15.454  26.192  0.00  0.00    +0.000 OA
BRANCH  18  20
ATOM     20  O   UNL     1      -4.004  15.510  25.285  0.00  0.00    +0.000 OA
ATOM     21  H   UNL     1      -4.534  15.224  26.054  0.00  0.00    +0.000 HD
ENDBRANCH  18  20
ENDBRANCH  15  18
ENDBRANCH   8  12
BRANCH   1  22
ATOM     22  C   UNL     1       2.714   8.242  19.143  0.00  0.00    +0.000 C 
BRANCH  22  29
ATOM     23  C   UNL     1       5.122   5.407  16.060  0.00  0.00    +0.000 A 
ATOM     24  C   UNL     1       4.964   4.065  16.386  0.00  0.00    +0.000 A 
ATOM     25  C   UNL     1       4.070   3.679  17.375  0.00  0.00    +0.000 A 
ATOM     26  C   UNL     1       3.402   4.672  18.105  0.00  0.00    +0.000 A 
ATOM     27  C   UNL     1       3.606   6.043  17.884  0.00  0.00    +0.000 A 
ATOM     28  C   UNL     1       4.462   6.403  16.809  0.00  0.00    +0.000 A 
ATOM     29  C   UNL     1       2.850   6.751  18.894  0.00  0.00    +0.000 A 
ATOM     30  C   UNL     1       2.228   5.774  19.660  0.00  0.00    +0.000 A 
ATOM     31  N   UNL     1       2.484   4.544  19.127  0.00  0.00    +0.000 N 
BRANCH  31  32
ATOM     32  C   UNL     1       1.911   3.264  19.553  0.00  0.00    +0.000 C 
ATOM     33  C   UNL     1       1.456   3.316  21.010  0.00  0.00    +0.000 C 
ATOM     34  C   UNL     1       0.781   2.747  18.658  0.00  0.00    +0.000 C 
ENDBRANCH  31  32
BRANCH  23  36
ATOM     35  C   UNL     1       6.964   4.919  14.662  0.00  0.00    +0.000 C 
ATOM     36  O   UNL     1       5.932   5.838  15.035  0.00  0.00    +0.000 OA
ENDBRANCH  23  36
ENDBRANCH  22  29
ENDBRANCH   1  22
TORSDOF 7
ENDMDL
MODEL 5
REMARK VINA RESULT:      -7.5      3.309     11.105
REMARK  Name = 
REMARK  10 active torsions:
REMARK  status: ('A' for Active; 'I' for Inactive)
REMARK    1  A    between atoms: C_1  and  O_2
REMARK    2  A    between atoms: O_2  and  C_3
REMARK    3  A    between atoms: C_9  and  C_10
REMARK    4  A    between atoms: C_10  and  N_11
REMARK    5  A    between atoms: N_18  and  C_19
REMARK    6  A    between atoms: C_22  and  C_23
REMARK    7  A    between atoms: C_23  and  O_25
REMARK    8  A    between atoms: N_32  and  C_33
REMARK    9  A    between atoms: C_33  and  C_34
REMARK   10  A    between atoms: C_33  and  C_35
REMARK                            x       y       z     vdW  Elec       q    Type
REMARK                         _______ _______ _______ _____ _____    ______ ____
ROOT
ATOM      1  N   UNL     1       2.529   8.196  18.810  0.00  0.00    +0.000 NA
ATOM      2  C   UNL     1       2.723   9.524  18.237  0.00  0.00    +0.000 C 
ATOM      3  C   UNL     1       1.424  10.302  18.032  0.00  0.00    +0.000 C 
ATOM      4  C   UNL     1       0.465  10.290  19.237  0.00  0.00    +0.000 C 
ATOM      5  C   UNL     1       0.618   9.083  20.191  0.00  0.00    +0.000 C 
ATOM      6  C   UNL     1       1.933   8.314  20.134  0.00  0.00    +0.000 C 
ATOM      7  C   UNL     1      -0.994  10.326  18.792  0.00  0.00    +0.000 C 
ATOM      8  N   UNL     1      -1.497  11.611  19.134  0.00  0.00    +0.000 N 
ATOM      9  C   UNL     1      -0.502  12.350  19.751  0.00  0.00    +0.000 C 
ATOM     10  O   UNL     1      -0.556  13.499  20.148  0.00  0.00    +0.000 OA
ATOM     11  O   UNL     1       0.613  11.550  19.939  0.00  0.00    +0.000 OA
ENDROOT
BRANCH   8  12
ATOM     12  C   UNL     1      -2.878  11.920  18.995  0.00  0.00    +0.000 A 
ATOM     13  C   UNL     1      -3.639  12.534  19.996  0.00  0.00    +0.000 A 
ATOM     14  C   UNL     1      -5.021  12.745  19.813  0.00  0.00    +0.000 A 
ATOM     15  C   UNL     1      -5.657  12.300  18.647  0.00  0.00    +0.000 A 
ATOM     16  C   UNL     1      -4.908  11.750  17.625  0.00  0.00    +0.000 A 
ATOM     17  C   UNL     1      -3.535  11.573  17.799  0.00  0.00    +0.000 A 
BRANCH  15  18
ATOM     18  C   UNL     1      -7.124  12.442  18.502  0.00  0.00    +0.000 C 
ATOM     19  O   UNL     1      -7.651  12.850  17.478  0.00  0.00    +0.000 OA
BRANCH  18  20
ATOM     20  O   UNL     1      -7.805  12.109  19.622  0.00  0.00    +0.000 OA
ATOM     21  H   UNL     1      -7.468  12.509  20.448  0.00  0.00    +0.000 HD
ENDBRANCH  18  20
ENDBRANCH  15  18
ENDBRANCH   8  12
BRANCH   1  22
ATOM     22  C   UNL     1       1.938   7.200  17.897  0.00  0.00    +0.000 C 
BRANCH  22  29
ATOM     23  C   UNL     1       2.166   2.693  19.624  0.00  0.00    +0.000 A 
ATOM     24  C   UNL     1       3.210   1.985  19.039  0.00  0.00    +0.000 A 
ATOM     25  C   UNL     1       4.121   2.625  18.210  0.00  0.00    +0.000 A 
ATOM     26  C   UNL     1       3.914   3.976  17.898  0.00  0.00    +0.000 A 
ATOM     27  C   UNL     1       2.819   4.707  18.380  0.00  0.00    +0.000 A 
ATOM     28  C   UNL     1       1.952   4.047  19.292  0.00  0.00    +0.000 A 
ATOM     29  C   UNL     1       2.873   6.011  17.756  0.00  0.00    +0.000 A 
ATOM     30  C   UNL     1       3.997   5.998  16.942  0.00  0.00    +0.000 A 
ATOM     31  N   UNL     1       4.665   4.819  17.104  0.00  0.00    +0.000 N 
BRANCH  31  32
ATOM     32  C   UNL     1       5.964   4.457  16.530  0.00  0.00    +0.000 C 
ATOM     33  C   UNL     1       6.035   4.815  15.047  0.00  0.00    +0.000 C 
ATOM     34  C   UNL     1       7.169   5.034  17.278  0.00  0.00    +0.000 C 
ENDBRANCH  31  32
BRANCH  23  36
ATOM     35  C   UNL     1       1.460   2.541  21.874  0.00  0.00    +0.000 C 
ATOM     36  O   UNL     1       1.285   2.127  20.515  0.00  0.00    +0.000 OA
ENDBRANCH  23  36
ENDBRANCH  22  29
ENDBRANCH   1  22
TORSDOF 7
ENDMDL
MODEL 6
REMARK VINA RESULT:      -7.5      2.842      4.848
REMARK  Name = 
REMARK  10 active torsions:
REMARK  status: ('A' for Active; 'I' for Inactive)
REMARK    1  A    between atoms: C_1  and  O_2
REMARK    2  A    between atoms: O_2  and  C_3
REMARK    3  A    between atoms: C_9  and  C_10
REMARK    4  A    between atoms: C_10  and  N_11
REMARK    5  A    between atoms: N_18  and  C_19
REMARK    6  A    between atoms: C_22  and  C_23
REMARK    7  A    between atoms: C_23  and  O_25
REMARK    8  A    between atoms: N_32  and  C_33
REMARK    9  A    between atoms: C_33  and  C_34
REMARK   10  A    between atoms: C_33  and  C_35
REMARK                            x       y       z     vdW  Elec       q    Type
REMARK                         _______ _______ _______ _____ _____    ______ ____
ROOT
ATOM      1  N   UNL     1      -0.003  10.157  22.005  0.00  0.00    +0.000 NA
ATOM      2  C   UNL     1      -0.811   9.026  21.563  0.00  0.00    +0.000 C 
ATOM      3  C   UNL     1      -0.143   8.174  20.486  0.00  0.00    +0.000 C 
ATOM      4  C   UNL     1       1.323   7.802  20.771  0.00  0.00    +0.000 C 
ATOM      5  C   UNL     1       2.079   8.768  21.714  0.00  0.00    +0.000 C 
ATOM      6  C   UNL     1       1.234   9.673  22.604  0.00  0.00    +0.000 C 
ATOM      7  C   UNL     1       2.139   7.705  19.485  0.00  0.00    +0.000 C 
ATOM      8  N   UNL     1       2.427   6.327  19.284  0.00  0.00    +0.000 N 
ATOM      9  C   UNL     1       1.887   5.583  20.319  0.00  0.00    +0.000 C 
ATOM     10  O   UNL     1       1.903   4.376  20.465  0.00  0.00    +0.000 OA
ATOM     11  O   UNL     1       1.351   6.439  21.267  0.00  0.00    +0.000 OA
ENDROOT
BRANCH   8  12
ATOM     12  C   UNL     1       3.308   5.904  18.250  0.00  0.00    +0.000 A 
ATOM     13  C   UNL     1       3.326   4.606  17.731  0.00  0.00    +0.000 A 
ATOM     14  C   UNL     1       4.276   4.240  16.756  0.00  0.00    +0.000 A 
ATOM     15  C   UNL     1       5.244   5.160  16.331  0.00  0.00    +0.000 A 
ATOM     16  C   UNL     1       5.200   6.462  16.789  0.00  0.00    +0.000 A 
ATOM     17  C   UNL     1       4.236   6.827  17.730  0.00  0.00    +0.000 A 
BRANCH  15  18
ATOM     18  C   UNL     1       6.296   4.742  15.375  0.00  0.00    +0.000 C 
ATOM     19  O   UNL     1       6.295   3.651  14.826  0.00  0.00    +0.000 OA
BRANCH  18  20
ATOM     20  O   UNL     1       7.264   5.672  15.208  0.00  0.00    +0.000 OA
ATOM     21  H   UNL     1       6.977   6.496  14.769  0.00  0.00    +0.000 HD
ENDBRANCH  18  20
ENDBRANCH  15  18
ENDBRANCH   8  12
BRANCH   1  22
ATOM     22  C   UNL     1       0.111  11.262  21.036  0.00  0.00    +0.000 C 
BRANCH  22  29
ATOM     23  C   UNL     1      -2.661  10.651  17.126  0.00  0.00    +0.000 A 
ATOM     24  C   UNL     1      -3.927  11.190  17.321  0.00  0.00    +0.000 A 
ATOM     25  C   UNL     1      -4.209  11.942  18.454  0.00  0.00    +0.000 A 
ATOM     26  C   UNL     1      -3.222  12.066  19.443  0.00  0.00    +0.000 A 
ATOM     27  C   UNL     1      -1.964  11.454  19.340  0.00  0.00    +0.000 A 
ATOM     28  C   UNL     1      -1.678  10.763  18.132  0.00  0.00    +0.000 A 
ATOM     29  C   UNL     1      -1.271  11.699  20.586  0.00  0.00    +0.000 A 
ATOM     30  C   UNL     1      -2.142  12.450  21.365  0.00  0.00    +0.000 A 
ATOM     31  N   UNL     1      -3.262  12.745  20.643  0.00  0.00    +0.000 N 
BRANCH  31  32
ATOM     32  C   UNL     1      -4.364  13.623  21.047  0.00  0.00    +0.000 C 
ATOM     33  C   UNL     1      -5.444  12.848  21.801  0.00  0.00    +0.000 C 
ATOM     34  C   UNL     1      -3.931  14.853  21.849  0.00  0.00    +0.000 C 
ENDBRANCH  31  32
BRANCH  23  36
ATOM     35  C   UNL     1      -3.156  10.204  14.859  0.00  0.00    +0.000 C 
ATOM     36  O   UNL     1      -2.306   9.969  15.987  0.00  0.00    +0.000 OA
ENDBRANCH  23  36
ENDBRANCH  22  29
ENDBRANCH   1  22
TORSDOF 7
ENDMDL
MODEL 7
REMARK VINA RESULT:      -7.5      4.436     10.999
REMARK  Name = 
REMARK  10 active torsions:
REMARK  status: ('A' for Active; 'I' for Inactive)
REMARK    1  A    between atoms: C_1  and  O_2
REMARK    2  A    between atoms: O_2  and  C_3
REMARK    3  A    between atoms: C_9  and  C_10
REMARK    4  A    between atoms: C_10  and  N_11
REMARK    5  A    between atoms: N_18  and  C_19
REMARK    6  A    between atoms: C_22  and  C_23
REMARK    7  A    between atoms: C_23  and  O_25
REMARK    8  A    between atoms: N_32  and  C_33
REMARK    9  A    between atoms: C_33  and  C_34
REMARK   10  A    between atoms: C_33  and  C_35
REMARK                            x       y       z     vdW  Elec       q    Type
REMARK                         _______ _______ _______ _____ _____    ______ ____
ROOT
ATOM      1  N   UNL     1       0.826   8.701  19.262  0.00  0.00    +0.000 NA
ATOM      2  C   UNL     1      -0.182   9.527  19.919  0.00  0.00    +0.000 C 
ATOM      3  C   UNL     1       0.304  10.932  20.265  0.00  0.00    +0.000 C 
ATOM      4  C   UNL     1       1.044  11.661  19.128  0.00  0.00    +0.000 C 
ATOM      5  C   UNL     1       1.709  10.742  18.077  0.00  0.00    +0.000 C 
ATOM      6  C   UNL     1       1.204   9.306  17.991  0.00  0.00    +0.000 C 
ATOM      7  C   UNL     1       2.133  12.584  19.668  0.00  0.00    +0.000 C 
ATOM      8  N   UNL     1       1.684  13.917  19.457  0.00  0.00    +0.000 N 
ATOM      9  C   UNL     1       0.448  13.898  18.835  0.00  0.00    +0.000 C 
ATOM     10  O   UNL     1      -0.255  14.843  18.530  0.00  0.00    +0.000 OA
ATOM     11  O   UNL     1       0.115  12.592  18.515  0.00  0.00    +0.000 OA
ENDROOT
BRANCH   8  12
ATOM     12  C   UNL     1       2.536  15.027  19.708  0.00  0.00    +0.000 A 
ATOM     13  C   UNL     1       3.461  15.518  18.780  0.00  0.00    +0.000 A 
ATOM     14  C   UNL     1       4.323  16.579  19.125  0.00  0.00    +0.000 A 
ATOM     15  C   UNL     1       4.296  17.122  20.417  0.00  0.00    +0.000 A 
ATOM     16  C   UNL     1       3.347  16.689  21.323  0.00  0.00    +0.000 A 
ATOM     17  C   UNL     1       2.474  15.660  20.964  0.00  0.00    +0.000 A 
BRANCH  15  18
ATOM     18  C   UNL     1       5.268  18.172  20.801  0.00  0.00    +0.000 C 
ATOM     19  O   UNL     1       6.093  18.625  20.024  0.00  0.00    +0.000 OA
BRANCH  18  20
ATOM     20  O   UNL     1       5.166  18.543  22.098  0.00  0.00    +0.000 OA
ATOM     21  H   UNL     1       6.000  18.515  22.606  0.00  0.00    +0.000 HD
ENDBRANCH  18  20
ENDBRANCH  15  18
ENDBRANCH   8  12
BRANCH   1  22
ATOM     22  C   UNL     1       1.921   8.235  20.133  0.00  0.00    +0.000 C 
BRANCH  22  29
ATOM     23  C   UNL     1       5.187   6.151  17.246  0.00  0.00    +0.000 A 
ATOM     24  C   UNL     1       5.176   4.769  17.394  0.00  0.00    +0.000 A 
ATOM     25  C   UNL     1       4.200   4.148  18.161  0.00  0.00    +0.000 A 
ATOM     26  C   UNL     1       3.284   4.946  18.861  0.00  0.00    +0.000 A 
ATOM     27  C   UNL     1       3.318   6.348  18.827  0.00  0.00    +0.000 A 
ATOM     28  C   UNL     1       4.275   6.950  17.967  0.00  0.00    +0.000 A 
ATOM     29  C   UNL     1       2.313   6.818  19.755  0.00  0.00    +0.000 A 
ATOM     30  C   UNL     1       1.725   5.680  20.289  0.00  0.00    +0.000 A 
ATOM     31  N   UNL     1       2.241   4.571  19.683  0.00  0.00    +0.000 N 
BRANCH  31  32
ATOM     32  C   UNL     1       1.801   3.185  19.861  0.00  0.00    +0.000 C 
ATOM     33  C   UNL     1       1.297   2.940  21.282  0.00  0.00    +0.000 C 
ATOM     34  C   UNL     1       0.764   2.714  18.838  0.00  0.00    +0.000 C 
ENDBRANCH  31  32
BRANCH  23  36
ATOM     35  C   UNL     1       7.137   7.481  17.128  0.00  0.00    +0.000 C 
ATOM     36  O   UNL     1       6.080   6.810  16.434  0.00  0.00    +0.000 OA
ENDBRANCH  23  36
ENDBRANCH  22  29
ENDBRANCH   1  22
TORSDOF 7
ENDMDL
MODEL 8
REMARK VINA RESULT:      -7.4      3.721      5.975
REMARK  Name = 
REMARK  10 active torsions:
REMARK  status: ('A' for Active; 'I' for Inactive)
REMARK    1  A    between atoms: C_1  and  O_2
REMARK    2  A    between atoms: O_2  and  C_3
REMARK    3  A    between atoms: C_9  and  C_10
REMARK    4  A    between atoms: C_10  and  N_11
REMARK    5  A    between atoms: N_18  and  C_19
REMARK    6  A    between atoms: C_22  and  C_23
REMARK    7  A    between atoms: C_23  and  O_25
REMARK    8  A    between atoms: N_32  and  C_33
REMARK    9  A    between atoms: C_33  and  C_34
REMARK   10  A    between atoms: C_33  and  C_35
REMARK                            x       y       z     vdW  Elec       q    Type
REMARK                         _______ _______ _______ _____ _____    ______ ____
ROOT
ATOM      1  N   UNL     1      -0.497  12.475  20.011  0.00  0.00    +0.000 NA
ATOM      2  C   UNL     1      -1.289  11.256  20.134  0.00  0.00    +0.000 C 
ATOM      3  C   UNL     1      -0.620  10.024  19.529  0.00  0.00    +0.000 C 
ATOM      4  C   UNL     1       0.858   9.834  19.914  0.00  0.00    +0.000 C 
ATOM      5  C   UNL     1       1.609  11.126  20.315  0.00  0.00    +0.000 C 
ATOM      6  C   UNL     1       0.759  12.321  20.733  0.00  0.00    +0.000 C 
ATOM      7  C   UNL     1       1.654   9.187  18.785  0.00  0.00    +0.000 C 
ATOM      8  N   UNL     1       1.968   7.865  19.208  0.00  0.00    +0.000 N 
ATOM      9  C   UNL     1       1.460   7.650  20.477  0.00  0.00    +0.000 C 
ATOM     10  O   UNL     1       1.504   6.632  21.141  0.00  0.00    +0.000 OA
ATOM     11  O   UNL     1       0.922   8.831  20.961  0.00  0.00    +0.000 OA
ENDROOT
BRANCH   8  12
ATOM     12  C   UNL     1       2.841   7.039  18.447  0.00  0.00    +0.000 A 
ATOM     13  C   UNL     1       3.943   7.526  17.735  0.00  0.00    +0.000 A 
ATOM     14  C   UNL     1       4.722   6.656  16.946  0.00  0.00    +0.000 A 
ATOM     15  C   UNL     1       4.374   5.304  16.826  0.00  0.00    +0.000 A 
ATOM     16  C   UNL     1       3.327   4.797  17.572  0.00  0.00    +0.000 A 
ATOM     17  C   UNL     1       2.579   5.658  18.377  0.00  0.00    +0.000 A 
BRANCH  15  18
ATOM     18  C   UNL     1       5.142   4.417  15.922  0.00  0.00    +0.000 C 
ATOM     19  O   UNL     1       5.363   4.695  14.754  0.00  0.00    +0.000 OA
BRANCH  18  20
ATOM     20  O   UNL     1       5.535   3.265  16.513  0.00  0.00    +0.000 OA
ATOM     21  H   UNL     1       5.068   3.042  17.341  0.00  0.00    +0.000 HD
ENDBRANCH  18  20
ENDBRANCH  15  18
ENDBRANCH   8  12
BRANCH   1  22
ATOM     22  C   UNL     1      -0.421  13.040  18.650  0.00  0.00    +0.000 C 
BRANCH  22  29
ATOM     23  C   UNL     1       3.999  14.917  18.124  0.00  0.00    +0.000 A 
ATOM     24  C   UNL     1       3.959  16.307  18.149  0.00  0.00    +0.000 A 
ATOM     25  C   UNL     1       2.784  16.974  18.466  0.00  0.00    +0.000 A 
ATOM     26  C   UNL     1       1.616  16.225  18.665  0.00  0.00    +0.000 A 
ATOM     27  C   UNL     1       1.582  14.827  18.549  0.00  0.00    +0.000 A 
ATOM     28  C   UNL     1       2.818  14.169  18.307  0.00  0.00    +0.000 A 
ATOM     29  C   UNL     1       0.201  14.423  18.700  0.00  0.00    +0.000 A 
ATOM     30  C   UNL     1      -0.517  15.593  18.907  0.00  0.00    +0.000 A 
ATOM     31  N   UNL     1       0.342  16.651  18.980  0.00  0.00    +0.000 N 
BRANCH  31  32
ATOM     32  C   UNL     1       0.006  18.036  19.318  0.00  0.00    +0.000 C 
ATOM     33  C   UNL     1      -0.982  18.629  18.314  0.00  0.00    +0.000 C 
ATOM     34  C   UNL     1      -0.503  18.234  20.748  0.00  0.00    +0.000 C 
ENDBRANCH  31  32
BRANCH  23  36
ATOM     35  C   UNL     1       6.338  15.004  17.796  0.00  0.00    +0.000 C 
ATOM     36  O   UNL     1       5.154  14.207  17.896  0.00  0.00    +0.000 OA
ENDBRANCH  23  36
ENDBRANCH  22  29
ENDBRANCH   1  22
TORSDOF 7
ENDMDL
MODEL 9
REMARK VINA RESULT:      -7.4      1.642      3.346
REMARK  Name = 
REMARK  10 active torsions:
REMARK  status: ('A' for Active; 'I' for Inactive)
REMARK    1  A    between atoms: C_1  and  O_2
REMARK    2  A    between atoms: O_2  and  C_3
REMARK    3  A    between atoms: C_9  and  C_10
REMARK    4  A    between atoms: C_10  and  N_11
REMARK    5  A    between atoms: N_18  and  C_19
REMARK    6  A    between atoms: C_22  and  C_23
REMARK    7  A    between atoms: C_23  and  O_25
REMARK    8  A    between atoms: N_32  and  C_33
REMARK    9  A    between atoms: C_33  and  C_34
REMARK   10  A    between atoms: C_33  and  C_35
REMARK                            x       y       z     vdW  Elec       q    Type
REMARK                         _______ _______ _______ _____ _____    ______ ____
ROOT
ATOM      1  N   UNL     1      -1.170  12.596  20.667  0.00  0.00    +0.000 NA
ATOM      2  C   UNL     1       0.251  12.795  20.406  0.00  0.00    +0.000 C 
ATOM      3  C   UNL     1       1.056  11.498  20.361  0.00  0.00    +0.000 C 
ATOM      4  C   UNL     1       0.431  10.376  19.513  0.00  0.00    +0.000 C 
ATOM      5  C   UNL     1      -1.104  10.457  19.338  0.00  0.00    +0.000 C 
ATOM      6  C   UNL     1      -1.762  11.808  19.594  0.00  0.00    +0.000 C 
ATOM      7  C   UNL     1       0.743   8.997  20.087  0.00  0.00    +0.000 C 
ATOM      8  N   UNL     1       1.660   8.378  19.194  0.00  0.00    +0.000 N 
ATOM      9  C   UNL     1       1.924   9.228  18.135  0.00  0.00    +0.000 C 
ATOM     10  O   UNL     1       2.683   9.052  17.200  0.00  0.00    +0.000 OA
ATOM     11  O   UNL     1       1.115  10.348  18.233  0.00  0.00    +0.000 OA
ENDROOT
BRANCH   8  12
ATOM     12  C   UNL     1       2.037   7.016  19.357  0.00  0.00    +0.000 A 
ATOM     13  C   UNL     1       1.992   6.341  20.582  0.00  0.00    +0.000 A 
ATOM     14  C   UNL     1       2.448   5.011  20.680  0.00  0.00    +0.000 A 
ATOM     15  C   UNL     1       2.998   4.366  19.564  0.00  0.00    +0.000 A 
ATOM     16  C   UNL     1       2.992   4.998  18.336  0.00  0.00    +0.000 A 
ATOM     17  C   UNL     1       2.508   6.303  18.237  0.00  0.00    +0.000 A 
BRANCH  15  18
ATOM     18  C   UNL     1       3.561   3.002  19.697  0.00  0.00    +0.000 C 
ATOM     19  O   UNL     1       4.705   2.793  20.069  0.00  0.00    +0.000 OA
BRANCH  18  20
ATOM     20  O   UNL     1       2.693   2.030  19.334  0.00  0.00    +0.000 OA
ATOM     21  H   UNL     1       2.700   1.234  19.899  0.00  0.00    +0.000 HD
ENDBRANCH  18  20
ENDBRANCH  15  18
ENDBRANCH   8  12
BRANCH   1  22
ATOM     22  C   UNL     1      -1.505  12.202  22.048  0.00  0.00    +0.000 C 
BRANCH  22  29
ATOM     23  C   UNL     1      -2.614  15.920  24.929  0.00  0.00    +0.000 A 
ATOM     24  C   UNL     1      -3.970  16.216  24.863  0.00  0.00    +0.000 A 
ATOM     25  C   UNL     1      -4.843  15.387  24.172  0.00  0.00    +0.000 A 
ATOM     26  C   UNL     1      -4.317  14.299  23.460  0.00  0.00    +0.000 A 
ATOM     27  C   UNL     1      -2.943  14.018  23.410  0.00  0.00    +0.000 A 
ATOM     28  C   UNL     1      -2.088  14.835  24.197  0.00  0.00    +0.000 A 
ATOM     29  C   UNL     1      -2.771  12.911  22.494  0.00  0.00    +0.000 A 
ATOM     30  C   UNL     1      -4.045  12.582  22.051  0.00  0.00    +0.000 A 
ATOM     31  N   UNL     1      -4.968  13.348  22.702  0.00  0.00    +0.000 N 
BRANCH  31  32
ATOM     32  C   UNL     1      -6.426  13.226  22.623  0.00  0.00    +0.000 C 
ATOM     33  C   UNL     1      -6.850  12.396  21.412  0.00  0.00    +0.000 C 
ATOM     34  C   UNL     1      -7.086  12.689  23.896  0.00  0.00    +0.000 C 
ENDBRANCH  31  32
BRANCH  23  36
ATOM     35  C   UNL     1      -0.798  15.888  26.441  0.00  0.00    +0.000 C 
ATOM     36  O   UNL     1      -1.721  16.661  25.666  0.00  0.00    +0.000 OA
ENDBRANCH  23  36
ENDBRANCH  22  29
ENDBRANCH   1  22
TORSDOF 7
ENDMDL
