MODEL 1
REMARK VINA RESULT:      -9.6      0.000      0.000
REMARK  Name = 
REMARK  2 active torsions:
REMARK  status: ('A' for Active; 'I' for Inactive)
REMARK    1  A    between atoms: N_18  and  C_19
REMARK    2  A    between atoms: C_19  and  C_20
REMARK                            x       y       z     vdW  Elec       q    Type
REMARK                         _______ _______ _______ _____ _____    ______ ____
ROOT
ATOM      1  O   UNL     1       2.456   9.233  17.600  0.00  0.00    +0.000 OA
ATOM      2  C   UNL     1       2.120   8.568  18.581  0.00  0.00    +0.000 A 
ATOM      3  C   UNL     1       1.243   9.193  19.593  0.00  0.00    +0.000 A 
ATOM      4  C   UNL     1       0.800  10.514  19.449  0.00  0.00    +0.000 A 
ATOM      5  C   UNL     1      -0.020  11.079  20.427  0.00  0.00    +0.000 A 
ATOM      6  C   UNL     1      -0.394  10.328  21.538  0.00  0.00    +0.000 A 
ATOM      7  C   UNL     1       0.048   9.008  21.670  0.00  0.00    +0.000 A 
ATOM      8  C   UNL     1       0.869   8.430  20.697  0.00  0.00    +0.000 A 
ATOM      9  N   UNL     1       1.276   7.102  20.868  0.00  0.00    +0.000 NA
ATOM     10  C   UNL     1       2.044   6.567  19.968  0.00  0.00    +0.000 A 
ATOM     11  C   UNL     1       2.477   5.167  20.129  0.00  0.00    +0.000 A 
ATOM     12  C   UNL     1       2.093   4.432  21.262  0.00  0.00    +0.000 A 
ATOM     13  C   UNL     1       2.520   3.115  21.422  0.00  0.00    +0.000 A 
ATOM     14  C   UNL     1       3.334   2.530  20.458  0.00  0.00    +0.000 A 
ATOM     15  C   UNL     1       3.718   3.260  19.330  0.00  0.00    +0.000 A 
ATOM     16  C   UNL     1       3.279   4.582  19.157  0.00  0.00    +0.000 A 
ATOM     17  C   UNL     1       3.681   5.415  17.993  0.00  0.00    +0.000 A 
ATOM     18  N   UNL     1       4.442   4.848  16.994  0.00  0.00    +0.000 N 
ATOM     19  N   UNL     1       3.313   6.660  17.891  0.00  0.00    +0.000 NA
ATOM     20  N   UNL     1       2.495   7.242  18.842  0.00  0.00    +0.000 N 
ATOM     21  H   UNL     1       4.587   3.850  16.953  0.00  0.00    +0.000 HD
ENDROOT
BRANCH  18  22
ATOM     22  C   UNL     1       5.408   5.577  16.191  0.00  0.00    +0.000 C 
BRANCH  22  23
ATOM     23  C   UNL     1       6.463   6.249  17.013  0.00  0.00    +0.000 A 
ATOM     24  C   UNL     1       7.263   5.830  18.057  0.00  0.00    +0.000 A 
ATOM     25  C   UNL     1       8.067   6.934  18.420  0.00  0.00    +0.000 A 
ATOM     26  C   UNL     1       7.714   7.960  17.577  0.00  0.00    +0.000 A 
ATOM     27  O   UNL     1       6.744   7.555  16.714  0.00  0.00    +0.000 OA
ENDBRANCH  22  23
ENDBRANCH  18  22
TORSDOF 2
ENDMDL
MODEL 2
REMARK VINA RESULT:      -9.2      1.357      2.077
REMARK  Name = 
REMARK  2 active torsions:
REMARK  status: ('A' for Active; 'I' for Inactive)
REMARK    1  A    between atoms: N_18  and  C_19
REMARK    2  A    between atoms: C_19  and  C_20
REMARK                            x       y       z     vdW  Elec       q    Type
REMARK                         _______ _______ _______ _____ _____    ______ ____
ROOT
ATOM      1  O   UNL     1       2.446   9.298  17.613  0.00  0.00    +0.000 OA
ATOM      2  C   UNL     1       2.140   8.597  18.580  0.00  0.00    +0.000 A 
ATOM      3  C   UNL     1       1.259   9.170  19.619  0.00  0.00    +0.000 A 
ATOM      4  C   UNL     1       0.782  10.483  19.518  0.00  0.00    +0.000 A 
ATOM      5  C   UNL     1      -0.041  10.999  20.521  0.00  0.00    +0.000 A 
ATOM      6  C   UNL     1      -0.381  10.207  21.615  0.00  0.00    +0.000 A 
ATOM      7  C   UNL     1       0.096   8.897  21.704  0.00  0.00    +0.000 A 
ATOM      8  C   UNL     1       0.919   8.367  20.705  0.00  0.00    +0.000 A 
ATOM      9  N   UNL     1       1.362   7.046  20.834  0.00  0.00    +0.000 NA
ATOM     10  C   UNL     1       2.132   6.556  19.910  0.00  0.00    +0.000 A 
ATOM     11  C   UNL     1       2.603   5.164  20.026  0.00  0.00    +0.000 A 
ATOM     12  C   UNL     1       2.252   4.388  21.142  0.00  0.00    +0.000 A 
ATOM     13  C   UNL     1       2.715   3.079  21.260  0.00  0.00    +0.000 A 
ATOM     14  C   UNL     1       3.531   2.543  20.269  0.00  0.00    +0.000 A 
ATOM     15  C   UNL     1       3.882   3.313  19.158  0.00  0.00    +0.000 A 
ATOM     16  C   UNL     1       3.407   4.628  19.028  0.00  0.00    +0.000 A 
ATOM     17  C   UNL     1       3.773   5.503  17.883  0.00  0.00    +0.000 A 
ATOM     18  N   UNL     1       4.535   4.984  16.859  0.00  0.00    +0.000 N 
ATOM     19  N   UNL     1       3.371   6.741  17.821  0.00  0.00    +0.000 NA
ATOM     20  N   UNL     1       2.552   7.275  18.798  0.00  0.00    +0.000 N 
ATOM     21  H   UNL     1       4.706   3.992  16.788  0.00  0.00    +0.000 HD
ENDROOT
BRANCH  18  22
ATOM     22  C   UNL     1       5.473   5.761  16.066  0.00  0.00    +0.000 C 
BRANCH  22  23
ATOM     23  C   UNL     1       5.935   5.040  14.839  0.00  0.00    +0.000 A 
ATOM     24  C   UNL     1       5.416   3.997  14.098  0.00  0.00    +0.000 A 
ATOM     25  C   UNL     1       6.323   3.761  13.039  0.00  0.00    +0.000 A 
ATOM     26  C   UNL     1       7.340   4.673  13.193  0.00  0.00    +0.000 A 
ATOM     27  O   UNL     1       7.113   5.460  14.280  0.00  0.00    +0.000 OA
ENDBRANCH  22  23
ENDBRANCH  18  22
TORSDOF 2
ENDMDL
MODEL 3
REMARK VINA RESULT:      -9.0      2.356      4.861
REMARK  Name = 
REMARK  2 active torsions:
REMARK  status: ('A' for Active; 'I' for Inactive)
REMARK    1  A    between atoms: N_18  and  C_19
REMARK    2  A    between atoms: C_19  and  C_20
REMARK                            x       y       z     vdW  Elec       q    Type
REMARK                         _______ _______ _______ _____ _____    ______ ____
ROOT
ATOM      1  O   UNL     1       2.024   6.310  21.015  0.00  0.00    +0.000 OA
ATOM      2  C   UNL     1       2.402   6.757  19.931  0.00  0.00    +0.000 A 
ATOM      3  C   UNL     1       1.892   8.072  19.491  0.00  0.00    +0.000 A 
ATOM      4  C   UNL     1       0.993   8.800  20.280  0.00  0.00    +0.000 A 
ATOM      5  C   UNL     1       0.521  10.035  19.833  0.00  0.00    +0.000 A 
ATOM      6  C   UNL     1       0.946  10.536  18.605  0.00  0.00    +0.000 A 
ATOM      7  C   UNL     1       1.847   9.805  17.826  0.00  0.00    +0.000 A 
ATOM      8  C   UNL     1       2.328   8.567  18.264  0.00  0.00    +0.000 A 
ATOM      9  N   UNL     1       3.238   7.878  17.454  0.00  0.00    +0.000 NA
ATOM     10  C   UNL     1       3.680   6.726  17.857  0.00  0.00    +0.000 A 
ATOM     11  C   UNL     1       4.644   5.989  17.019  0.00  0.00    +0.000 A 
ATOM     12  C   UNL     1       5.051   6.511  15.781  0.00  0.00    +0.000 A 
ATOM     13  C   UNL     1       5.947   5.804  14.982  0.00  0.00    +0.000 A 
ATOM     14  C   UNL     1       6.433   4.574  15.411  0.00  0.00    +0.000 A 
ATOM     15  C   UNL     1       6.029   4.052  16.642  0.00  0.00    +0.000 A 
ATOM     16  C   UNL     1       5.138   4.767  17.457  0.00  0.00    +0.000 A 
ATOM     17  C   UNL     1       4.650   4.246  18.762  0.00  0.00    +0.000 A 
ATOM     18  N   UNL     1       5.154   3.056  19.239  0.00  0.00    +0.000 N 
ATOM     19  N   UNL     1       3.772   4.900  19.467  0.00  0.00    +0.000 NA
ATOM     20  N   UNL     1       3.293   6.128  19.050  0.00  0.00    +0.000 N 
ATOM     21  H   UNL     1       5.959   2.622  18.811  0.00  0.00    +0.000 HD
ENDROOT
BRANCH  18  22
ATOM     22  C   UNL     1       4.406   2.127  20.069  0.00  0.00    +0.000 C 
BRANCH  22  23
ATOM     23  C   UNL     1       2.925   2.302  19.952  0.00  0.00    +0.000 A 
ATOM     24  C   UNL     1       2.014   2.042  18.948  0.00  0.00    +0.000 A 
ATOM     25  C   UNL     1       0.746   2.428  19.440  0.00  0.00    +0.000 A 
ATOM     26  C   UNL     1       0.955   2.899  20.714  0.00  0.00    +0.000 A 
ATOM     27  O   UNL     1       2.274   2.824  21.039  0.00  0.00    +0.000 OA
ENDBRANCH  22  23
ENDBRANCH  18  22
TORSDOF 2
ENDMDL
MODEL 4
REMARK VINA RESULT:      -8.7      3.508      5.584
REMARK  Name = 
REMARK  2 active torsions:
REMARK  status: ('A' for Active; 'I' for Inactive)
REMARK    1  A    between atoms: N_18  and  C_19
REMARK    2  A    between atoms: C_19  and  C_20
REMARK                            x       y       z     vdW  Elec       q    Type
REMARK                         _______ _______ _______ _____ _____    ______ ____
ROOT
ATOM      1  O   UNL     1       3.992   5.940  20.177  0.00  0.00    +0.000 OA
ATOM      2  C   UNL     1       3.871   5.228  19.179  0.00  0.00    +0.000 A 
ATOM      3  C   UNL     1       2.759   4.256  19.133  0.00  0.00    +0.000 A 
ATOM      4  C   UNL     1       1.860   4.135  20.201  0.00  0.00    +0.000 A 
ATOM      5  C   UNL     1       0.826   3.201  20.133  0.00  0.00    +0.000 A 
ATOM      6  C   UNL     1       0.693   2.394  19.005  0.00  0.00    +0.000 A 
ATOM      7  C   UNL     1       1.592   2.524  17.943  0.00  0.00    +0.000 A 
ATOM      8  C   UNL     1       2.632   3.458  17.998  0.00  0.00    +0.000 A 
ATOM      9  N   UNL     1       3.499   3.560  16.905  0.00  0.00    +0.000 NA
ATOM     10  C   UNL     1       4.469   4.422  16.959  0.00  0.00    +0.000 A 
ATOM     11  C   UNL     1       5.388   4.547  15.813  0.00  0.00    +0.000 A 
ATOM     12  C   UNL     1       5.239   3.716  14.691  0.00  0.00    +0.000 A 
ATOM     13  C   UNL     1       6.121   3.822  13.617  0.00  0.00    +0.000 A 
ATOM     14  C   UNL     1       7.156   4.751  13.662  0.00  0.00    +0.000 A 
ATOM     15  C   UNL     1       7.307   5.577  14.779  0.00  0.00    +0.000 A 
ATOM     16  C   UNL     1       6.412   5.484  15.856  0.00  0.00    +0.000 A 
ATOM     17  C   UNL     1       6.543   6.317  17.081  0.00  0.00    +0.000 A 
ATOM     18  N   UNL     1       7.524   7.282  17.134  0.00  0.00    +0.000 N 
ATOM     19  N   UNL     1       5.738   6.163  18.094  0.00  0.00    +0.000 NA
ATOM     20  N   UNL     1       4.702   5.249  18.050  0.00  0.00    +0.000 N 
ATOM     21  H   UNL     1       8.039   7.548  16.307  0.00  0.00    +0.000 HD
ENDROOT
BRANCH  18  22
ATOM     22  C   UNL     1       8.193   7.701  18.354  0.00  0.00    +0.000 C 
BRANCH  22  23
ATOM     23  C   UNL     1       8.528   9.159  18.365  0.00  0.00    +0.000 A 
ATOM     24  C   UNL     1       8.198  10.216  17.541  0.00  0.00    +0.000 A 
ATOM     25  C   UNL     1       8.828  11.362  18.077  0.00  0.00    +0.000 A 
ATOM     26  C   UNL     1       9.503  10.940  19.198  0.00  0.00    +0.000 A 
ATOM     27  O   UNL     1       9.325   9.604  19.387  0.00  0.00    +0.000 OA
ENDBRANCH  22  23
ENDBRANCH  18  22
TORSDOF 2
ENDMDL
MODEL 5
REMARK VINA RESULT:      -8.6      1.725      6.578
REMARK  Name = 
REMARK  2 active torsions:
REMARK  status: ('A' for Active; 'I' for Inactive)
REMARK    1  A    between atoms: N_18  and  C_19
REMARK    2  A    between atoms: C_19  and  C_20
REMARK                            x       y       z     vdW  Elec       q    Type
REMARK                         _______ _______ _______ _____ _____    ______ ____
ROOT
ATOM      1  O   UNL     1       4.789   7.697  16.790  0.00  0.00    +0.000 OA
ATOM      2  C   UNL     1       4.581   6.489  16.919  0.00  0.00    +0.000 A 
ATOM      3  C   UNL     1       5.253   5.552  15.996  0.00  0.00    +0.000 A 
ATOM      4  C   UNL     1       6.108   6.018  14.988  0.00  0.00    +0.000 A 
ATOM      5  C   UNL     1       6.721   5.109  14.125  0.00  0.00    +0.000 A 
ATOM      6  C   UNL     1       6.481   3.745  14.270  0.00  0.00    +0.000 A 
ATOM      7  C   UNL     1       5.631   3.289  15.281  0.00  0.00    +0.000 A 
ATOM      8  C   UNL     1       5.012   4.190  16.154  0.00  0.00    +0.000 A 
ATOM      9  N   UNL     1       4.179   3.683  17.158  0.00  0.00    +0.000 NA
ATOM     10  C   UNL     1       3.598   4.520  17.963  0.00  0.00    +0.000 A 
ATOM     11  C   UNL     1       2.722   4.004  19.031  0.00  0.00    +0.000 A 
ATOM     12  C   UNL     1       2.489   2.625  19.152  0.00  0.00    +0.000 A 
ATOM     13  C   UNL     1       1.645   2.140  20.149  0.00  0.00    +0.000 A 
ATOM     14  C   UNL     1       1.028   3.029  21.024  0.00  0.00    +0.000 A 
ATOM     15  C   UNL     1       1.257   4.401  20.904  0.00  0.00    +0.000 A 
ATOM     16  C   UNL     1       2.118   4.893  19.911  0.00  0.00    +0.000 A 
ATOM     17  C   UNL     1       2.375   6.345  19.719  0.00  0.00    +0.000 A 
ATOM     18  N   UNL     1       1.821   7.246  20.601  0.00  0.00    +0.000 N 
ATOM     19  N   UNL     1       3.126   6.777  18.746  0.00  0.00    +0.000 NA
ATOM     20  N   UNL     1       3.750   5.898  17.881  0.00  0.00    +0.000 N 
ATOM     21  H   UNL     1       1.391   6.937  21.461  0.00  0.00    +0.000 HD
ENDROOT
BRANCH  18  22
ATOM     22  C   UNL     1       1.427   8.599  20.247  0.00  0.00    +0.000 C 
BRANCH  22  23
ATOM     23  C   UNL     1       0.616   9.269  21.312  0.00  0.00    +0.000 A 
ATOM     24  C   UNL     1       0.009   8.819  22.467  0.00  0.00    +0.000 A 
ATOM     25  C   UNL     1      -0.617   9.940  23.059  0.00  0.00    +0.000 A 
ATOM     26  C   UNL     1      -0.354  11.007  22.234  0.00  0.00    +0.000 A 
ATOM     27  O   UNL     1       0.399  10.614  21.171  0.00  0.00    +0.000 OA
ENDBRANCH  22  23
ENDBRANCH  18  22
TORSDOF 2
ENDMDL
MODEL 6
REMARK VINA RESULT:      -8.1      2.790      4.979
REMARK  Name = 
REMARK  2 active torsions:
REMARK  status: ('A' for Active; 'I' for Inactive)
REMARK    1  A    between atoms: N_18  and  C_19
REMARK    2  A    between atoms: C_19  and  C_20
REMARK                            x       y       z     vdW  Elec       q    Type
REMARK                         _______ _______ _______ _____ _____    ______ ____
ROOT
ATOM      1  O   UNL     1       2.050   6.142  21.118  0.00  0.00    +0.000 OA
ATOM      2  C   UNL     1       2.425   6.562  20.021  0.00  0.00    +0.000 A 
ATOM      3  C   UNL     1       1.912   7.865  19.549  0.00  0.00    +0.000 A 
ATOM      4  C   UNL     1       1.014   8.611  20.322  0.00  0.00    +0.000 A 
ATOM      5  C   UNL     1       0.539   9.834  19.845  0.00  0.00    +0.000 A 
ATOM      6  C   UNL     1       0.961  10.304  18.603  0.00  0.00    +0.000 A 
ATOM      7  C   UNL     1       1.861   9.555  17.841  0.00  0.00    +0.000 A 
ATOM      8  C   UNL     1       2.345   8.329  18.309  0.00  0.00    +0.000 A 
ATOM      9  N   UNL     1       3.254   7.621  17.515  0.00  0.00    +0.000 NA
ATOM     10  C   UNL     1       3.699   6.480  17.946  0.00  0.00    +0.000 A 
ATOM     11  C   UNL     1       4.661   5.723  17.125  0.00  0.00    +0.000 A 
ATOM     12  C   UNL     1       5.065   6.215  15.874  0.00  0.00    +0.000 A 
ATOM     13  C   UNL     1       5.960   5.489  15.090  0.00  0.00    +0.000 A 
ATOM     14  C   UNL     1       6.450   4.270  15.549  0.00  0.00    +0.000 A 
ATOM     15  C   UNL     1       6.048   3.779  16.794  0.00  0.00    +0.000 A 
ATOM     16  C   UNL     1       5.159   4.514  17.593  0.00  0.00    +0.000 A 
ATOM     17  C   UNL     1       4.674   4.025  18.912  0.00  0.00    +0.000 A 
ATOM     18  N   UNL     1       5.181   2.849  19.418  0.00  0.00    +0.000 N 
ATOM     19  N   UNL     1       3.797   4.696  19.602  0.00  0.00    +0.000 NA
ATOM     20  N   UNL     1       3.315   5.912  19.155  0.00  0.00    +0.000 N 
ATOM     21  H   UNL     1       5.986   2.405  19.000  0.00  0.00    +0.000 HD
ENDROOT
BRANCH  18  22
ATOM     22  C   UNL     1       4.436   1.940  20.273  0.00  0.00    +0.000 C 
BRANCH  22  23
ATOM     23  C   UNL     1       5.281   0.837  20.829  0.00  0.00    +0.000 A 
ATOM     24  C   UNL     1       5.640  -0.411  20.363  0.00  0.00    +0.000 A 
ATOM     25  C   UNL     1       6.464  -0.993  21.355  0.00  0.00    +0.000 A 
ATOM     26  C   UNL     1       6.561  -0.066  22.365  0.00  0.00    +0.000 A 
ATOM     27  O   UNL     1       5.851   1.052  22.056  0.00  0.00    +0.000 OA
ENDBRANCH  22  23
ENDBRANCH  18  22
TORSDOF 2
ENDMDL
MODEL 7
REMARK VINA RESULT:      -8.1      2.802      7.400
REMARK  Name = 
REMARK  2 active torsions:
REMARK  status: ('A' for Active; 'I' for Inactive)
REMARK    1  A    between atoms: N_18  and  C_19
REMARK    2  A    between atoms: C_19  and  C_20
REMARK                            x       y       z     vdW  Elec       q    Type
REMARK                         _______ _______ _______ _____ _____    ______ ____
ROOT
ATOM      1  O   UNL     1       2.245   8.884  16.926  0.00  0.00    +0.000 OA
ATOM      2  C   UNL     1       2.074   8.476  18.076  0.00  0.00    +0.000 A 
ATOM      3  C   UNL     1       2.705   7.202  18.475  0.00  0.00    +0.000 A 
ATOM      4  C   UNL     1       3.478   6.462  17.571  0.00  0.00    +0.000 A 
ATOM      5  C   UNL     1       4.052   5.256  17.975  0.00  0.00    +0.000 A 
ATOM      6  C   UNL     1       3.854   4.795  19.274  0.00  0.00    +0.000 A 
ATOM      7  C   UNL     1       3.085   5.541  20.171  0.00  0.00    +0.000 A 
ATOM      8  C   UNL     1       2.506   6.752  19.779  0.00  0.00    +0.000 A 
ATOM      9  N   UNL     1       1.754   7.469  20.717  0.00  0.00    +0.000 NA
ATOM     10  C   UNL     1       1.210   8.590  20.351  0.00  0.00    +0.000 A 
ATOM     11  C   UNL     1       0.420   9.362  21.327  0.00  0.00    +0.000 A 
ATOM     12  C   UNL     1       0.228   8.872  22.629  0.00  0.00    +0.000 A 
ATOM     13  C   UNL     1      -0.536   9.593  23.545  0.00  0.00    +0.000 A 
ATOM     14  C   UNL     1      -1.113  10.800  23.164  0.00  0.00    +0.000 A 
ATOM     15  C   UNL     1      -0.924  11.289  21.869  0.00  0.00    +0.000 A 
ATOM     16  C   UNL     1      -0.144  10.573  20.948  0.00  0.00    +0.000 A 
ATOM     17  C   UNL     1       0.066  11.031  19.548  0.00  0.00    +0.000 A 
ATOM     18  N   UNL     1      -0.447  12.248  19.157  0.00  0.00    +0.000 N 
ATOM     19  N   UNL     1       0.740  10.314  18.695  0.00  0.00    +0.000 NA
ATOM     20  N   UNL     1       1.324   9.119  19.071  0.00  0.00    +0.000 N 
ATOM     21  H   UNL     1      -0.811  12.902  19.835  0.00  0.00    +0.000 HD
ENDROOT
BRANCH  18  22
ATOM     22  C   UNL     1      -0.895  12.549  17.808  0.00  0.00    +0.000 C 
BRANCH  22  23
ATOM     23  C   UNL     1      -2.113  11.775  17.411  0.00  0.00    +0.000 A 
ATOM     24  C   UNL     1      -2.444  11.030  16.297  0.00  0.00    +0.000 A 
ATOM     25  C   UNL     1      -3.753  10.541  16.510  0.00  0.00    +0.000 A 
ATOM     26  C   UNL     1      -4.144  11.012  17.740  0.00  0.00    +0.000 A 
ATOM     27  O   UNL     1      -3.155  11.760  18.301  0.00  0.00    +0.000 OA
ENDBRANCH  22  23
ENDBRANCH  18  22
TORSDOF 2
ENDMDL
MODEL 8
REMARK VINA RESULT:      -8.0      1.691      2.400
REMARK  Name = 
REMARK  2 active torsions:
REMARK  status: ('A' for Active; 'I' for Inactive)
REMARK    1  A    between atoms: N_18  and  C_19
REMARK    2  A    between atoms: C_19  and  C_20
REMARK                            x       y       z     vdW  Elec       q    Type
REMARK                         _______ _______ _______ _____ _____    ______ ____
ROOT
ATOM      1  O   UNL     1       3.474   8.569  16.942  0.00  0.00    +0.000 OA
ATOM      2  C   UNL     1       2.941   8.079  17.940  0.00  0.00    +0.000 A 
ATOM      3  C   UNL     1       1.956   8.889  18.686  0.00  0.00    +0.000 A 
ATOM      4  C   UNL     1       1.631  10.189  18.278  0.00  0.00    +0.000 A 
ATOM      5  C   UNL     1       0.704  10.933  19.009  0.00  0.00    +0.000 A 
ATOM      6  C   UNL     1       0.107  10.380  20.139  0.00  0.00    +0.000 A 
ATOM      7  C   UNL     1       0.433   9.080  20.536  0.00  0.00    +0.000 A 
ATOM      8  C   UNL     1       1.359   8.324  19.810  0.00  0.00    +0.000 A 
ATOM      9  N   UNL     1       1.644   7.023  20.241  0.00  0.00    +0.000 NA
ATOM     10  C   UNL     1       2.510   6.323  19.572  0.00  0.00    +0.000 A 
ATOM     11  C   UNL     1       2.818   4.948  20.007  0.00  0.00    +0.000 A 
ATOM     12  C   UNL     1       2.208   4.416  21.154  0.00  0.00    +0.000 A 
ATOM     13  C   UNL     1       2.515   3.123  21.576  0.00  0.00    +0.000 A 
ATOM     14  C   UNL     1       3.433   2.362  20.859  0.00  0.00    +0.000 A 
ATOM     15  C   UNL     1       4.041   2.891  19.718  0.00  0.00    +0.000 A 
ATOM     16  C   UNL     1       3.724   4.187  19.281  0.00  0.00    +0.000 A 
ATOM     17  C   UNL     1       4.362   4.811  18.092  0.00  0.00    +0.000 A 
ATOM     18  N   UNL     1       5.235   4.065  17.330  0.00  0.00    +0.000 N 
ATOM     19  N   UNL     1       4.099   6.039  17.748  0.00  0.00    +0.000 NA
ATOM     20  N   UNL     1       3.180   6.796  18.452  0.00  0.00    +0.000 N 
ATOM     21  H   UNL     1       5.318   3.067  17.461  0.00  0.00    +0.000 HD
ENDROOT
BRANCH  18  22
ATOM     22  C   UNL     1       6.364   4.619  16.604  0.00  0.00    +0.000 C 
BRANCH  22  23
ATOM     23  C   UNL     1       6.307   4.342  15.135  0.00  0.00    +0.000 A 
ATOM     24  C   UNL     1       7.249   4.370  14.126  0.00  0.00    +0.000 A 
ATOM     25  C   UNL     1       6.578   4.008  12.935  0.00  0.00    +0.000 A 
ATOM     26  C   UNL     1       5.270   3.776  13.286  0.00  0.00    +0.000 A 
ATOM     27  O   UNL     1       5.092   3.971  14.621  0.00  0.00    +0.000 OA
ENDBRANCH  22  23
ENDBRANCH  18  22
TORSDOF 2
ENDMDL
MODEL 9
REMARK VINA RESULT:      -7.8      1.852      6.387
REMARK  Name = 
REMARK  2 active torsions:
REMARK  status: ('A' for Active; 'I' for Inactive)
REMARK    1  A    between atoms: N_18  and  C_19
REMARK    2  A    between atoms: C_19  and  C_20
REMARK                            x       y       z     vdW  Elec       q    Type
REMARK                         _______ _______ _______ _____ _____    ______ ____
ROOT
ATOM      1  O   UNL     1       5.588   7.526  17.394  0.00  0.00    +0.000 OA
ATOM      2  C   UNL     1       5.085   6.419  17.193  0.00  0.00    +0.000 A 
ATOM      3  C   UNL     1       5.641   5.574  16.116  0.00  0.00    +0.000 A 
ATOM      4  C   UNL     1       6.714   6.015  15.332  0.00  0.00    +0.000 A 
ATOM      5  C   UNL     1       7.211   5.197  14.315  0.00  0.00    +0.000 A 
ATOM      6  C   UNL     1       6.638   3.949  14.087  0.00  0.00    +0.000 A 
ATOM      7  C   UNL     1       5.570   3.515  14.878  0.00  0.00    +0.000 A 
ATOM      8  C   UNL     1       5.065   4.324  15.900  0.00  0.00    +0.000 A 
ATOM      9  N   UNL     1       4.002   3.840  16.672  0.00  0.00    +0.000 NA
ATOM     10  C   UNL     1       3.528   4.594  17.618  0.00  0.00    +0.000 A 
ATOM     11  C   UNL     1       2.413   4.098  18.445  0.00  0.00    +0.000 A 
ATOM     12  C   UNL     1       1.847   2.839  18.190  0.00  0.00    +0.000 A 
ATOM     13  C   UNL     1       0.780   2.380  18.960  0.00  0.00    +0.000 A 
ATOM     14  C   UNL     1       0.273   3.177  19.982  0.00  0.00    +0.000 A 
ATOM     15  C   UNL     1       0.834   4.430  20.237  0.00  0.00    +0.000 A 
ATOM     16  C   UNL     1       1.918   4.890  19.473  0.00  0.00    +0.000 A 
ATOM     17  C   UNL     1       2.535   6.228  19.680  0.00  0.00    +0.000 A 
ATOM     18  N   UNL     1       2.091   7.017  20.718  0.00  0.00    +0.000 N 
ATOM     19  N   UNL     1       3.496   6.656  18.913  0.00  0.00    +0.000 NA
ATOM     20  N   UNL     1       4.010   5.865  17.903  0.00  0.00    +0.000 N 
ATOM     21  H   UNL     1       1.483   6.645  21.433  0.00  0.00    +0.000 HD
ENDROOT
BRANCH  18  22
ATOM     22  C   UNL     1       2.081   8.470  20.692  0.00  0.00    +0.000 C 
BRANCH  22  23
ATOM     23  C   UNL     1       1.090   9.030  19.720  0.00  0.00    +0.000 A 
ATOM     24  C   UNL     1       1.092   9.189  18.349  0.00  0.00    +0.000 A 
ATOM     25  C   UNL     1      -0.143   9.788  18.009  0.00  0.00    +0.000 A 
ATOM     26  C   UNL     1      -0.826   9.957  19.189  0.00  0.00    +0.000 A 
ATOM     27  O   UNL     1      -0.090   9.496  20.236  0.00  0.00    +0.000 OA
ENDBRANCH  22  23
ENDBRANCH  18  22
TORSDOF 2
ENDMDL
