MODEL 1
REMARK VINA RESULT:      -8.9      0.000      0.000
REMARK  Name = 
REMARK  11 active torsions:
REMARK  status: ('A' for Active; 'I' for Inactive)
REMARK    1  A    between atoms: C_1  and  O_2
REMARK    2  A    between atoms: O_2  and  C_3
REMARK    3  A    between atoms: C_6  and  N_7
REMARK    4  A    between atoms: C_9  and  C_10
REMARK    5  A    between atoms: N_12  and  C_13
REMARK    6  A    between atoms: C_13  and  C_14
REMARK    7  A    between atoms: C_14  and  C_15
REMARK    8  A    between atoms: C_14  and  C_16
REMARK    9  A    between atoms: C_18  and  C_19
REMARK   10  A    between atoms: N_21  and  C_22
REMARK   11  A    between atoms: C_25  and  C_26
REMARK                            x       y       z     vdW  Elec       q    Type
REMARK                         _______ _______ _______ _____ _____    ______ ____
ROOT
ATOM      1  N   UNL     1       4.644   4.788  16.732  0.00  0.00    +0.000 N 
ATOM      2  N   UNL     1       5.441   4.079  15.876  0.00  0.00    +0.000 NA
ATOM      3  C   UNL     1       5.869   4.986  14.976  0.00  0.00    +0.000 A 
ATOM      4  C   UNL     1       5.441   6.292  15.328  0.00  0.00    +0.000 A 
ATOM      5  C   UNL     1       4.722   6.153  16.502  0.00  0.00    +0.000 A 
ENDROOT
BRANCH   1   9
ATOM      6  C   UNL     1       2.236   2.687  19.506  0.00  0.00    +0.000 A 
ATOM      7  C   UNL     1       3.438   3.282  19.901  0.00  0.00    +0.000 A 
ATOM      8  C   UNL     1       4.230   3.977  18.985  0.00  0.00    +0.000 A 
ATOM      9  C   UNL     1       3.819   4.087  17.659  0.00  0.00    +0.000 A 
ATOM     10  C   UNL     1       2.610   3.491  17.255  0.00  0.00    +0.000 A 
ATOM     11  C   UNL     1       1.826   2.789  18.179  0.00  0.00    +0.000 A 
BRANCH   6  13
ATOM     12  C   UNL     1       1.647   2.560  21.795  0.00  0.00    +0.000 C 
ATOM     13  O   UNL     1       1.580   1.999  20.490  0.00  0.00    +0.000 OA
ENDBRANCH   6  13
ENDBRANCH   1   9
BRANCH   3  14
ATOM     14  C   UNL     1       6.695   4.606  13.812  0.00  0.00    +0.000 C 
ATOM     15  O   UNL     1       7.677   5.260  13.473  0.00  0.00    +0.000 OA
ATOM     16  N   UNL     1       6.263   3.478  13.149  0.00  0.00    +0.000 N 
ATOM     17  H   UNL     1       5.459   3.004  13.554  0.00  0.00    +0.000 HD
BRANCH  16  18
ATOM     18  C   UNL     1       6.936   2.944  11.983  0.00  0.00    +0.000 C 
BRANCH  18  19
ATOM     19  C   UNL     1       5.990   2.184  11.037  0.00  0.00    +0.000 C 
ATOM     20  C   UNL     1       6.106   0.669  11.214  0.00  0.00    +0.000 C 
ATOM     21  C   UNL     1       4.541   2.617  11.277  0.00  0.00    +0.000 C 
ENDBRANCH  18  19
ENDBRANCH  16  18
ENDBRANCH   3  14
BRANCH   5  22
ATOM     22  C   UNL     1       4.262   7.131  17.454  0.00  0.00    +0.000 C 
ATOM     23  O   UNL     1       5.039   7.965  17.906  0.00  0.00    +0.000 OA
ATOM     24  N   UNL     1       2.930   7.050  17.829  0.00  0.00    +0.000 N 
ATOM     25  H   UNL     1       2.388   6.264  17.484  0.00  0.00    +0.000 HD
BRANCH  24  26
ATOM     26  C   UNL     1       2.282   7.959  18.691  0.00  0.00    +0.000 A 
ATOM     27  C   UNL     1       1.827   9.219  18.283  0.00  0.00    +0.000 A 
ATOM     28  C   UNL     1       1.132  10.062  19.156  0.00  0.00    +0.000 A 
ATOM     29  C   UNL     1       0.843   9.639  20.451  0.00  0.00    +0.000 A 
ATOM     30  C   UNL     1       1.253   8.357  20.838  0.00  0.00    +0.000 A 
ATOM     31  C   UNL     1       2.020   7.549  19.994  0.00  0.00    +0.000 A 
BRANCH  29  32
ATOM     32  C   UNL     1      -0.009  10.514  21.303  0.00  0.00    +0.000 C 
ATOM     33  O   UNL     1       0.244  10.568  22.502  0.00  0.00    +0.000 OA
ATOM     34  N   UNL     1      -1.033  11.256  20.743  0.00  0.00    +0.000 N 
ATOM     35  C   UNL     1      -1.642  11.196  19.426  0.00  0.00    +0.000 C 
ATOM     36  C   UNL     1      -2.006  12.646  19.192  0.00  0.00    +0.000 C 
ATOM     37  C   UNL     1      -2.554  13.062  20.554  0.00  0.00    +0.000 C 
ATOM     38  C   UNL     1      -1.763  12.217  21.557  0.00  0.00    +0.000 C 
ENDBRANCH  29  32
ENDBRANCH  24  26
ENDBRANCH   5  22
TORSDOF 8
ENDMDL
MODEL 2
REMARK VINA RESULT:      -8.9      0.553      1.246
REMARK  Name = 
REMARK  11 active torsions:
REMARK  status: ('A' for Active; 'I' for Inactive)
REMARK    1  A    between atoms: C_1  and  O_2
REMARK    2  A    between atoms: O_2  and  C_3
REMARK    3  A    between atoms: C_6  and  N_7
REMARK    4  A    between atoms: C_9  and  C_10
REMARK    5  A    between atoms: N_12  and  C_13
REMARK    6  A    between atoms: C_13  and  C_14
REMARK    7  A    between atoms: C_14  and  C_15
REMARK    8  A    between atoms: C_14  and  C_16
REMARK    9  A    between atoms: C_18  and  C_19
REMARK   10  A    between atoms: N_21  and  C_22
REMARK   11  A    between atoms: C_25  and  C_26
REMARK                            x       y       z     vdW  Elec       q    Type
REMARK                         _______ _______ _______ _____ _____    ______ ____
ROOT
ATOM      1  N   UNL     1       4.752   4.743  16.791  0.00  0.00    +0.000 N 
ATOM      2  N   UNL     1       5.570   4.051  15.942  0.00  0.00    +0.000 NA
ATOM      3  C   UNL     1       5.913   4.944  14.993  0.00  0.00    +0.000 A 
ATOM      4  C   UNL     1       5.411   6.234  15.305  0.00  0.00    +0.000 A 
ATOM      5  C   UNL     1       4.734   6.099  16.503  0.00  0.00    +0.000 A 
ENDROOT
BRANCH   1   9
ATOM      6  C   UNL     1       2.477   2.658  19.687  0.00  0.00    +0.000 A 
ATOM      7  C   UNL     1       1.891   3.112  18.502  0.00  0.00    +0.000 A 
ATOM      8  C   UNL     1       2.644   3.798  17.546  0.00  0.00    +0.000 A 
ATOM      9  C   UNL     1       3.999   4.030  17.769  0.00  0.00    +0.000 A 
ATOM     10  C   UNL     1       4.594   3.574  18.959  0.00  0.00    +0.000 A 
ATOM     11  C   UNL     1       3.830   2.894  19.916  0.00  0.00    +0.000 A 
BRANCH   6  13
ATOM     12  C   UNL     1       1.373   2.724  21.780  0.00  0.00    +0.000 C 
ATOM     13  O   UNL     1       1.620   2.042  20.557  0.00  0.00    +0.000 OA
ENDBRANCH   6  13
ENDBRANCH   1   9
BRANCH   3  14
ATOM     14  C   UNL     1       6.732   4.570  13.822  0.00  0.00    +0.000 C 
ATOM     15  O   UNL     1       7.708   5.228  13.475  0.00  0.00    +0.000 OA
ATOM     16  N   UNL     1       6.299   3.440  13.162  0.00  0.00    +0.000 N 
ATOM     17  H   UNL     1       5.501   2.962  13.574  0.00  0.00    +0.000 HD
BRANCH  16  18
ATOM     18  C   UNL     1       6.965   2.909  11.990  0.00  0.00    +0.000 C 
BRANCH  18  19
ATOM     19  C   UNL     1       5.998   2.232  11.003  0.00  0.00    +0.000 C 
ATOM     20  C   UNL     1       6.054   0.707  11.109  0.00  0.00    +0.000 C 
ATOM     21  C   UNL     1       4.565   2.709  11.254  0.00  0.00    +0.000 C 
ENDBRANCH  18  19
ENDBRANCH  16  18
ENDBRANCH   3  14
BRANCH   5  22
ATOM     22  C   UNL     1       4.237   7.086  17.428  0.00  0.00    +0.000 C 
ATOM     23  O   UNL     1       5.016   7.734  18.117  0.00  0.00    +0.000 OA
ATOM     24  N   UNL     1       2.859   7.226  17.499  0.00  0.00    +0.000 N 
ATOM     25  H   UNL     1       2.288   6.575  16.970  0.00  0.00    +0.000 HD
BRANCH  24  26
ATOM     26  C   UNL     1       2.190   8.185  18.289  0.00  0.00    +0.000 A 
ATOM     27  C   UNL     1       1.868   7.985  19.637  0.00  0.00    +0.000 A 
ATOM     28  C   UNL     1       1.261   8.988  20.399  0.00  0.00    +0.000 A 
ATOM     29  C   UNL     1       1.001  10.232  19.831  0.00  0.00    +0.000 A 
ATOM     30  C   UNL     1       1.373  10.446  18.499  0.00  0.00    +0.000 A 
ATOM     31  C   UNL     1       1.902   9.418  17.714  0.00  0.00    +0.000 A 
BRANCH  29  32
ATOM     32  C   UNL     1       0.473  11.311  20.713  0.00  0.00    +0.000 C 
ATOM     33  O   UNL     1       1.245  11.817  21.523  0.00  0.00    +0.000 OA
ATOM     34  N   UNL     1      -0.837  11.737  20.595  0.00  0.00    +0.000 N 
ATOM     35  C   UNL     1      -1.963  11.162  19.882  0.00  0.00    +0.000 C 
ATOM     36  C   UNL     1      -2.729  12.402  19.473  0.00  0.00    +0.000 C 
ATOM     37  C   UNL     1      -2.646  13.259  20.733  0.00  0.00    +0.000 C 
ATOM     38  C   UNL     1      -1.298  12.888  21.357  0.00  0.00    +0.000 C 
ENDBRANCH  29  32
ENDBRANCH  24  26
ENDBRANCH   5  22
TORSDOF 8
ENDMDL
MODEL 3
REMARK VINA RESULT:      -8.7      1.355      1.691
REMARK  Name = 
REMARK  11 active torsions:
REMARK  status: ('A' for Active; 'I' for Inactive)
REMARK    1  A    between atoms: C_1  and  O_2
REMARK    2  A    between atoms: O_2  and  C_3
REMARK    3  A    between atoms: C_6  and  N_7
REMARK    4  A    between atoms: C_9  and  C_10
REMARK    5  A    between atoms: N_12  and  C_13
REMARK    6  A    between atoms: C_13  and  C_14
REMARK    7  A    between atoms: C_14  and  C_15
REMARK    8  A    between atoms: C_14  and  C_16
REMARK    9  A    between atoms: C_18  and  C_19
REMARK   10  A    between atoms: N_21  and  C_22
REMARK   11  A    between atoms: C_25  and  C_26
REMARK                            x       y       z     vdW  Elec       q    Type
REMARK                         _______ _______ _______ _____ _____    ______ ____
ROOT
ATOM      1  N   UNL     1       4.400   5.015  16.981  0.00  0.00    +0.000 N 
ATOM      2  N   UNL     1       5.260   4.266  16.228  0.00  0.00    +0.000 NA
ATOM      3  C   UNL     1       5.735   5.120  15.300  0.00  0.00    +0.000 A 
ATOM      4  C   UNL     1       5.270   6.439  15.538  0.00  0.00    +0.000 A 
ATOM      5  C   UNL     1       4.477   6.364  16.668  0.00  0.00    +0.000 A 
ENDROOT
BRANCH   1   9
ATOM      6  C   UNL     1       1.839   3.056  19.723  0.00  0.00    +0.000 A 
ATOM      7  C   UNL     1       3.023   3.663  20.150  0.00  0.00    +0.000 A 
ATOM      8  C   UNL     1       3.866   4.311  19.245  0.00  0.00    +0.000 A 
ATOM      9  C   UNL     1       3.523   4.361  17.896  0.00  0.00    +0.000 A 
ATOM     10  C   UNL     1       2.333   3.754  17.459  0.00  0.00    +0.000 A 
ATOM     11  C   UNL     1       1.497   3.099  18.373  0.00  0.00    +0.000 A 
BRANCH   6  13
ATOM     12  C   UNL     1       1.662   2.505  22.018  0.00  0.00    +0.000 C 
ATOM     13  O   UNL     1       1.129   2.418  20.702  0.00  0.00    +0.000 OA
ENDBRANCH   6  13
ENDBRANCH   1   9
BRANCH   3  14
ATOM     14  C   UNL     1       6.642   4.680  14.220  0.00  0.00    +0.000 C 
ATOM     15  O   UNL     1       7.760   5.165  14.073  0.00  0.00    +0.000 OA
ATOM     16  N   UNL     1       6.120   3.702  13.401  0.00  0.00    +0.000 N 
ATOM     17  H   UNL     1       5.197   3.356  13.652  0.00  0.00    +0.000 HD
BRANCH  16  18
ATOM     18  C   UNL     1       6.851   3.138  12.284  0.00  0.00    +0.000 C 
BRANCH  18  19
ATOM     19  C   UNL     1       5.933   2.527  11.211  0.00  0.00    +0.000 C 
ATOM     20  C   UNL     1       6.020   1.000  11.191  0.00  0.00    +0.000 C 
ATOM     21  C   UNL     1       4.481   2.953  11.451  0.00  0.00    +0.000 C 
ENDBRANCH  18  19
ENDBRANCH  16  18
ENDBRANCH   3  14
BRANCH   5  22
ATOM     22  C   UNL     1       3.943   7.394  17.523  0.00  0.00    +0.000 C 
ATOM     23  O   UNL     1       4.675   8.277  17.955  0.00  0.00    +0.000 OA
ATOM     24  N   UNL     1       2.594   7.303  17.831  0.00  0.00    +0.000 N 
ATOM     25  H   UNL     1       2.089   6.482  17.514  0.00  0.00    +0.000 HD
BRANCH  24  26
ATOM     26  C   UNL     1       1.879   8.253  18.590  0.00  0.00    +0.000 A 
ATOM     27  C   UNL     1       1.724   8.171  19.980  0.00  0.00    +0.000 A 
ATOM     28  C   UNL     1       1.061   9.170  20.699  0.00  0.00    +0.000 A 
ATOM     29  C   UNL     1       0.573  10.296  20.041  0.00  0.00    +0.000 A 
ATOM     30  C   UNL     1       0.777  10.399  18.660  0.00  0.00    +0.000 A 
ATOM     31  C   UNL     1       1.364   9.364  17.929  0.00  0.00    +0.000 A 
BRANCH  29  32
ATOM     32  C   UNL     1      -0.011  11.393  20.864  0.00  0.00    +0.000 C 
ATOM     33  O   UNL     1      -1.030  11.150  21.503  0.00  0.00    +0.000 OA
ATOM     34  N   UNL     1       0.601  12.632  20.917  0.00  0.00    +0.000 N 
ATOM     35  C   UNL     1       1.660  13.205  20.106  0.00  0.00    +0.000 C 
ATOM     36  C   UNL     1       2.370  14.087  21.111  0.00  0.00    +0.000 C 
ATOM     37  C   UNL     1       1.201  14.719  21.862  0.00  0.00    +0.000 C 
ATOM     38  C   UNL     1       0.108  13.647  21.835  0.00  0.00    +0.000 C 
ENDBRANCH  29  32
ENDBRANCH  24  26
ENDBRANCH   5  22
TORSDOF 8
ENDMDL
MODEL 4
REMARK VINA RESULT:      -8.4      3.347     11.865
REMARK  Name = 
REMARK  11 active torsions:
REMARK  status: ('A' for Active; 'I' for Inactive)
REMARK    1  A    between atoms: C_1  and  O_2
REMARK    2  A    between atoms: O_2  and  C_3
REMARK    3  A    between atoms: C_6  and  N_7
REMARK    4  A    between atoms: C_9  and  C_10
REMARK    5  A    between atoms: N_12  and  C_13
REMARK    6  A    between atoms: C_13  and  C_14
REMARK    7  A    between atoms: C_14  and  C_15
REMARK    8  A    between atoms: C_14  and  C_16
REMARK    9  A    between atoms: C_18  and  C_19
REMARK   10  A    between atoms: N_21  and  C_22
REMARK   11  A    between atoms: C_25  and  C_26
REMARK                            x       y       z     vdW  Elec       q    Type
REMARK                         _______ _______ _______ _____ _____    ______ ____
ROOT
ATOM      1  N   UNL     1      -1.561  12.311  20.218  0.00  0.00    +0.000 N 
ATOM      2  N   UNL     1      -1.621  13.613  20.631  0.00  0.00    +0.000 NA
ATOM      3  C   UNL     1      -1.069  13.608  21.861  0.00  0.00    +0.000 A 
ATOM      4  C   UNL     1      -0.550  12.326  22.180  0.00  0.00    +0.000 A 
ATOM      5  C   UNL     1      -0.807  11.529  21.079  0.00  0.00    +0.000 A 
ENDROOT
BRANCH   1   9
ATOM      6  C   UNL     1      -3.699  11.151  16.755  0.00  0.00    +0.000 A 
ATOM      7  C   UNL     1      -2.302  11.199  16.757  0.00  0.00    +0.000 A 
ATOM      8  C   UNL     1      -1.598  11.579  17.901  0.00  0.00    +0.000 A 
ATOM      9  C   UNL     1      -2.293  11.912  19.062  0.00  0.00    +0.000 A 
ATOM     10  C   UNL     1      -3.698  11.865  19.067  0.00  0.00    +0.000 A 
ATOM     11  C   UNL     1      -4.397  11.489  17.913  0.00  0.00    +0.000 A 
BRANCH   6  13
ATOM     12  C   UNL     1      -3.403  10.181  14.617  0.00  0.00    +0.000 C 
ATOM     13  O   UNL     1      -4.265  10.806  15.559  0.00  0.00    +0.000 OA
ENDBRANCH   6  13
ENDBRANCH   1   9
BRANCH   3  14
ATOM     14  C   UNL     1      -1.019  14.820  22.703  0.00  0.00    +0.000 C 
ATOM     15  O   UNL     1      -0.013  15.130  23.335  0.00  0.00    +0.000 OA
ATOM     16  N   UNL     1      -2.188  15.551  22.722  0.00  0.00    +0.000 N 
ATOM     17  H   UNL     1      -2.936  15.209  22.123  0.00  0.00    +0.000 HD
BRANCH  16  18
ATOM     18  C   UNL     1      -2.341  16.771  23.487  0.00  0.00    +0.000 C 
BRANCH  18  19
ATOM     19  C   UNL     1      -2.851  16.524  24.918  0.00  0.00    +0.000 C 
ATOM     20  C   UNL     1      -1.738  16.691  25.954  0.00  0.00    +0.000 C 
ATOM     21  C   UNL     1      -4.000  17.482  25.244  0.00  0.00    +0.000 C 
ENDBRANCH  18  19
ENDBRANCH  16  18
ENDBRANCH   3  14
BRANCH   5  22
ATOM     22  C   UNL     1      -0.307  10.227  20.714  0.00  0.00    +0.000 C 
ATOM     23  O   UNL     1      -0.896   9.216  21.080  0.00  0.00    +0.000 OA
ATOM     24  N   UNL     1       0.860  10.201  19.968  0.00  0.00    +0.000 N 
ATOM     25  H   UNL     1       1.336  11.082  19.800  0.00  0.00    +0.000 HD
BRANCH  24  26
ATOM     26  C   UNL     1       1.461   9.031  19.458  0.00  0.00    +0.000 A 
ATOM     27  C   UNL     1       1.913   8.908  18.138  0.00  0.00    +0.000 A 
ATOM     28  C   UNL     1       2.560   7.751  17.694  0.00  0.00    +0.000 A 
ATOM     29  C   UNL     1       2.804   6.705  18.580  0.00  0.00    +0.000 A 
ATOM     30  C   UNL     1       2.398   6.853  19.911  0.00  0.00    +0.000 A 
ATOM     31  C   UNL     1       1.677   7.973  20.335  0.00  0.00    +0.000 A 
BRANCH  29  32
ATOM     32  C   UNL     1       3.610   5.548  18.098  0.00  0.00    +0.000 C 
ATOM     33  O   UNL     1       4.802   5.735  17.872  0.00  0.00    +0.000 OA
ATOM     34  N   UNL     1       3.028   4.304  17.940  0.00  0.00    +0.000 N 
ATOM     35  C   UNL     1       1.633   3.900  17.939  0.00  0.00    +0.000 C 
ATOM     36  C   UNL     1       1.717   2.514  18.541  0.00  0.00    +0.000 C 
ATOM     37  C   UNL     1       2.949   1.939  17.849  0.00  0.00    +0.000 C 
ATOM     38  C   UNL     1       3.854   3.151  17.611  0.00  0.00    +0.000 C 
ENDBRANCH  29  32
ENDBRANCH  24  26
ENDBRANCH   5  22
TORSDOF 8
ENDMDL
MODEL 5
REMARK VINA RESULT:      -8.3      3.264     12.041
REMARK  Name = 
REMARK  11 active torsions:
REMARK  status: ('A' for Active; 'I' for Inactive)
REMARK    1  A    between atoms: C_1  and  O_2
REMARK    2  A    between atoms: O_2  and  C_3
REMARK    3  A    between atoms: C_6  and  N_7
REMARK    4  A    between atoms: C_9  and  C_10
REMARK    5  A    between atoms: N_12  and  C_13
REMARK    6  A    between atoms: C_13  and  C_14
REMARK    7  A    between atoms: C_14  and  C_15
REMARK    8  A    between atoms: C_14  and  C_16
REMARK    9  A    between atoms: C_18  and  C_19
REMARK   10  A    between atoms: N_21  and  C_22
REMARK   11  A    between atoms: C_25  and  C_26
REMARK                            x       y       z     vdW  Elec       q    Type
REMARK                         _______ _______ _______ _____ _____    ______ ____
ROOT
ATOM      1  N   UNL     1       0.148  12.389  21.568  0.00  0.00    +0.000 N 
ATOM      2  N   UNL     1      -0.689  13.179  22.305  0.00  0.00    +0.000 NA
ATOM      3  C   UNL     1      -1.555  12.320  22.878  0.00  0.00    +0.000 A 
ATOM      4  C   UNL     1      -1.194  10.975  22.600  0.00  0.00    +0.000 A 
ATOM      5  C   UNL     1      -0.052  11.041  21.823  0.00  0.00    +0.000 A 
ENDROOT
BRANCH   1   9
ATOM      6  C   UNL     1       2.754  14.152  18.737  0.00  0.00    +0.000 A 
ATOM      7  C   UNL     1       1.556  13.554  18.338  0.00  0.00    +0.000 A 
ATOM      8  C   UNL     1       0.696  12.975  19.273  0.00  0.00    +0.000 A 
ATOM      9  C   UNL     1       1.029  12.996  20.626  0.00  0.00    +0.000 A 
ATOM     10  C   UNL     1       2.233  13.597  21.034  0.00  0.00    +0.000 A 
ATOM     11  C   UNL     1       3.094  14.169  20.088  0.00  0.00    +0.000 A 
BRANCH   6  13
ATOM     12  C   UNL     1       4.036  15.956  17.897  0.00  0.00    +0.000 C 
ATOM     13  O   UNL     1       3.524  14.641  17.718  0.00  0.00    +0.000 OA
ENDBRANCH   6  13
ENDBRANCH   1   9
BRANCH   3  14
ATOM     14  C   UNL     1      -2.693  12.781  23.697  0.00  0.00    +0.000 C 
ATOM     15  O   UNL     1      -3.654  12.057  23.941  0.00  0.00    +0.000 OA
ATOM     16  N   UNL     1      -2.583  14.080  24.146  0.00  0.00    +0.000 N 
ATOM     17  H   UNL     1      -1.718  14.561  23.909  0.00  0.00    +0.000 HD
BRANCH  16  18
ATOM     18  C   UNL     1      -3.594  14.719  24.964  0.00  0.00    +0.000 C 
BRANCH  18  19
ATOM     19  C   UNL     1      -4.368  15.818  24.215  0.00  0.00    +0.000 C 
ATOM     20  C   UNL     1      -3.602  16.316  22.987  0.00  0.00    +0.000 C 
ATOM     21  C   UNL     1      -5.742  15.298  23.783  0.00  0.00    +0.000 C 
ENDBRANCH  18  19
ENDBRANCH  16  18
ENDBRANCH   3  14
BRANCH   5  22
ATOM     22  C   UNL     1       0.900  10.027  21.448  0.00  0.00    +0.000 C 
ATOM     23  O   UNL     1       1.753   9.657  22.247  0.00  0.00    +0.000 OA
ATOM     24  N   UNL     1       0.802   9.535  20.156  0.00  0.00    +0.000 N 
ATOM     25  H   UNL     1       0.134   9.973  19.531  0.00  0.00    +0.000 HD
BRANCH  24  26
ATOM     26  C   UNL     1       1.596   8.493  19.632  0.00  0.00    +0.000 A 
ATOM     27  C   UNL     1       1.783   7.265  20.279  0.00  0.00    +0.000 A 
ATOM     28  C   UNL     1       2.527   6.237  19.691  0.00  0.00    +0.000 A 
ATOM     29  C   UNL     1       3.067   6.406  18.419  0.00  0.00    +0.000 A 
ATOM     30  C   UNL     1       2.833   7.616  17.754  0.00  0.00    +0.000 A 
ATOM     31  C   UNL     1       2.162   8.673  18.374  0.00  0.00    +0.000 A 
BRANCH  29  32
ATOM     32  C   UNL     1       3.740   5.241  17.780  0.00  0.00    +0.000 C 
ATOM     33  O   UNL     1       3.036   4.307  17.408  0.00  0.00    +0.000 OA
ATOM     34  N   UNL     1       5.110   5.237  17.594  0.00  0.00    +0.000 N 
ATOM     35  C   UNL     1       6.145   6.105  18.126  0.00  0.00    +0.000 C 
ATOM     36  C   UNL     1       7.144   6.121  16.989  0.00  0.00    +0.000 C 
ATOM     37  C   UNL     1       7.159   4.658  16.556  0.00  0.00    +0.000 C 
ATOM     38  C   UNL     1       5.737   4.163  16.838  0.00  0.00    +0.000 C 
ENDBRANCH  29  32
ENDBRANCH  24  26
ENDBRANCH   5  22
TORSDOF 8
ENDMDL
MODEL 6
REMARK VINA RESULT:      -8.1      3.622     11.887
REMARK  Name = 
REMARK  11 active torsions:
REMARK  status: ('A' for Active; 'I' for Inactive)
REMARK    1  A    between atoms: C_1  and  O_2
REMARK    2  A    between atoms: O_2  and  C_3
REMARK    3  A    between atoms: C_6  and  N_7
REMARK    4  A    between atoms: C_9  and  C_10
REMARK    5  A    between atoms: N_12  and  C_13
REMARK    6  A    between atoms: C_13  and  C_14
REMARK    7  A    between atoms: C_14  and  C_15
REMARK    8  A    between atoms: C_14  and  C_16
REMARK    9  A    between atoms: C_18  and  C_19
REMARK   10  A    between atoms: N_21  and  C_22
REMARK   11  A    between atoms: C_25  and  C_26
REMARK                            x       y       z     vdW  Elec       q    Type
REMARK                         _______ _______ _______ _____ _____    ______ ____
ROOT
ATOM      1  N   UNL     1       0.047  12.968  21.296  0.00  0.00    +0.000 N 
ATOM      2  N   UNL     1      -0.794  13.865  21.893  0.00  0.00    +0.000 NA
ATOM      3  C   UNL     1      -1.805  13.117  22.378  0.00  0.00    +0.000 A 
ATOM      4  C   UNL     1      -1.547  11.734  22.193  0.00  0.00    +0.000 A 
ATOM      5  C   UNL     1      -0.316  11.657  21.567  0.00  0.00    +0.000 A 
ENDROOT
BRANCH   1   9
ATOM      6  C   UNL     1       3.144  14.351  18.765  0.00  0.00    +0.000 A 
ATOM      7  C   UNL     1       1.922  13.921  18.240  0.00  0.00    +0.000 A 
ATOM      8  C   UNL     1       0.901  13.468  19.076  0.00  0.00    +0.000 A 
ATOM      9  C   UNL     1       1.094  13.446  20.455  0.00  0.00    +0.000 A 
ATOM     10  C   UNL     1       2.320  13.878  20.991  0.00  0.00    +0.000 A 
ATOM     11  C   UNL     1       3.343  14.325  20.144  0.00  0.00    +0.000 A 
BRANCH   6  13
ATOM     12  C   UNL     1       5.394  14.935  18.321  0.00  0.00    +0.000 C 
ATOM     13  O   UNL     1       4.074  14.728  17.836  0.00  0.00    +0.000 OA
ENDBRANCH   6  13
ENDBRANCH   1   9
BRANCH   3  14
ATOM     14  C   UNL     1      -2.985  13.720  23.029  0.00  0.00    +0.000 C 
ATOM     15  O   UNL     1      -2.922  14.226  24.146  0.00  0.00    +0.000 OA
ATOM     16  N   UNL     1      -4.143  13.653  22.285  0.00  0.00    +0.000 N 
ATOM     17  H   UNL     1      -4.054  13.244  21.358  0.00  0.00    +0.000 HD
BRANCH  16  18
ATOM     18  C   UNL     1      -5.408  14.187  22.748  0.00  0.00    +0.000 C 
BRANCH  18  19
ATOM     19  C   UNL     1      -6.378  13.097  23.239  0.00  0.00    +0.000 C 
ATOM     20  C   UNL     1      -7.386  13.646  24.250  0.00  0.00    +0.000 C 
ATOM     21  C   UNL     1      -7.127  12.482  22.053  0.00  0.00    +0.000 C 
ENDBRANCH  18  19
ENDBRANCH  16  18
ENDBRANCH   3  14
BRANCH   5  22
ATOM     22  C   UNL     1       0.570  10.542  21.351  0.00  0.00    +0.000 C 
ATOM     23  O   UNL     1       1.367  10.210  22.222  0.00  0.00    +0.000 OA
ATOM     24  N   UNL     1       0.479   9.909  20.121  0.00  0.00    +0.000 N 
ATOM     25  H   UNL     1      -0.134  10.317  19.422  0.00  0.00    +0.000 HD
BRANCH  24  26
ATOM     26  C   UNL     1       1.211   8.760  19.754  0.00  0.00    +0.000 A 
ATOM     27  C   UNL     1       1.953   8.664  18.570  0.00  0.00    +0.000 A 
ATOM     28  C   UNL     1       2.715   7.529  18.277  0.00  0.00    +0.000 A 
ATOM     29  C   UNL     1       2.780   6.479  19.189  0.00  0.00    +0.000 A 
ATOM     30  C   UNL     1       2.079   6.601  20.395  0.00  0.00    +0.000 A 
ATOM     31  C   UNL     1       1.251   7.698  20.651  0.00  0.00    +0.000 A 
BRANCH  29  32
ATOM     32  C   UNL     1       3.704   5.348  18.895  0.00  0.00    +0.000 C 
ATOM     33  O   UNL     1       4.900   5.513  19.119  0.00  0.00    +0.000 OA
ATOM     34  N   UNL     1       3.215   4.148  18.411  0.00  0.00    +0.000 N 
ATOM     35  C   UNL     1       1.909   3.798  17.883  0.00  0.00    +0.000 C 
ATOM     36  C   UNL     1       1.779   2.356  18.324  0.00  0.00    +0.000 C 
ATOM     37  C   UNL     1       3.176   1.809  18.045  0.00  0.00    +0.000 C 
ATOM     38  C   UNL     1       4.105   3.006  18.268  0.00  0.00    +0.000 C 
ENDBRANCH  29  32
ENDBRANCH  24  26
ENDBRANCH   5  22
TORSDOF 8
ENDMDL
MODEL 7
REMARK VINA RESULT:      -8.1      3.336     11.720
REMARK  Name = 
REMARK  11 active torsions:
REMARK  status: ('A' for Active; 'I' for Inactive)
REMARK    1  A    between atoms: C_1  and  O_2
REMARK    2  A    between atoms: O_2  and  C_3
REMARK    3  A    between atoms: C_6  and  N_7
REMARK    4  A    between atoms: C_9  and  C_10
REMARK    5  A    between atoms: N_12  and  C_13
REMARK    6  A    between atoms: C_13  and  C_14
REMARK    7  A    between atoms: C_14  and  C_15
REMARK    8  A    between atoms: C_14  and  C_16
REMARK    9  A    between atoms: C_18  and  C_19
REMARK   10  A    between atoms: N_21  and  C_22
REMARK   11  A    between atoms: C_25  and  C_26
REMARK                            x       y       z     vdW  Elec       q    Type
REMARK                         _______ _______ _______ _____ _____    ______ ____
ROOT
ATOM      1  N   UNL     1      -1.514  12.083  20.205  0.00  0.00    +0.000 N 
ATOM      2  N   UNL     1      -1.630  13.380  20.619  0.00  0.00    +0.000 NA
ATOM      3  C   UNL     1      -1.161  13.380  21.882  0.00  0.00    +0.000 A 
ATOM      4  C   UNL     1      -0.635  12.107  22.228  0.00  0.00    +0.000 A 
ATOM      5  C   UNL     1      -0.800  11.311  21.110  0.00  0.00    +0.000 A 
ENDROOT
BRANCH   1   9
ATOM      6  C   UNL     1      -3.468  10.858  16.657  0.00  0.00    +0.000 A 
ATOM      7  C   UNL     1      -4.173  11.488  17.686  0.00  0.00    +0.000 A 
ATOM      8  C   UNL     1      -3.526  11.894  18.855  0.00  0.00    +0.000 A 
ATOM      9  C   UNL     1      -2.158  11.675  19.000  0.00  0.00    +0.000 A 
ATOM     10  C   UNL     1      -1.443  11.043  17.968  0.00  0.00    +0.000 A 
ATOM     11  C   UNL     1      -2.101  10.632  16.801  0.00  0.00    +0.000 A 
BRANCH   6  13
ATOM     12  C   UNL     1      -3.517  10.147  14.400  0.00  0.00    +0.000 C 
ATOM     13  O   UNL     1      -4.228  10.472  15.587  0.00  0.00    +0.000 OA
ENDBRANCH   6  13
ENDBRANCH   1   9
BRANCH   3  14
ATOM     14  C   UNL     1      -1.193  14.587  22.733  0.00  0.00    +0.000 C 
ATOM     15  O   UNL     1      -0.311  14.828  23.552  0.00  0.00    +0.000 OA
ATOM     16  N   UNL     1      -2.291  15.396  22.532  0.00  0.00    +0.000 N 
ATOM     17  H   UNL     1      -2.930  15.105  21.796  0.00  0.00    +0.000 HD
BRANCH  16  18
ATOM     18  C   UNL     1      -2.507  16.625  23.268  0.00  0.00    +0.000 C 
BRANCH  18  19
ATOM     19  C   UNL     1      -3.552  16.480  24.389  0.00  0.00    +0.000 C 
ATOM     20  C   UNL     1      -4.705  15.564  23.975  0.00  0.00    +0.000 C 
ATOM     21  C   UNL     1      -2.893  15.932  25.658  0.00  0.00    +0.000 C 
ENDBRANCH  18  19
ENDBRANCH  16  18
ENDBRANCH   3  14
BRANCH   5  22
ATOM     22  C   UNL     1      -0.249  10.024  20.772  0.00  0.00    +0.000 C 
ATOM     23  O   UNL     1      -0.763   8.999  21.206  0.00  0.00    +0.000 OA
ATOM     24  N   UNL     1       0.882  10.028  19.970  0.00  0.00    +0.000 N 
ATOM     25  H   UNL     1       1.300  10.924  19.744  0.00  0.00    +0.000 HD
BRANCH  24  26
ATOM     26  C   UNL     1       1.520   8.870  19.477  0.00  0.00    +0.000 A 
ATOM     27  C   UNL     1       2.026   8.762  18.175  0.00  0.00    +0.000 A 
ATOM     28  C   UNL     1       2.708   7.619  17.750  0.00  0.00    +0.000 A 
ATOM     29  C   UNL     1       2.933   6.571  18.639  0.00  0.00    +0.000 A 
ATOM     30  C   UNL     1       2.473   6.704  19.954  0.00  0.00    +0.000 A 
ATOM     31  C   UNL     1       1.718   7.810  20.356  0.00  0.00    +0.000 A 
BRANCH  29  32
ATOM     32  C   UNL     1       3.775   5.430  18.182  0.00  0.00    +0.000 C 
ATOM     33  O   UNL     1       4.974   5.633  18.018  0.00  0.00    +0.000 OA
ATOM     34  N   UNL     1       3.216   4.181  17.979  0.00  0.00    +0.000 N 
ATOM     35  C   UNL     1       1.828   3.762  17.904  0.00  0.00    +0.000 C 
ATOM     36  C   UNL     1       1.899   2.369  18.492  0.00  0.00    +0.000 C 
ATOM     37  C   UNL     1       3.170   1.817  17.854  0.00  0.00    +0.000 C 
ATOM     38  C   UNL     1       4.071   3.043  17.677  0.00  0.00    +0.000 C 
ENDBRANCH  29  32
ENDBRANCH  24  26
ENDBRANCH   5  22
TORSDOF 8
ENDMDL
MODEL 8
REMARK VINA RESULT:      -8.1      0.616      1.146
REMARK  Name = 
REMARK  11 active torsions:
REMARK  status: ('A' for Active; 'I' for Inactive)
REMARK    1  A    between atoms: C_1  and  O_2
REMARK    2  A    between atoms: O_2  and  C_3
REMARK    3  A    between atoms: C_6  and  N_7
REMARK    4  A    between atoms: C_9  and  C_10
REMARK    5  A    between atoms: N_12  and  C_13
REMARK    6  A    between atoms: C_13  and  C_14
REMARK    7  A    between atoms: C_14  and  C_15
REMARK    8  A    between atoms: C_14  and  C_16
REMARK    9  A    between atoms: C_18  and  C_19
REMARK   10  A    between atoms: N_21  and  C_22
REMARK   11  A    between atoms: C_25  and  C_26
REMARK                            x       y       z     vdW  Elec       q    Type
REMARK                         _______ _______ _______ _____ _____    ______ ____
ROOT
ATOM      1  N   UNL     1       4.433   4.939  17.037  0.00  0.00    +0.000 N 
ATOM      2  N   UNL     1       5.287   4.255  16.217  0.00  0.00    +0.000 NA
ATOM      3  C   UNL     1       5.715   5.172  15.328  0.00  0.00    +0.000 A 
ATOM      4  C   UNL     1       5.228   6.464  15.655  0.00  0.00    +0.000 A 
ATOM      5  C   UNL     1       4.471   6.305  16.801  0.00  0.00    +0.000 A 
ENDROOT
BRANCH   1   9
ATOM      6  C   UNL     1       1.998   2.761  19.727  0.00  0.00    +0.000 A 
ATOM      7  C   UNL     1       3.266   3.211  20.106  0.00  0.00    +0.000 A 
ATOM      8  C   UNL     1       4.067   3.932  19.219  0.00  0.00    +0.000 A 
ATOM      9  C   UNL     1       3.599   4.214  17.937  0.00  0.00    +0.000 A 
ATOM     10  C   UNL     1       2.324   3.766  17.550  0.00  0.00    +0.000 A 
ATOM     11  C   UNL     1       1.530   3.036  18.445  0.00  0.00    +0.000 A 
BRANCH   6  13
ATOM     12  C   UNL     1       1.358   2.554  21.996  0.00  0.00    +0.000 C 
ATOM     13  O   UNL     1       1.337   2.030  20.675  0.00  0.00    +0.000 OA
ENDBRANCH   6  13
ENDBRANCH   1   9
BRANCH   3  14
ATOM     14  C   UNL     1       6.598   4.816  14.198  0.00  0.00    +0.000 C 
ATOM     15  O   UNL     1       7.685   5.362  14.027  0.00  0.00    +0.000 OA
ATOM     16  N   UNL     1       6.094   3.842  13.365  0.00  0.00    +0.000 N 
ATOM     17  H   UNL     1       5.200   3.441  13.639  0.00  0.00    +0.000 HD
BRANCH  16  18
ATOM     18  C   UNL     1       6.806   3.354  12.201  0.00  0.00    +0.000 C 
BRANCH  18  19
ATOM     19  C   UNL     1       6.180   2.084  11.600  0.00  0.00    +0.000 C 
ATOM     20  C   UNL     1       4.777   2.347  11.049  0.00  0.00    +0.000 C 
ATOM     21  C   UNL     1       7.071   1.530  10.485  0.00  0.00    +0.000 C 
ENDBRANCH  18  19
ENDBRANCH  16  18
ENDBRANCH   3  14
BRANCH   5  22
ATOM     22  C   UNL     1       3.941   7.272  17.729  0.00  0.00    +0.000 C 
ATOM     23  O   UNL     1       4.631   8.215  18.099  0.00  0.00    +0.000 OA
ATOM     24  N   UNL     1       2.647   7.053  18.177  0.00  0.00    +0.000 N 
ATOM     25  H   UNL     1       2.189   6.191  17.900  0.00  0.00    +0.000 HD
BRANCH  24  26
ATOM     26  C   UNL     1       1.934   7.923  19.028  0.00  0.00    +0.000 A 
ATOM     27  C   UNL     1       1.691   7.653  20.380  0.00  0.00    +0.000 A 
ATOM     28  C   UNL     1       1.035   8.574  21.202  0.00  0.00    +0.000 A 
ATOM     29  C   UNL     1       0.644   9.809  20.691  0.00  0.00    +0.000 A 
ATOM     30  C   UNL     1       0.936  10.097  19.352  0.00  0.00    +0.000 A 
ATOM     31  C   UNL     1       1.516   9.145  18.510  0.00  0.00    +0.000 A 
BRANCH  29  32
ATOM     32  C   UNL     1       0.066  10.808  21.632  0.00  0.00    +0.000 C 
ATOM     33  O   UNL     1       0.341  10.699  22.823  0.00  0.00    +0.000 OA
ATOM     34  N   UNL     1      -0.731  11.837  21.163  0.00  0.00    +0.000 N 
ATOM     35  C   UNL     1      -1.351  12.043  19.866  0.00  0.00    +0.000 C 
ATOM     36  C   UNL     1      -1.319  13.552  19.750  0.00  0.00    +0.000 C 
ATOM     37  C   UNL     1      -1.718  13.989  21.156  0.00  0.00    +0.000 C 
ATOM     38  C   UNL     1      -1.168  12.889  22.068  0.00  0.00    +0.000 C 
ENDBRANCH  29  32
ENDBRANCH  24  26
ENDBRANCH   5  22
TORSDOF 8
ENDMDL
MODEL 9
REMARK VINA RESULT:      -8.1      3.355     12.287
REMARK  Name = 
REMARK  11 active torsions:
REMARK  status: ('A' for Active; 'I' for Inactive)
REMARK    1  A    between atoms: C_1  and  O_2
REMARK    2  A    between atoms: O_2  and  C_3
REMARK    3  A    between atoms: C_6  and  N_7
REMARK    4  A    between atoms: C_9  and  C_10
REMARK    5  A    between atoms: N_12  and  C_13
REMARK    6  A    between atoms: C_13  and  C_14
REMARK    7  A    between atoms: C_14  and  C_15
REMARK    8  A    between atoms: C_14  and  C_16
REMARK    9  A    between atoms: C_18  and  C_19
REMARK   10  A    between atoms: N_21  and  C_22
REMARK   11  A    between atoms: C_25  and  C_26
REMARK                            x       y       z     vdW  Elec       q    Type
REMARK                         _______ _______ _______ _____ _____    ______ ____
ROOT
ATOM      1  N   UNL     1      -0.554  13.385  21.700  0.00  0.00    +0.000 N 
ATOM      2  N   UNL     1      -1.505  13.948  22.505  0.00  0.00    +0.000 NA
ATOM      3  C   UNL     1      -2.307  12.924  22.857  0.00  0.00    +0.000 A 
ATOM      4  C   UNL     1      -1.797  11.691  22.374  0.00  0.00    +0.000 A 
ATOM      5  C   UNL     1      -0.629  12.000  21.701  0.00  0.00    +0.000 A 
ENDROOT
BRANCH   1   9
ATOM      6  C   UNL     1       2.002  15.860  19.410  0.00  0.00    +0.000 A 
ATOM      7  C   UNL     1       0.930  15.188  18.817  0.00  0.00    +0.000 A 
ATOM      8  C   UNL     1       0.085  14.374  19.574  0.00  0.00    +0.000 A 
ATOM      9  C   UNL     1       0.307  14.230  20.942  0.00  0.00    +0.000 A 
ATOM     10  C   UNL     1       1.384  14.904  21.545  0.00  0.00    +0.000 A 
ATOM     11  C   UNL     1       2.231  15.713  20.776  0.00  0.00    +0.000 A 
BRANCH   6  13
ATOM     12  C   UNL     1       3.431  15.852  17.522  0.00  0.00    +0.000 C 
ATOM     13  O   UNL     1       2.777  16.588  18.548  0.00  0.00    +0.000 OA
ENDBRANCH   6  13
ENDBRANCH   1   9
BRANCH   3  14
ATOM     14  C   UNL     1      -3.527  13.124  23.665  0.00  0.00    +0.000 C 
ATOM     15  O   UNL     1      -3.489  13.624  24.786  0.00  0.00    +0.000 OA
ATOM     16  N   UNL     1      -4.688  12.696  23.059  0.00  0.00    +0.000 N 
ATOM     17  H   UNL     1      -4.590  12.336  22.113  0.00  0.00    +0.000 HD
BRANCH  16  18
ATOM     18  C   UNL     1      -5.990  12.803  23.687  0.00  0.00    +0.000 C 
BRANCH  18  19
ATOM     19  C   UNL     1      -6.857  13.923  23.086  0.00  0.00    +0.000 C 
ATOM     20  C   UNL     1      -6.626  15.261  23.791  0.00  0.00    +0.000 C 
ATOM     21  C   UNL     1      -6.563  14.077  21.591  0.00  0.00    +0.000 C 
ENDBRANCH  18  19
ENDBRANCH  16  18
ENDBRANCH   3  14
BRANCH   5  22
ATOM     22  C   UNL     1       0.439  11.161  21.221  0.00  0.00    +0.000 C 
ATOM     23  O   UNL     1       1.587  11.341  21.612  0.00  0.00    +0.000 OA
ATOM     24  N   UNL     1       0.093  10.187  20.298  0.00  0.00    +0.000 N 
ATOM     25  H   UNL     1      -0.861  10.178  19.953  0.00  0.00    +0.000 HD
BRANCH  24  26
ATOM     26  C   UNL     1       0.984   9.228  19.771  0.00  0.00    +0.000 A 
ATOM     27  C   UNL     1       1.423   8.107  20.485  0.00  0.00    +0.000 A 
ATOM     28  C   UNL     1       2.256   7.149  19.900  0.00  0.00    +0.000 A 
ATOM     29  C   UNL     1       2.634   7.276  18.566  0.00  0.00    +0.000 A 
ATOM     30  C   UNL     1       2.150   8.370  17.839  0.00  0.00    +0.000 A 
ATOM     31  C   UNL     1       1.387   9.371  18.447  0.00  0.00    +0.000 A 
BRANCH  29  32
ATOM     32  C   UNL     1       3.414   6.168  17.947  0.00  0.00    +0.000 C 
ATOM     33  O   UNL     1       4.587   6.384  17.659  0.00  0.00    +0.000 OA
ATOM     34  N   UNL     1       2.831   4.932  17.734  0.00  0.00    +0.000 N 
ATOM     35  C   UNL     1       1.442   4.514  17.794  0.00  0.00    +0.000 C 
ATOM     36  C   UNL     1       1.574   3.088  18.284  0.00  0.00    +0.000 C 
ATOM     37  C   UNL     1       2.762   2.580  17.472  0.00  0.00    +0.000 C 
ATOM     38  C   UNL     1       3.641   3.817  17.268  0.00  0.00    +0.000 C 
ENDBRANCH  29  32
ENDBRANCH  24  26
ENDBRANCH   5  22
TORSDOF 8
ENDMDL
