MODEL 1
REMARK VINA RESULT:      -6.7      0.000      0.000
REMARK  Name = 
REMARK  2 active torsions:
REMARK  status: ('A' for Active; 'I' for Inactive)
REMARK    1  A    between atoms: C_4  and  N_5
REMARK    2  A    between atoms: C_6  and  C_7
REMARK                            x       y       z     vdW  Elec       q    Type
REMARK                         _______ _______ _______ _____ _____    ______ ____
ROOT
ATOM      1  N   UNL     1       7.775   5.389  14.271  0.00  0.00    +0.000 N 
ATOM      2  C   UNL     1       7.007   5.035  15.312  0.00  0.00    +0.000 A 
ATOM      3  N   UNL     1       7.468   4.881  16.527  0.00  0.00    +0.000 NA
ATOM      4  C   UNL     1       6.447   4.506  17.359  0.00  0.00    +0.000 A 
ATOM      5  C   UNL     1       5.192   4.340  16.788  0.00  0.00    +0.000 A 
ATOM      6  S   UNL     1       5.335   4.748  15.114  0.00  0.00    +0.000 S 
ATOM      7  H   UNL     1       8.781   5.393  14.388  0.00  0.00    +0.000 HD
ATOM      8  H   UNL     1       7.423   5.340  13.325  0.00  0.00    +0.000 HD
ENDROOT
BRANCH   5   9
ATOM      9  C   UNL     1       3.893   3.926  17.351  0.00  0.00    +0.000 A 
ATOM     10  C   UNL     1       3.612   2.574  17.602  0.00  0.00    +0.000 A 
ATOM     11  C   UNL     1       2.368   2.174  18.104  0.00  0.00    +0.000 A 
ATOM     12  C   UNL     1       1.390   3.124  18.386  0.00  0.00    +0.000 A 
ATOM     13  C   UNL     1       1.653   4.472  18.164  0.00  0.00    +0.000 A 
ATOM     14  C   UNL     1       2.889   4.867  17.644  0.00  0.00    +0.000 A 
ENDBRANCH   5   9
BRANCH   4  15
ATOM     15  N   UNL     1       6.782   4.301  18.643  0.00  0.00    +0.000 N 
ATOM     16  H   UNL     1       6.386   4.948  19.316  0.00  0.00    +0.000 HD
ATOM     17  H   UNL     1       7.717   3.987  18.887  0.00  0.00    +0.000 HD
ENDBRANCH   4  15
TORSDOF 2
ENDMDL
MODEL 2
REMARK VINA RESULT:      -6.6      0.202      1.348
REMARK  Name = 
REMARK  2 active torsions:
REMARK  status: ('A' for Active; 'I' for Inactive)
REMARK    1  A    between atoms: C_4  and  N_5
REMARK    2  A    between atoms: C_6  and  C_7
REMARK                            x       y       z     vdW  Elec       q    Type
REMARK                         _______ _______ _______ _____ _____    ______ ____
ROOT
ATOM      1  N   UNL     1       7.838   5.329  14.484  0.00  0.00    +0.000 N 
ATOM      2  C   UNL     1       7.030   4.999  15.503  0.00  0.00    +0.000 A 
ATOM      3  N   UNL     1       7.422   4.964  16.751  0.00  0.00    +0.000 NA
ATOM      4  C   UNL     1       6.377   4.581  17.548  0.00  0.00    +0.000 A 
ATOM      5  C   UNL     1       5.174   4.290  16.919  0.00  0.00    +0.000 A 
ATOM      6  S   UNL     1       5.394   4.586  15.230  0.00  0.00    +0.000 S 
ATOM      7  H   UNL     1       8.832   5.410  14.659  0.00  0.00    +0.000 HD
ATOM      8  H   UNL     1       7.549   5.189  13.525  0.00  0.00    +0.000 HD
ENDROOT
BRANCH   5   9
ATOM      9  C   UNL     1       3.870   3.830  17.436  0.00  0.00    +0.000 A 
ATOM     10  C   UNL     1       2.820   4.736  17.656  0.00  0.00    +0.000 A 
ATOM     11  C   UNL     1       1.594   4.309  18.178  0.00  0.00    +0.000 A 
ATOM     12  C   UNL     1       1.388   2.963  18.469  0.00  0.00    +0.000 A 
ATOM     13  C   UNL     1       2.408   2.044  18.240  0.00  0.00    +0.000 A 
ATOM     14  C   UNL     1       3.638   2.476  17.737  0.00  0.00    +0.000 A 
ENDBRANCH   5   9
BRANCH   4  15
ATOM     15  N   UNL     1       6.643   4.491  18.861  0.00  0.00    +0.000 N 
ATOM     16  H   UNL     1       6.474   3.587  19.289  0.00  0.00    +0.000 HD
ATOM     17  H   UNL     1       6.449   5.272  19.480  0.00  0.00    +0.000 HD
ENDBRANCH   4  15
TORSDOF 2
ENDMDL
MODEL 3
REMARK VINA RESULT:      -6.3      3.016      5.173
REMARK  Name = 
REMARK  2 active torsions:
REMARK  status: ('A' for Active; 'I' for Inactive)
REMARK    1  A    between atoms: C_4  and  N_5
REMARK    2  A    between atoms: C_6  and  C_7
REMARK                            x       y       z     vdW  Elec       q    Type
REMARK                         _______ _______ _______ _____ _____    ______ ____
ROOT
ATOM      1  N   UNL     1       0.622   2.988  20.592  0.00  0.00    +0.000 N 
ATOM      2  C   UNL     1       1.770   3.174  19.922  0.00  0.00    +0.000 A 
ATOM      3  N   UNL     1       2.914   2.666  20.301  0.00  0.00    +0.000 NA
ATOM      4  C   UNL     1       3.895   3.044  19.423  0.00  0.00    +0.000 A 
ATOM      5  C   UNL     1       3.521   3.870  18.372  0.00  0.00    +0.000 A 
ATOM      6  S   UNL     1       1.814   4.115  18.497  0.00  0.00    +0.000 S 
ATOM      7  H   UNL     1       0.658   2.566  21.511  0.00  0.00    +0.000 HD
ATOM      8  H   UNL     1      -0.205   3.524  20.365  0.00  0.00    +0.000 HD
ENDROOT
BRANCH   5   9
ATOM      9  C   UNL     1       4.289   4.488  17.274  0.00  0.00    +0.000 A 
ATOM     10  C   UNL     1       4.410   5.883  17.172  0.00  0.00    +0.000 A 
ATOM     11  C   UNL     1       5.109   6.473  16.113  0.00  0.00    +0.000 A 
ATOM     12  C   UNL     1       5.718   5.676  15.147  0.00  0.00    +0.000 A 
ATOM     13  C   UNL     1       5.629   4.291  15.239  0.00  0.00    +0.000 A 
ATOM     14  C   UNL     1       4.914   3.704  16.287  0.00  0.00    +0.000 A 
ENDBRANCH   5   9
BRANCH   4  15
ATOM     15  N   UNL     1       5.132   2.600  19.699  0.00  0.00    +0.000 N 
ATOM     16  H   UNL     1       5.890   3.244  19.503  0.00  0.00    +0.000 HD
ATOM     17  H   UNL     1       5.377   1.627  19.538  0.00  0.00    +0.000 HD
ENDBRANCH   4  15
TORSDOF 2
ENDMDL
MODEL 4
REMARK VINA RESULT:      -6.2      3.190      5.186
REMARK  Name = 
REMARK  2 active torsions:
REMARK  status: ('A' for Active; 'I' for Inactive)
REMARK    1  A    between atoms: C_4  and  N_5
REMARK    2  A    between atoms: C_6  and  C_7
REMARK                            x       y       z     vdW  Elec       q    Type
REMARK                         _______ _______ _______ _____ _____    ______ ____
ROOT
ATOM      1  N   UNL     1       0.734   3.839  20.528  0.00  0.00    +0.000 N 
ATOM      2  C   UNL     1       1.942   3.649  19.975  0.00  0.00    +0.000 A 
ATOM      3  N   UNL     1       2.803   2.767  20.413  0.00  0.00    +0.000 NA
ATOM      4  C   UNL     1       3.941   2.822  19.654  0.00  0.00    +0.000 A 
ATOM      5  C   UNL     1       3.979   3.768  18.638  0.00  0.00    +0.000 A 
ATOM      6  S   UNL     1       2.450   4.575  18.632  0.00  0.00    +0.000 S 
ATOM      7  H   UNL     1       0.529   3.393  21.413  0.00  0.00    +0.000 HD
ATOM      8  H   UNL     1       0.164   4.633  20.270  0.00  0.00    +0.000 HD
ENDROOT
BRANCH   5   9
ATOM      9  C   UNL     1       5.021   4.130  17.658  0.00  0.00    +0.000 A 
ATOM     10  C   UNL     1       4.774   4.052  16.278  0.00  0.00    +0.000 A 
ATOM     11  C   UNL     1       5.772   4.361  15.346  0.00  0.00    +0.000 A 
ATOM     12  C   UNL     1       7.028   4.777  15.778  0.00  0.00    +0.000 A 
ATOM     13  C   UNL     1       7.289   4.881  17.140  0.00  0.00    +0.000 A 
ATOM     14  C   UNL     1       6.298   4.553  18.070  0.00  0.00    +0.000 A 
ENDBRANCH   5   9
BRANCH   4  15
ATOM     15  N   UNL     1       4.921   1.973  20.002  0.00  0.00    +0.000 N 
ATOM     16  H   UNL     1       4.891   1.625  20.954  0.00  0.00    +0.000 HD
ATOM     17  H   UNL     1       5.865   2.105  19.651  0.00  0.00    +0.000 HD
ENDBRANCH   4  15
TORSDOF 2
ENDMDL
MODEL 5
REMARK VINA RESULT:      -6.2      3.318      5.484
REMARK  Name = 
REMARK  2 active torsions:
REMARK  status: ('A' for Active; 'I' for Inactive)
REMARK    1  A    between atoms: C_4  and  N_5
REMARK    2  A    between atoms: C_6  and  C_7
REMARK                            x       y       z     vdW  Elec       q    Type
REMARK                         _______ _______ _______ _____ _____    ______ ____
ROOT
ATOM      1  N   UNL     1       0.792   3.915  20.503  0.00  0.00    +0.000 N 
ATOM      2  C   UNL     1       2.061   3.980  20.070  0.00  0.00    +0.000 A 
ATOM      3  N   UNL     1       2.868   2.951  20.052  0.00  0.00    +0.000 NA
ATOM      4  C   UNL     1       4.090   3.337  19.571  0.00  0.00    +0.000 A 
ATOM      5  C   UNL     1       4.246   4.676  19.239  0.00  0.00    +0.000 A 
ATOM      6  S   UNL     1       2.723   5.449  19.505  0.00  0.00    +0.000 S 
ATOM      7  H   UNL     1       0.483   3.077  20.979  0.00  0.00    +0.000 HD
ATOM      8  H   UNL     1       0.252   4.756  20.656  0.00  0.00    +0.000 HD
ENDROOT
BRANCH   5   9
ATOM      9  C   UNL     1       5.398   5.444  18.729  0.00  0.00    +0.000 A 
ATOM     10  C   UNL     1       6.648   5.377  19.365  0.00  0.00    +0.000 A 
ATOM     11  C   UNL     1       7.735   6.131  18.905  0.00  0.00    +0.000 A 
ATOM     12  C   UNL     1       7.596   6.948  17.786  0.00  0.00    +0.000 A 
ATOM     13  C   UNL     1       6.371   7.015  17.129  0.00  0.00    +0.000 A 
ATOM     14  C   UNL     1       5.283   6.277  17.602  0.00  0.00    +0.000 A 
ENDBRANCH   5   9
BRANCH   4  15
ATOM     15  N   UNL     1       5.027   2.376  19.509  0.00  0.00    +0.000 N 
ATOM     16  H   UNL     1       5.909   2.584  19.964  0.00  0.00    +0.000 HD
ATOM     17  H   UNL     1       5.129   1.811  18.671  0.00  0.00    +0.000 HD
ENDBRANCH   4  15
TORSDOF 2
ENDMDL
MODEL 6
REMARK VINA RESULT:      -6.2      3.148      5.185
REMARK  Name = 
REMARK  2 active torsions:
REMARK  status: ('A' for Active; 'I' for Inactive)
REMARK    1  A    between atoms: C_4  and  N_5
REMARK    2  A    between atoms: C_6  and  C_7
REMARK                            x       y       z     vdW  Elec       q    Type
REMARK                         _______ _______ _______ _____ _____    ______ ____
ROOT
ATOM      1  N   UNL     1       0.606   3.383  20.277  0.00  0.00    +0.000 N 
ATOM      2  C   UNL     1       1.857   3.318  19.798  0.00  0.00    +0.000 A 
ATOM      3  N   UNL     1       2.794   2.576  20.329  0.00  0.00    +0.000 NA
ATOM      4  C   UNL     1       3.957   2.735  19.625  0.00  0.00    +0.000 A 
ATOM      5  C   UNL     1       3.936   3.624  18.558  0.00  0.00    +0.000 A 
ATOM      6  S   UNL     1       2.322   4.229  18.429  0.00  0.00    +0.000 S 
ATOM      7  H   UNL     1       0.407   2.961  21.176  0.00  0.00    +0.000 HD
ATOM      8  H   UNL     1      -0.043   4.084  19.945  0.00  0.00    +0.000 HD
ENDROOT
BRANCH   5   9
ATOM      9  C   UNL     1       4.979   4.062  17.611  0.00  0.00    +0.000 A 
ATOM     10  C   UNL     1       6.213   4.551  18.072  0.00  0.00    +0.000 A 
ATOM     11  C   UNL     1       7.191   5.000  17.177  0.00  0.00    +0.000 A 
ATOM     12  C   UNL     1       6.963   4.947  15.805  0.00  0.00    +0.000 A 
ATOM     13  C   UNL     1       5.756   4.448  15.326  0.00  0.00    +0.000 A 
ATOM     14  C   UNL     1       4.772   4.019  16.221  0.00  0.00    +0.000 A 
ENDBRANCH   5   9
BRANCH   4  15
ATOM     15  N   UNL     1       5.014   2.036  20.071  0.00  0.00    +0.000 N 
ATOM     16  H   UNL     1       5.739   2.572  20.534  0.00  0.00    +0.000 HD
ATOM     17  H   UNL     1       5.372   1.249  19.538  0.00  0.00    +0.000 HD
ENDBRANCH   4  15
TORSDOF 2
ENDMDL
MODEL 7
REMARK VINA RESULT:      -6.2      2.970      5.003
REMARK  Name = 
REMARK  2 active torsions:
REMARK  status: ('A' for Active; 'I' for Inactive)
REMARK    1  A    between atoms: C_4  and  N_5
REMARK    2  A    between atoms: C_6  and  C_7
REMARK                            x       y       z     vdW  Elec       q    Type
REMARK                         _______ _______ _______ _____ _____    ______ ____
ROOT
ATOM      1  N   UNL     1       0.465   3.067  20.306  0.00  0.00    +0.000 N 
ATOM      2  C   UNL     1       1.643   3.236  19.687  0.00  0.00    +0.000 A 
ATOM      3  N   UNL     1       2.771   2.754  20.142  0.00  0.00    +0.000 NA
ATOM      4  C   UNL     1       3.791   3.104  19.299  0.00  0.00    +0.000 A 
ATOM      5  C   UNL     1       3.464   3.885  18.198  0.00  0.00    +0.000 A 
ATOM      6  S   UNL     1       1.752   4.119  18.229  0.00  0.00    +0.000 S 
ATOM      7  H   UNL     1       0.459   2.682  21.242  0.00  0.00    +0.000 HD
ATOM      8  H   UNL     1      -0.353   3.586  20.018  0.00  0.00    +0.000 HD
ENDROOT
BRANCH   5   9
ATOM      9  C   UNL     1       4.281   4.464  17.115  0.00  0.00    +0.000 A 
ATOM     10  C   UNL     1       4.974   3.640  16.213  0.00  0.00    +0.000 A 
ATOM     11  C   UNL     1       5.777   4.187  15.206  0.00  0.00    +0.000 A 
ATOM     12  C   UNL     1       5.884   5.568  15.068  0.00  0.00    +0.000 A 
ATOM     13  C   UNL     1       5.191   6.404  15.938  0.00  0.00    +0.000 A 
ATOM     14  C   UNL     1       4.405   5.856  16.955  0.00  0.00    +0.000 A 
ENDBRANCH   5   9
BRANCH   4  15
ATOM     15  N   UNL     1       5.016   2.682  19.653  0.00  0.00    +0.000 N 
ATOM     16  H   UNL     1       5.427   1.964  19.066  0.00  0.00    +0.000 HD
ATOM     17  H   UNL     1       5.266   2.593  20.633  0.00  0.00    +0.000 HD
ENDBRANCH   4  15
TORSDOF 2
ENDMDL
MODEL 8
REMARK VINA RESULT:      -6.2      3.313      5.498
REMARK  Name = 
REMARK  2 active torsions:
REMARK  status: ('A' for Active; 'I' for Inactive)
REMARK    1  A    between atoms: C_4  and  N_5
REMARK    2  A    between atoms: C_6  and  C_7
REMARK                            x       y       z     vdW  Elec       q    Type
REMARK                         _______ _______ _______ _____ _____    ______ ____
ROOT
ATOM      1  N   UNL     1       0.654   3.496  20.235  0.00  0.00    +0.000 N 
ATOM      2  C   UNL     1       1.945   3.643  19.901  0.00  0.00    +0.000 A 
ATOM      3  N   UNL     1       2.837   2.696  20.039  0.00  0.00    +0.000 NA
ATOM      4  C   UNL     1       4.058   3.155  19.624  0.00  0.00    +0.000 A 
ATOM      5  C   UNL     1       4.126   4.471  19.188  0.00  0.00    +0.000 A 
ATOM      6  S   UNL     1       2.525   5.118  19.261  0.00  0.00    +0.000 S 
ATOM      7  H   UNL     1       0.378   2.673  20.757  0.00  0.00    +0.000 HD
ATOM      8  H   UNL     1       0.031   4.292  20.269  0.00  0.00    +0.000 HD
ENDROOT
BRANCH   5   9
ATOM      9  C   UNL     1       5.248   5.300  18.706  0.00  0.00    +0.000 A 
ATOM     10  C   UNL     1       5.095   6.150  17.600  0.00  0.00    +0.000 A 
ATOM     11  C   UNL     1       6.166   6.912  17.119  0.00  0.00    +0.000 A 
ATOM     12  C   UNL     1       7.405   6.854  17.751  0.00  0.00    +0.000 A 
ATOM     13  C   UNL     1       7.575   6.033  18.862  0.00  0.00    +0.000 A 
ATOM     14  C   UNL     1       6.509   5.258  19.328  0.00  0.00    +0.000 A 
ENDBRANCH   5   9
BRANCH   4  15
ATOM     15  N   UNL     1       5.076   2.284  19.722  0.00  0.00    +0.000 N 
ATOM     16  H   UNL     1       5.017   1.462  19.132  0.00  0.00    +0.000 HD
ATOM     17  H   UNL     1       5.515   2.105  20.621  0.00  0.00    +0.000 HD
ENDBRANCH   4  15
TORSDOF 2
ENDMDL
MODEL 9
REMARK VINA RESULT:      -6.2      1.841      1.844
REMARK  Name = 
REMARK  2 active torsions:
REMARK  status: ('A' for Active; 'I' for Inactive)
REMARK    1  A    between atoms: C_4  and  N_5
REMARK    2  A    between atoms: C_6  and  C_7
REMARK                            x       y       z     vdW  Elec       q    Type
REMARK                         _______ _______ _______ _____ _____    ______ ____
ROOT
ATOM      1  N   UNL     1       7.423   5.113  15.044  0.00  0.00    +0.000 N 
ATOM      2  C   UNL     1       6.911   5.035  16.281  0.00  0.00    +0.000 A 
ATOM      3  N   UNL     1       7.597   5.307  17.362  0.00  0.00    +0.000 NA
ATOM      4  C   UNL     1       6.805   5.123  18.464  0.00  0.00    +0.000 A 
ATOM      5  C   UNL     1       5.507   4.680  18.244  0.00  0.00    +0.000 A 
ATOM      6  S   UNL     1       5.290   4.559  16.534  0.00  0.00    +0.000 S 
ATOM      7  H   UNL     1       8.422   5.240  14.938  0.00  0.00    +0.000 HD
ATOM      8  H   UNL     1       6.920   4.743  14.248  0.00  0.00    +0.000 HD
ENDROOT
BRANCH   5   9
ATOM      9  C   UNL     1       4.403   4.352  19.166  0.00  0.00    +0.000 A 
ATOM     10  C   UNL     1       4.186   3.032  19.592  0.00  0.00    +0.000 A 
ATOM     11  C   UNL     1       3.118   2.712  20.439  0.00  0.00    +0.000 A 
ATOM     12  C   UNL     1       2.261   3.710  20.892  0.00  0.00    +0.000 A 
ATOM     13  C   UNL     1       2.468   5.029  20.499  0.00  0.00    +0.000 A 
ATOM     14  C   UNL     1       3.523   5.343  19.638  0.00  0.00    +0.000 A 
ENDBRANCH   5   9
BRANCH   4  15
ATOM     15  N   UNL     1       7.388   5.356  19.651  0.00  0.00    +0.000 N 
ATOM     16  H   UNL     1       8.237   4.835  19.840  0.00  0.00    +0.000 HD
ATOM     17  H   UNL     1       6.822   5.519  20.478  0.00  0.00    +0.000 HD
ENDBRANCH   4  15
TORSDOF 2
ENDMDL
