MODEL 1
REMARK VINA RESULT:      -7.4      0.000      0.000
REMARK  Name = 
REMARK  7 active torsions:
REMARK  status: ('A' for Active; 'I' for Inactive)
REMARK    1  A    between atoms: C_1  and  N_2
REMARK    2  A    between atoms: C_4  and  C_5
REMARK    3  A    between atoms: C_4  and  O_6
REMARK    4  A    between atoms: C_7  and  O_8
REMARK    5  A    between atoms: C_7  and  C_9
REMARK    6  A    between atoms: C_10  and  C_11
REMARK    7  A    between atoms: C_18  and  C_19
REMARK                            x       y       z     vdW  Elec       q    Type
REMARK                         _______ _______ _______ _____ _____    ______ ____
ROOT
ATOM      1  C   UNL     1       2.695   4.432  21.466  0.00  0.00    +0.000 C 
ATOM      2  N   UNL     1       3.552   4.248  20.303  0.00  0.00    +0.000 NA
ATOM      3  C   UNL     1       3.418   2.952  19.625  0.00  0.00    +0.000 C 
ATOM      4  C   UNL     1       2.285   2.772  18.588  0.00  0.00    +0.000 C 
ATOM      5  C   UNL     1       0.934   2.544  19.291  0.00  0.00    +0.000 C 
ATOM      6  C   UNL     1       2.234   3.983  17.617  0.00  0.00    +0.000 C 
ATOM      7  C   UNL     1       2.301   5.315  18.411  0.00  0.00    +0.000 C 
ATOM      8  C   UNL     1       3.515   5.409  19.390  0.00  0.00    +0.000 C 
ENDROOT
BRANCH   8   9
ATOM      9  C   UNL     1       4.903   5.742  18.798  0.00  0.00    +0.000 A 
ATOM     10  C   UNL     1       5.056   6.835  17.925  0.00  0.00    +0.000 A 
ATOM     11  C   UNL     1       6.313   7.194  17.422  0.00  0.00    +0.000 A 
ATOM     12  C   UNL     1       7.448   6.457  17.761  0.00  0.00    +0.000 A 
ATOM     13  C   UNL     1       7.330   5.378  18.628  0.00  0.00    +0.000 A 
ATOM     14  C   UNL     1       6.077   5.042  19.152  0.00  0.00    +0.000 A 
ENDBRANCH   8   9
BRANCH   4  15
ATOM     15  O   UNL     1       2.512   1.565  17.825  0.00  0.00    +0.000 OA
ATOM     16  H   UNL     1       2.377   1.778  16.884  0.00  0.00    +0.000 HD
ENDBRANCH   4  15
BRANCH   6  17
ATOM     17  O   UNL     1       1.038   3.947  16.836  0.00  0.00    +0.000 OA
ATOM     18  H   UNL     1       1.321   3.587  15.974  0.00  0.00    +0.000 HD
ENDBRANCH   6  17
BRANCH   6  19
ATOM     19  C   UNL     1       3.396   4.103  16.645  0.00  0.00    +0.000 C 
ATOM     20  C   UNL     1       4.393   4.206  15.811  0.00  0.00    +0.000 C 
BRANCH  20  21
ATOM     21  C   UNL     1       5.428   4.292  14.828  0.00  0.00    +0.000 A 
ATOM     22  C   UNL     1       6.574   5.049  15.081  0.00  0.00    +0.000 A 
ATOM     23  C   UNL     1       7.578   5.152  14.118  0.00  0.00    +0.000 A 
ATOM     24  C   UNL     1       7.432   4.503  12.893  0.00  0.00    +0.000 A 
ATOM     25  C   UNL     1       6.283   3.757  12.630  0.00  0.00    +0.000 A 
ATOM     26  C   UNL     1       5.281   3.650  13.598  0.00  0.00    +0.000 A 
ENDBRANCH  20  21
ENDBRANCH   6  19
TORSDOF 5
ENDMDL
MODEL 2
REMARK VINA RESULT:      -7.0      0.649      1.176
REMARK  Name = 
REMARK  7 active torsions:
REMARK  status: ('A' for Active; 'I' for Inactive)
REMARK    1  A    between atoms: C_1  and  N_2
REMARK    2  A    between atoms: C_4  and  C_5
REMARK    3  A    between atoms: C_4  and  O_6
REMARK    4  A    between atoms: C_7  and  O_8
REMARK    5  A    between atoms: C_7  and  C_9
REMARK    6  A    between atoms: C_10  and  C_11
REMARK    7  A    between atoms: C_18  and  C_19
REMARK                            x       y       z     vdW  Elec       q    Type
REMARK                         _______ _______ _______ _____ _____    ______ ____
ROOT
ATOM      1  C   UNL     1       2.932   4.344  21.300  0.00  0.00    +0.000 C 
ATOM      2  N   UNL     1       3.849   4.251  20.173  0.00  0.00    +0.000 NA
ATOM      3  C   UNL     1       4.058   2.897  19.644  0.00  0.00    +0.000 C 
ATOM      4  C   UNL     1       3.040   2.334  18.625  0.00  0.00    +0.000 C 
ATOM      5  C   UNL     1       1.760   1.860  19.337  0.00  0.00    +0.000 C 
ATOM      6  C   UNL     1       2.731   3.385  17.523  0.00  0.00    +0.000 C 
ATOM      7  C   UNL     1       2.445   4.770  18.162  0.00  0.00    +0.000 C 
ATOM      8  C   UNL     1       3.564   5.263  19.134  0.00  0.00    +0.000 C 
ENDROOT
BRANCH   8   9
ATOM      9  C   UNL     1       4.850   5.860  18.520  0.00  0.00    +0.000 A 
ATOM     10  C   UNL     1       4.766   6.904  17.580  0.00  0.00    +0.000 A 
ATOM     11  C   UNL     1       5.917   7.502  17.053  0.00  0.00    +0.000 A 
ATOM     12  C   UNL     1       7.185   7.060  17.436  0.00  0.00    +0.000 A 
ATOM     13  C   UNL     1       7.299   6.038  18.369  0.00  0.00    +0.000 A 
ATOM     14  C   UNL     1       6.146   5.464  18.916  0.00  0.00    +0.000 A 
ENDBRANCH   8   9
BRANCH   4  15
ATOM     15  O   UNL     1       3.580   1.146  18.005  0.00  0.00    +0.000 OA
ATOM     16  H   UNL     1       4.336   1.415  17.453  0.00  0.00    +0.000 HD
ENDBRANCH   4  15
BRANCH   6  17
ATOM     17  O   UNL     1       1.608   2.973  16.741  0.00  0.00    +0.000 OA
ATOM     18  H   UNL     1       1.592   2.001  16.832  0.00  0.00    +0.000 HD
ENDBRANCH   6  17
BRANCH   6  19
ATOM     19  C   UNL     1       3.864   3.680  16.553  0.00  0.00    +0.000 C 
ATOM     20  C   UNL     1       4.835   3.934  15.722  0.00  0.00    +0.000 C 
BRANCH  20  21
ATOM     21  C   UNL     1       5.836   4.230  14.743  0.00  0.00    +0.000 A 
ATOM     22  C   UNL     1       5.680   3.790  13.427  0.00  0.00    +0.000 A 
ATOM     23  C   UNL     1       6.661   4.058  12.473  0.00  0.00    +0.000 A 
ATOM     24  C   UNL     1       7.809   4.761  12.838  0.00  0.00    +0.000 A 
ATOM     25  C   UNL     1       7.976   5.190  14.155  0.00  0.00    +0.000 A 
ATOM     26  C   UNL     1       6.989   4.926  15.108  0.00  0.00    +0.000 A 
ENDBRANCH  20  21
ENDBRANCH   6  19
TORSDOF 5
ENDMDL
MODEL 3
REMARK VINA RESULT:      -6.9      0.074      1.392
REMARK  Name = 
REMARK  7 active torsions:
REMARK  status: ('A' for Active; 'I' for Inactive)
REMARK    1  A    between atoms: C_1  and  N_2
REMARK    2  A    between atoms: C_4  and  C_5
REMARK    3  A    between atoms: C_4  and  O_6
REMARK    4  A    between atoms: C_7  and  O_8
REMARK    5  A    between atoms: C_7  and  C_9
REMARK    6  A    between atoms: C_10  and  C_11
REMARK    7  A    between atoms: C_18  and  C_19
REMARK                            x       y       z     vdW  Elec       q    Type
REMARK                         _______ _______ _______ _____ _____    ______ ____
ROOT
ATOM      1  C   UNL     1       2.664   4.461  21.471  0.00  0.00    +0.000 C 
ATOM      2  N   UNL     1       3.530   4.280  20.315  0.00  0.00    +0.000 NA
ATOM      3  C   UNL     1       3.425   2.974  19.650  0.00  0.00    +0.000 C 
ATOM      4  C   UNL     1       2.301   2.759  18.610  0.00  0.00    +0.000 C 
ATOM      5  C   UNL     1       0.951   2.514  19.309  0.00  0.00    +0.000 C 
ATOM      6  C   UNL     1       2.231   3.958  17.625  0.00  0.00    +0.000 C 
ATOM      7  C   UNL     1       2.269   5.301  18.404  0.00  0.00    +0.000 C 
ATOM      8  C   UNL     1       3.475   5.430  19.387  0.00  0.00    +0.000 C 
ENDROOT
BRANCH   8   9
ATOM      9  C   UNL     1       4.859   5.783  18.799  0.00  0.00    +0.000 A 
ATOM     10  C   UNL     1       5.983   4.995  19.112  0.00  0.00    +0.000 A 
ATOM     11  C   UNL     1       7.236   5.258  18.546  0.00  0.00    +0.000 A 
ATOM     12  C   UNL     1       7.406   6.329  17.667  0.00  0.00    +0.000 A 
ATOM     13  C   UNL     1       6.314   7.118  17.332  0.00  0.00    +0.000 A 
ATOM     14  C   UNL     1       5.057   6.833  17.877  0.00  0.00    +0.000 A 
ENDBRANCH   8   9
BRANCH   4  15
ATOM     15  O   UNL     1       2.556   1.549  17.862  0.00  0.00    +0.000 OA
ATOM     16  H   UNL     1       1.834   0.924  18.053  0.00  0.00    +0.000 HD
ENDBRANCH   4  15
BRANCH   6  17
ATOM     17  O   UNL     1       1.040   3.890  16.839  0.00  0.00    +0.000 OA
ATOM     18  H   UNL     1       0.358   4.316  17.392  0.00  0.00    +0.000 HD
ENDBRANCH   6  17
BRANCH   6  19
ATOM     19  C   UNL     1       3.396   4.090  16.657  0.00  0.00    +0.000 C 
ATOM     20  C   UNL     1       4.396   4.203  15.827  0.00  0.00    +0.000 C 
BRANCH  20  21
ATOM     21  C   UNL     1       5.430   4.321  14.846  0.00  0.00    +0.000 A 
ATOM     22  C   UNL     1       5.288   3.703  13.602  0.00  0.00    +0.000 A 
ATOM     23  C   UNL     1       6.302   3.798  12.648  0.00  0.00    +0.000 A 
ATOM     24  C   UNL     1       7.466   4.506  12.943  0.00  0.00    +0.000 A 
ATOM     25  C   UNL     1       7.618   5.114  14.190  0.00  0.00    +0.000 A 
ATOM     26  C   UNL     1       6.599   5.022  15.141  0.00  0.00    +0.000 A 
ENDBRANCH  20  21
ENDBRANCH   6  19
TORSDOF 5
ENDMDL
MODEL 4
REMARK VINA RESULT:      -6.8      0.689      1.188
REMARK  Name = 
REMARK  7 active torsions:
REMARK  status: ('A' for Active; 'I' for Inactive)
REMARK    1  A    between atoms: C_1  and  N_2
REMARK    2  A    between atoms: C_4  and  C_5
REMARK    3  A    between atoms: C_4  and  O_6
REMARK    4  A    between atoms: C_7  and  O_8
REMARK    5  A    between atoms: C_7  and  C_9
REMARK    6  A    between atoms: C_10  and  C_11
REMARK    7  A    between atoms: C_18  and  C_19
REMARK                            x       y       z     vdW  Elec       q    Type
REMARK                         _______ _______ _______ _____ _____    ______ ____
ROOT
ATOM      1  C   UNL     1       2.840   4.335  21.352  0.00  0.00    +0.000 C 
ATOM      2  N   UNL     1       3.773   4.270  20.237  0.00  0.00    +0.000 NA
ATOM      3  C   UNL     1       4.056   2.919  19.734  0.00  0.00    +0.000 C 
ATOM      4  C   UNL     1       3.079   2.288  18.714  0.00  0.00    +0.000 C 
ATOM      5  C   UNL     1       1.817   1.761  19.422  0.00  0.00    +0.000 C 
ATOM      6  C   UNL     1       2.730   3.302  17.591  0.00  0.00    +0.000 C 
ATOM      7  C   UNL     1       2.367   4.682  18.203  0.00  0.00    +0.000 C 
ATOM      8  C   UNL     1       3.449   5.248  19.177  0.00  0.00    +0.000 C 
ENDROOT
BRANCH   8   9
ATOM      9  C   UNL     1       4.709   5.899  18.566  0.00  0.00    +0.000 A 
ATOM     10  C   UNL     1       5.990   5.479  18.972  0.00  0.00    +0.000 A 
ATOM     11  C   UNL     1       7.148   6.011  18.392  0.00  0.00    +0.000 A 
ATOM     12  C   UNL     1       7.058   6.993  17.404  0.00  0.00    +0.000 A 
ATOM     13  C   UNL     1       5.808   7.420  16.976  0.00  0.00    +0.000 A 
ATOM     14  C   UNL     1       4.654   6.864  17.537  0.00  0.00    +0.000 A 
ENDBRANCH   8   9
BRANCH   4  15
ATOM     15  O   UNL     1       3.686   1.118  18.121  0.00  0.00    +0.000 OA
ATOM     16  H   UNL     1       4.481   0.900  18.640  0.00  0.00    +0.000 HD
ENDBRANCH   4  15
BRANCH   6  17
ATOM     17  O   UNL     1       1.638   2.820  16.805  0.00  0.00    +0.000 OA
ATOM     18  H   UNL     1       1.560   3.465  16.077  0.00  0.00    +0.000 HD
ENDBRANCH   6  17
BRANCH   6  19
ATOM     19  C   UNL     1       3.857   3.638  16.628  0.00  0.00    +0.000 C 
ATOM     20  C   UNL     1       4.823   3.927  15.802  0.00  0.00    +0.000 C 
BRANCH  20  21
ATOM     21  C   UNL     1       5.833   4.203  14.827  0.00  0.00    +0.000 A 
ATOM     22  C   UNL     1       6.979   4.915  15.188  0.00  0.00    +0.000 A 
ATOM     23  C   UNL     1       7.958   5.203  14.237  0.00  0.00    +0.000 A 
ATOM     24  C   UNL     1       7.787   4.786  12.918  0.00  0.00    +0.000 A 
ATOM     25  C   UNL     1       6.638   4.086  12.550  0.00  0.00    +0.000 A 
ATOM     26  C   UNL     1       5.661   3.793  13.505  0.00  0.00    +0.000 A 
ENDBRANCH  20  21
ENDBRANCH   6  19
TORSDOF 5
ENDMDL
MODEL 5
REMARK VINA RESULT:      -6.7      0.895      1.710
REMARK  Name = 
REMARK  7 active torsions:
REMARK  status: ('A' for Active; 'I' for Inactive)
REMARK    1  A    between atoms: C_1  and  N_2
REMARK    2  A    between atoms: C_4  and  C_5
REMARK    3  A    between atoms: C_4  and  O_6
REMARK    4  A    between atoms: C_7  and  O_8
REMARK    5  A    between atoms: C_7  and  C_9
REMARK    6  A    between atoms: C_10  and  C_11
REMARK    7  A    between atoms: C_18  and  C_19
REMARK                            x       y       z     vdW  Elec       q    Type
REMARK                         _______ _______ _______ _____ _____    ______ ____
ROOT
ATOM      1  C   UNL     1       2.599   4.313  21.352  0.00  0.00    +0.000 C 
ATOM      2  N   UNL     1       3.570   4.286  20.268  0.00  0.00    +0.000 NA
ATOM      3  C   UNL     1       4.095   2.956  19.929  0.00  0.00    +0.000 C 
ATOM      4  C   UNL     1       3.278   2.058  18.972  0.00  0.00    +0.000 C 
ATOM      5  C   UNL     1       2.097   1.404  19.713  0.00  0.00    +0.000 C 
ATOM      6  C   UNL     1       2.804   2.867  17.733  0.00  0.00    +0.000 C 
ATOM      7  C   UNL     1       2.192   4.223  18.175  0.00  0.00    +0.000 C 
ATOM      8  C   UNL     1       3.126   5.070  19.097  0.00  0.00    +0.000 C 
ENDROOT
BRANCH   8   9
ATOM      9  C   UNL     1       4.280   5.856  18.438  0.00  0.00    +0.000 A 
ATOM     10  C   UNL     1       5.609   5.645  18.854  0.00  0.00    +0.000 A 
ATOM     11  C   UNL     1       6.678   6.301  18.233  0.00  0.00    +0.000 A 
ATOM     12  C   UNL     1       6.450   7.202  17.192  0.00  0.00    +0.000 A 
ATOM     13  C   UNL     1       5.151   7.424  16.754  0.00  0.00    +0.000 A 
ATOM     14  C   UNL     1       4.088   6.743  17.357  0.00  0.00    +0.000 A 
ENDBRANCH   8   9
BRANCH   4  15
ATOM     15  O   UNL     1       4.094   0.951  18.528  0.00  0.00    +0.000 OA
ATOM     16  H   UNL     1       4.829   0.852  19.160  0.00  0.00    +0.000 HD
ENDBRANCH   4  15
BRANCH   6  17
ATOM     17  O   UNL     1       1.840   2.121  16.989  0.00  0.00    +0.000 OA
ATOM     18  H   UNL     1       2.259   1.983  16.118  0.00  0.00    +0.000 HD
ENDBRANCH   6  17
BRANCH   6  19
ATOM     19  C   UNL     1       3.894   3.283  16.758  0.00  0.00    +0.000 C 
ATOM     20  C   UNL     1       4.828   3.640  15.922  0.00  0.00    +0.000 C 
BRANCH  20  21
ATOM     21  C   UNL     1       5.786   4.051  14.942  0.00  0.00    +0.000 A 
ATOM     22  C   UNL     1       5.578   3.757  13.593  0.00  0.00    +0.000 A 
ATOM     23  C   UNL     1       6.517   4.138  12.635  0.00  0.00    +0.000 A 
ATOM     24  C   UNL     1       7.674   4.809  13.028  0.00  0.00    +0.000 A 
ATOM     25  C   UNL     1       7.893   5.093  14.376  0.00  0.00    +0.000 A 
ATOM     26  C   UNL     1       6.948   4.716  15.333  0.00  0.00    +0.000 A 
ENDBRANCH  20  21
ENDBRANCH   6  19
TORSDOF 5
ENDMDL
MODEL 6
REMARK VINA RESULT:      -6.5      9.622     12.198
REMARK  Name = 
REMARK  7 active torsions:
REMARK  status: ('A' for Active; 'I' for Inactive)
REMARK    1  A    between atoms: C_1  and  N_2
REMARK    2  A    between atoms: C_4  and  C_5
REMARK    3  A    between atoms: C_4  and  O_6
REMARK    4  A    between atoms: C_7  and  O_8
REMARK    5  A    between atoms: C_7  and  C_9
REMARK    6  A    between atoms: C_10  and  C_11
REMARK    7  A    between atoms: C_18  and  C_19
REMARK                            x       y       z     vdW  Elec       q    Type
REMARK                         _______ _______ _______ _____ _____    ______ ____
ROOT
ATOM      1  C   UNL     1      10.388  15.146  17.344  0.00  0.00    +0.000 C 
ATOM      2  N   UNL     1       9.604  14.562  18.423  0.00  0.00    +0.000 NA
ATOM      3  C   UNL     1       9.262  13.143  18.254  0.00  0.00    +0.000 C 
ATOM      4  C   UNL     1      10.299  12.076  18.678  0.00  0.00    +0.000 C 
ATOM      5  C   UNL     1      11.404  11.938  17.615  0.00  0.00    +0.000 C 
ATOM      6  C   UNL     1      10.883  12.407  20.078  0.00  0.00    +0.000 C 
ATOM      7  C   UNL     1      11.292  13.903  20.155  0.00  0.00    +0.000 C 
ATOM      8  C   UNL     1      10.151  14.892  19.755  0.00  0.00    +0.000 C 
ENDROOT
BRANCH   8   9
ATOM      9  C   UNL     1       9.047  15.187  20.794  0.00  0.00    +0.000 A 
ATOM     10  C   UNL     1       7.695  14.956  20.474  0.00  0.00    +0.000 A 
ATOM     11  C   UNL     1       6.680  15.159  21.416  0.00  0.00    +0.000 A 
ATOM     12  C   UNL     1       6.985  15.618  22.699  0.00  0.00    +0.000 A 
ATOM     13  C   UNL     1       8.309  15.846  23.046  0.00  0.00    +0.000 A 
ATOM     14  C   UNL     1       9.324  15.613  22.111  0.00  0.00    +0.000 A 
ENDBRANCH   8   9
BRANCH   4  15
ATOM     15  O   UNL     1       9.666  10.778  18.725  0.00  0.00    +0.000 OA
ATOM     16  H   UNL     1       8.750  10.904  19.029  0.00  0.00    +0.000 HD
ENDBRANCH   4  15
BRANCH   6  17
ATOM     17  O   UNL     1      12.017  11.582  20.354  0.00  0.00    +0.000 OA
ATOM     18  H   UNL     1      12.783  12.173  20.230  0.00  0.00    +0.000 HD
ENDBRANCH   6  17
BRANCH   6  19
ATOM     19  C   UNL     1       9.926  12.252  21.249  0.00  0.00    +0.000 C 
ATOM     20  C   UNL     1       9.104  12.119  22.253  0.00  0.00    +0.000 C 
BRANCH  20  21
ATOM     21  C   UNL     1       8.214  12.066  23.371  0.00  0.00    +0.000 A 
ATOM     22  C   UNL     1       6.856  11.808  23.174  0.00  0.00    +0.000 A 
ATOM     23  C   UNL     1       5.980  11.774  24.258  0.00  0.00    +0.000 A 
ATOM     24  C   UNL     1       6.461  12.008  25.546  0.00  0.00    +0.000 A 
ATOM     25  C   UNL     1       7.815  12.279  25.747  0.00  0.00    +0.000 A 
ATOM     26  C   UNL     1       8.692  12.307  24.659  0.00  0.00    +0.000 A 
ENDBRANCH  20  21
ENDBRANCH   6  19
TORSDOF 5
ENDMDL
MODEL 7
REMARK VINA RESULT:      -6.4      9.366     11.158
REMARK  Name = 
REMARK  7 active torsions:
REMARK  status: ('A' for Active; 'I' for Inactive)
REMARK    1  A    between atoms: C_1  and  N_2
REMARK    2  A    between atoms: C_4  and  C_5
REMARK    3  A    between atoms: C_4  and  O_6
REMARK    4  A    between atoms: C_7  and  O_8
REMARK    5  A    between atoms: C_7  and  C_9
REMARK    6  A    between atoms: C_10  and  C_11
REMARK    7  A    between atoms: C_18  and  C_19
REMARK                            x       y       z     vdW  Elec       q    Type
REMARK                         _______ _______ _______ _____ _____    ______ ____
ROOT
ATOM      1  C   UNL     1       6.397  15.948  24.971  0.00  0.00    +0.000 C 
ATOM      2  N   UNL     1       7.384  15.344  24.088  0.00  0.00    +0.000 NA
ATOM      3  C   UNL     1       8.322  14.417  24.736  0.00  0.00    +0.000 C 
ATOM      4  C   UNL     1       7.885  12.949  24.948  0.00  0.00    +0.000 C 
ATOM      5  C   UNL     1       6.935  12.832  26.154  0.00  0.00    +0.000 C 
ATOM      6  C   UNL     1       7.248  12.375  23.653  0.00  0.00    +0.000 C 
ATOM      7  C   UNL     1       6.213  13.375  23.071  0.00  0.00    +0.000 C 
ATOM      8  C   UNL     1       6.778  14.814  22.848  0.00  0.00    +0.000 C 
ENDROOT
BRANCH   8   9
ATOM      9  C   UNL     1       7.657  15.067  21.604  0.00  0.00    +0.000 A 
ATOM     10  C   UNL     1       7.146  14.823  20.315  0.00  0.00    +0.000 A 
ATOM     11  C   UNL     1       7.902  15.099  19.169  0.00  0.00    +0.000 A 
ATOM     12  C   UNL     1       9.196  15.608  19.279  0.00  0.00    +0.000 A 
ATOM     13  C   UNL     1       9.724  15.868  20.537  0.00  0.00    +0.000 A 
ATOM     14  C   UNL     1       8.954  15.619  21.679  0.00  0.00    +0.000 A 
ENDBRANCH   8   9
BRANCH   4  15
ATOM     15  O   UNL     1       9.034  12.147  25.303  0.00  0.00    +0.000 OA
ATOM     16  H   UNL     1       9.308  12.402  26.202  0.00  0.00    +0.000 HD
ENDBRANCH   4  15
BRANCH   6  17
ATOM     17  O   UNL     1       6.612  11.124  23.922  0.00  0.00    +0.000 OA
ATOM     18  H   UNL     1       6.837  10.932  24.852  0.00  0.00    +0.000 HD
ENDBRANCH   6  17
BRANCH   6  19
ATOM     19  C   UNL     1       8.200  12.149  22.490  0.00  0.00    +0.000 C 
ATOM     20  C   UNL     1       9.017  11.956  21.492  0.00  0.00    +0.000 C 
BRANCH  20  21
ATOM     21  C   UNL     1       9.891  11.830  20.367  0.00  0.00    +0.000 A 
ATOM     22  C   UNL     1       9.374  11.502  19.111  0.00  0.00    +0.000 A 
ATOM     23  C   UNL     1      10.223  11.359  18.015  0.00  0.00    +0.000 A 
ATOM     24  C   UNL     1      11.597  11.535  18.174  0.00  0.00    +0.000 A 
ATOM     25  C   UNL     1      12.120  11.849  19.430  0.00  0.00    +0.000 A 
ATOM     26  C   UNL     1      11.267  11.997  20.526  0.00  0.00    +0.000 A 
ENDBRANCH  20  21
ENDBRANCH   6  19
TORSDOF 5
ENDMDL
MODEL 8
REMARK VINA RESULT:      -6.3      9.450     11.310
REMARK  Name = 
REMARK  7 active torsions:
REMARK  status: ('A' for Active; 'I' for Inactive)
REMARK    1  A    between atoms: C_1  and  N_2
REMARK    2  A    between atoms: C_4  and  C_5
REMARK    3  A    between atoms: C_4  and  O_6
REMARK    4  A    between atoms: C_7  and  O_8
REMARK    5  A    between atoms: C_7  and  C_9
REMARK    6  A    between atoms: C_10  and  C_11
REMARK    7  A    between atoms: C_18  and  C_19
REMARK                            x       y       z     vdW  Elec       q    Type
REMARK                         _______ _______ _______ _____ _____    ______ ____
ROOT
ATOM      1  C   UNL     1       7.271  16.018  25.374  0.00  0.00    +0.000 C 
ATOM      2  N   UNL     1       8.143  15.325  24.437  0.00  0.00    +0.000 NA
ATOM      3  C   UNL     1       8.784  14.109  24.957  0.00  0.00    +0.000 C 
ATOM      4  C   UNL     1       7.993  12.781  24.919  0.00  0.00    +0.000 C 
ATOM      5  C   UNL     1       6.961  12.727  26.060  0.00  0.00    +0.000 C 
ATOM      6  C   UNL     1       7.327  12.580  23.529  0.00  0.00    +0.000 C 
ATOM      7  C   UNL     1       6.607  13.880  23.082  0.00  0.00    +0.000 C 
ATOM      8  C   UNL     1       7.515  15.150  23.111  0.00  0.00    +0.000 C 
ENDROOT
BRANCH   8   9
ATOM      9  C   UNL     1       8.514  15.357  21.951  0.00  0.00    +0.000 A 
ATOM     10  C   UNL     1       8.051  15.432  20.623  0.00  0.00    +0.000 A 
ATOM     11  C   UNL     1       8.928  15.677  19.560  0.00  0.00    +0.000 A 
ATOM     12  C   UNL     1      10.295  15.835  19.790  0.00  0.00    +0.000 A 
ATOM     13  C   UNL     1      10.780  15.775  21.090  0.00  0.00    +0.000 A 
ATOM     14  C   UNL     1       9.896  15.560  22.153  0.00  0.00    +0.000 A 
ENDBRANCH   8   9
BRANCH   4  15
ATOM     15  O   UNL     1       8.887  11.676  25.177  0.00  0.00    +0.000 OA
ATOM     16  H   UNL     1       8.591  11.238  25.995  0.00  0.00    +0.000 HD
ENDBRANCH   4  15
BRANCH   6  17
ATOM     17  O   UNL     1       6.392  11.501  23.575  0.00  0.00    +0.000 OA
ATOM     18  H   UNL     1       5.962  11.515  22.699  0.00  0.00    +0.000 HD
ENDBRANCH   6  17
BRANCH   6  19
ATOM     19  C   UNL     1       8.276  12.298  22.375  0.00  0.00    +0.000 C 
ATOM     20  C   UNL     1       9.090  12.057  21.386  0.00  0.00    +0.000 C 
BRANCH  20  21
ATOM     21  C   UNL     1       9.963  11.878  20.267  0.00  0.00    +0.000 A 
ATOM     22  C   UNL     1      11.342  12.036  20.422  0.00  0.00    +0.000 A 
ATOM     23  C   UNL     1      12.196  11.882  19.330  0.00  0.00    +0.000 A 
ATOM     24  C   UNL     1      11.670  11.578  18.076  0.00  0.00    +0.000 A 
ATOM     25  C   UNL     1      10.291  11.433  17.913  0.00  0.00    +0.000 A 
ATOM     26  C   UNL     1       9.438  11.581  19.009  0.00  0.00    +0.000 A 
ENDBRANCH  20  21
ENDBRANCH   6  19
TORSDOF 5
ENDMDL
MODEL 9
REMARK VINA RESULT:      -6.3      9.683     12.399
REMARK  Name = 
REMARK  7 active torsions:
REMARK  status: ('A' for Active; 'I' for Inactive)
REMARK    1  A    between atoms: C_1  and  N_2
REMARK    2  A    between atoms: C_4  and  C_5
REMARK    3  A    between atoms: C_4  and  O_6
REMARK    4  A    between atoms: C_7  and  O_8
REMARK    5  A    between atoms: C_7  and  C_9
REMARK    6  A    between atoms: C_10  and  C_11
REMARK    7  A    between atoms: C_18  and  C_19
REMARK                            x       y       z     vdW  Elec       q    Type
REMARK                         _______ _______ _______ _____ _____    ______ ____
ROOT
ATOM      1  C   UNL     1      10.422  15.497  17.606  0.00  0.00    +0.000 C 
ATOM      2  N   UNL     1       9.647  14.914  18.692  0.00  0.00    +0.000 NA
ATOM      3  C   UNL     1       9.147  13.554  18.446  0.00  0.00    +0.000 C 
ATOM      4  C   UNL     1      10.088  12.358  18.722  0.00  0.00    +0.000 C 
ATOM      5  C   UNL     1      11.107  12.191  17.580  0.00  0.00    +0.000 C 
ATOM      6  C   UNL     1      10.787  12.518  20.100  0.00  0.00    +0.000 C 
ATOM      7  C   UNL     1      11.356  13.954  20.254  0.00  0.00    +0.000 C 
ATOM      8  C   UNL     1      10.306  15.083  20.004  0.00  0.00    +0.000 C 
ENDROOT
BRANCH   8   9
ATOM      9  C   UNL     1       9.303  15.406  21.133  0.00  0.00    +0.000 A 
ATOM     10  C   UNL     1       9.768  15.761  22.413  0.00  0.00    +0.000 A 
ATOM     11  C   UNL     1       8.882  16.116  23.437  0.00  0.00    +0.000 A 
ATOM     12  C   UNL     1       7.504  16.107  23.216  0.00  0.00    +0.000 A 
ATOM     13  C   UNL     1       7.015  15.770  21.961  0.00  0.00    +0.000 A 
ATOM     14  C   UNL     1       7.906  15.445  20.932  0.00  0.00    +0.000 A 
ENDBRANCH   8   9
BRANCH   4  15
ATOM     15  O   UNL     1       9.325  11.131  18.720  0.00  0.00    +0.000 OA
ATOM     16  H   UNL     1       9.910  10.416  19.029  0.00  0.00    +0.000 HD
ENDBRANCH   4  15
BRANCH   6  17
ATOM     17  O   UNL     1      11.841  11.564  20.239  0.00  0.00    +0.000 OA
ATOM     18  H   UNL     1      11.555  10.805  19.694  0.00  0.00    +0.000 HD
ENDBRANCH   6  17
BRANCH   6  19
ATOM     19  C   UNL     1       9.890  12.371  21.319  0.00  0.00    +0.000 C 
ATOM     20  C   UNL     1       9.121  12.245  22.364  0.00  0.00    +0.000 C 
BRANCH  20  21
ATOM     21  C   UNL     1       8.204  12.123  23.455  0.00  0.00    +0.000 A 
ATOM     22  C   UNL     1       6.862  11.823  23.211  0.00  0.00    +0.000 A 
ATOM     23  C   UNL     1       5.959  11.722  24.269  0.00  0.00    +0.000 A 
ATOM     24  C   UNL     1       6.396  11.931  25.576  0.00  0.00    +0.000 A 
ATOM     25  C   UNL     1       7.733  12.244  25.823  0.00  0.00    +0.000 A 
ATOM     26  C   UNL     1       8.638  12.339  24.763  0.00  0.00    +0.000 A 
ENDBRANCH  20  21
ENDBRANCH   6  19
TORSDOF 5
ENDMDL
