MODEL 1
REMARK VINA RESULT:      -6.5      0.000      0.000
REMARK  Name = 
REMARK  3 active torsions:
REMARK  status: ('A' for Active; 'I' for Inactive)
REMARK    1  A    between atoms: N_3  and  C_4
REMARK    2  A    between atoms: C_4  and  C_5
REMARK    3  A    between atoms: C_5  and  C_6
REMARK                            x       y       z     vdW  Elec       q    Type
REMARK                         _______ _______ _______ _____ _____    ______ ____
ROOT
ATOM      1  O   UNL     1       7.118   4.457  18.790  0.00  0.00    +0.000 OA
ATOM      2  C   UNL     1       6.183   5.029  18.235  0.00  0.00    +0.000 C 
ATOM      3  N   UNL     1       6.283   6.332  17.812  0.00  0.00    +0.000 N 
ATOM      4  N   UNL     1       4.990   4.393  17.949  0.00  0.00    +0.000 N 
ATOM      5  C   UNL     1       4.819   3.010  18.403  0.00  0.00    +0.000 C 
ATOM      6  C   UNL     1       3.976   2.925  19.675  0.00  0.00    +0.000 C 
ATOM      7  O   UNL     1       2.614   3.301  19.417  0.00  0.00    +0.000 OA
ATOM      8  C   UNL     1       2.435   4.655  19.560  0.00  0.00    +0.000 A 
ATOM      9  C   UNL     1       1.666   5.068  20.649  0.00  0.00    +0.000 A 
ATOM     10  C   UNL     1       1.430   6.422  20.853  0.00  0.00    +0.000 A 
ATOM     11  C   UNL     1       1.933   7.353  19.946  0.00  0.00    +0.000 A 
ATOM     12  C   UNL     1       2.678   6.934  18.835  0.00  0.00    +0.000 A 
ATOM     13 BR   UNL     1       3.271   8.302  17.655  0.00  0.00    +0.000 Br
ATOM     14  C   UNL     1       2.953   5.573  18.625  0.00  0.00    +0.000 A 
ATOM     15  C   UNL     1       3.773   5.049  17.471  0.00  0.00    +0.000 C 
ATOM     16  H   UNL     1       5.434   6.868  17.880  0.00  0.00    +0.000 HD
ENDROOT
BRANCH   3  17
ATOM     17  C   UNL     1       7.509   7.092  18.006  0.00  0.00    +0.000 C 
BRANCH  17  18
ATOM     18  C   UNL     1       7.486   8.445  17.286  0.00  0.00    +0.000 C 
BRANCH  18  19
ATOM     19  C   UNL     1       8.249   9.517  17.997  0.00  0.00    +0.000 A 
ATOM     20  C   UNL     1       8.264  10.825  17.555  0.00  0.00    +0.000 A 
ATOM     21  N   UNL     1       8.899  11.826  18.195  0.00  0.00    +0.000 NA
ATOM     22  C   UNL     1       9.538  11.480  19.322  0.00  0.00    +0.000 A 
ATOM     23  N   UNL     1       9.611  10.245  19.842  0.00  0.00    +0.000 NA
ATOM     24  C   UNL     1       8.956   9.285  19.158  0.00  0.00    +0.000 A 
ENDBRANCH  18  19
ENDBRANCH  17  18
ENDBRANCH   3  17
TORSDOF 3
ENDMDL
MODEL 2
REMARK VINA RESULT:      -6.4      9.219     11.919
REMARK  Name = 
REMARK  3 active torsions:
REMARK  status: ('A' for Active; 'I' for Inactive)
REMARK    1  A    between atoms: N_3  and  C_4
REMARK    2  A    between atoms: C_4  and  C_5
REMARK    3  A    between atoms: C_5  and  C_6
REMARK                            x       y       z     vdW  Elec       q    Type
REMARK                         _______ _______ _______ _____ _____    ______ ____
ROOT
ATOM      1  O   UNL     1      -0.593  11.354  23.106  0.00  0.00    +0.000 OA
ATOM      2  C   UNL     1      -1.233  11.982  22.267  0.00  0.00    +0.000 C 
ATOM      3  N   UNL     1      -2.539  12.351  22.483  0.00  0.00    +0.000 N 
ATOM      4  N   UNL     1      -0.678  12.408  21.076  0.00  0.00    +0.000 N 
ATOM      5  C   UNL     1       0.704  12.019  20.781  0.00  0.00    +0.000 C 
ATOM      6  C   UNL     1       0.772  10.843  19.808  0.00  0.00    +0.000 C 
ATOM      7  O   UNL     1       0.309  11.226  18.502  0.00  0.00    +0.000 OA
ATOM      8  C   UNL     1      -1.049  11.058  18.387  0.00  0.00    +0.000 A 
ATOM      9  C   UNL     1      -1.478  10.040  17.534  0.00  0.00    +0.000 A 
ATOM     10  C   UNL     1      -2.838   9.818  17.355  0.00  0.00    +0.000 A 
ATOM     11  C   UNL     1      -3.761  10.638  18.001  0.00  0.00    +0.000 A 
ATOM     12  C   UNL     1      -3.328  11.680  18.832  0.00  0.00    +0.000 A 
ATOM     13 BR   UNL     1      -4.689  12.749  19.620  0.00  0.00    +0.000 Br
ATOM     14  C   UNL     1      -1.959  11.905  19.049  0.00  0.00    +0.000 A 
ATOM     15  C   UNL     1      -1.418  12.986  19.954  0.00  0.00    +0.000 C 
ATOM     16  H   UNL     1      -3.123  12.351  21.664  0.00  0.00    +0.000 HD
ENDROOT
BRANCH   3  17
ATOM     17  C   UNL     1      -3.219  12.008  23.724  0.00  0.00    +0.000 C 
BRANCH  17  18
ATOM     18  C   UNL     1      -3.963  13.200  24.338  0.00  0.00    +0.000 C 
BRANCH  18  19
ATOM     19  C   UNL     1      -5.382  13.321  23.879  0.00  0.00    +0.000 A 
ATOM     20  C   UNL     1      -5.769  14.239  22.922  0.00  0.00    +0.000 A 
ATOM     21  N   UNL     1      -7.026  14.345  22.449  0.00  0.00    +0.000 NA
ATOM     22  C   UNL     1      -7.916  13.486  22.969  0.00  0.00    +0.000 A 
ATOM     23  N   UNL     1      -7.665  12.565  23.912  0.00  0.00    +0.000 NA
ATOM     24  C   UNL     1      -6.391  12.505  24.347  0.00  0.00    +0.000 A 
ENDBRANCH  18  19
ENDBRANCH  17  18
ENDBRANCH   3  17
TORSDOF 3
ENDMDL
MODEL 3
REMARK VINA RESULT:      -6.3      9.319     11.986
REMARK  Name = 
REMARK  3 active torsions:
REMARK  status: ('A' for Active; 'I' for Inactive)
REMARK    1  A    between atoms: N_3  and  C_4
REMARK    2  A    between atoms: C_4  and  C_5
REMARK    3  A    between atoms: C_5  and  C_6
REMARK                            x       y       z     vdW  Elec       q    Type
REMARK                         _______ _______ _______ _____ _____    ______ ____
ROOT
ATOM      1  O   UNL     1      -0.588  11.381  23.055  0.00  0.00    +0.000 OA
ATOM      2  C   UNL     1      -1.216  12.011  22.207  0.00  0.00    +0.000 C 
ATOM      3  N   UNL     1      -2.507  12.424  22.424  0.00  0.00    +0.000 N 
ATOM      4  N   UNL     1      -0.656  12.394  21.003  0.00  0.00    +0.000 N 
ATOM      5  C   UNL     1       0.711  11.957  20.707  0.00  0.00    +0.000 C 
ATOM      6  C   UNL     1       0.736  10.758  19.759  0.00  0.00    +0.000 C 
ATOM      7  O   UNL     1       0.274  11.128  18.449  0.00  0.00    +0.000 OA
ATOM      8  C   UNL     1      -1.089  10.999  18.347  0.00  0.00    +0.000 A 
ATOM      9  C   UNL     1      -1.555   9.977  17.518  0.00  0.00    +0.000 A 
ATOM     10  C   UNL     1      -2.922   9.793  17.354  0.00  0.00    +0.000 A 
ATOM     11  C   UNL     1      -3.815  10.654  17.988  0.00  0.00    +0.000 A 
ATOM     12  C   UNL     1      -3.344  11.700  18.793  0.00  0.00    +0.000 A 
ATOM     13 BR   UNL     1      -4.666  12.827  19.568  0.00  0.00    +0.000 Br
ATOM     14  C   UNL     1      -1.967  11.887  18.997  0.00  0.00    +0.000 A 
ATOM     15  C   UNL     1      -1.386  12.971  19.874  0.00  0.00    +0.000 C 
ATOM     16  H   UNL     1      -3.097  12.425  21.609  0.00  0.00    +0.000 HD
ENDROOT
BRANCH   3  17
ATOM     17  C   UNL     1      -3.189  12.129  23.677  0.00  0.00    +0.000 C 
BRANCH  17  18
ATOM     18  C   UNL     1      -3.787  13.379  24.332  0.00  0.00    +0.000 C 
BRANCH  18  19
ATOM     19  C   UNL     1      -5.254  13.539  24.090  0.00  0.00    +0.000 A 
ATOM     20  C   UNL     1      -6.143  12.493  24.239  0.00  0.00    +0.000 A 
ATOM     21  N   UNL     1      -7.475  12.611  24.078  0.00  0.00    +0.000 NA
ATOM     22  C   UNL     1      -7.914  13.836  23.754  0.00  0.00    +0.000 A 
ATOM     23  N   UNL     1      -7.150  14.924  23.564  0.00  0.00    +0.000 NA
ATOM     24  C   UNL     1      -5.826  14.745  23.740  0.00  0.00    +0.000 A 
ENDBRANCH  18  19
ENDBRANCH  17  18
ENDBRANCH   3  17
TORSDOF 3
ENDMDL
MODEL 4
REMARK VINA RESULT:      -6.2      3.531      4.493
REMARK  Name = 
REMARK  3 active torsions:
REMARK  status: ('A' for Active; 'I' for Inactive)
REMARK    1  A    between atoms: N_3  and  C_4
REMARK    2  A    between atoms: C_4  and  C_5
REMARK    3  A    between atoms: C_5  and  C_6
REMARK                            x       y       z     vdW  Elec       q    Type
REMARK                         _______ _______ _______ _____ _____    ______ ____
ROOT
ATOM      1  O   UNL     1       5.239   2.754  19.945  0.00  0.00    +0.000 OA
ATOM      2  C   UNL     1       4.620   3.475  19.167  0.00  0.00    +0.000 C 
ATOM      3  N   UNL     1       5.266   4.327  18.304  0.00  0.00    +0.000 N 
ATOM      4  N   UNL     1       3.243   3.445  19.063  0.00  0.00    +0.000 N 
ATOM      5  C   UNL     1       2.500   2.574  19.979  0.00  0.00    +0.000 C 
ATOM      6  C   UNL     1       1.891   3.354  21.143  0.00  0.00    +0.000 C 
ATOM      7  O   UNL     1       0.846   4.229  20.687  0.00  0.00    +0.000 OA
ATOM      8  C   UNL     1       1.347   5.452  20.316  0.00  0.00    +0.000 A 
ATOM      9  C   UNL     1       1.012   6.533  21.133  0.00  0.00    +0.000 A 
ATOM     10  C   UNL     1       1.471   7.806  20.815  0.00  0.00    +0.000 A 
ATOM     11  C   UNL     1       2.230   7.996  19.663  0.00  0.00    +0.000 A 
ATOM     12  C   UNL     1       2.538   6.915  18.826  0.00  0.00    +0.000 A 
ATOM     13 BR   UNL     1       3.547   7.318  17.265  0.00  0.00    +0.000 Br
ATOM     14  C   UNL     1       2.109   5.615  19.143  0.00  0.00    +0.000 A 
ATOM     15  C   UNL     1       2.427   4.398  18.309  0.00  0.00    +0.000 C 
ATOM     16  H   UNL     1       4.787   5.193  18.123  0.00  0.00    +0.000 HD
ENDROOT
BRANCH   3  17
ATOM     17  C   UNL     1       6.719   4.409  18.279  0.00  0.00    +0.000 C 
BRANCH  17  18
ATOM     18  C   UNL     1       7.238   5.371  17.204  0.00  0.00    +0.000 C 
BRANCH  18  19
ATOM     19  C   UNL     1       6.997   4.895  15.807  0.00  0.00    +0.000 A 
ATOM     20  C   UNL     1       6.166   3.828  15.526  0.00  0.00    +0.000 A 
ATOM     21  N   UNL     1       5.887   3.403  14.278  0.00  0.00    +0.000 NA
ATOM     22  C   UNL     1       6.476   4.087  13.287  0.00  0.00    +0.000 A 
ATOM     23  N   UNL     1       7.314   5.125  13.433  0.00  0.00    +0.000 NA
ATOM     24  C   UNL     1       7.555   5.506  14.703  0.00  0.00    +0.000 A 
ENDBRANCH  18  19
ENDBRANCH  17  18
ENDBRANCH   3  17
TORSDOF 3
ENDMDL
MODEL 5
REMARK VINA RESULT:      -6.2      9.116     11.349
REMARK  Name = 
REMARK  3 active torsions:
REMARK  status: ('A' for Active; 'I' for Inactive)
REMARK    1  A    between atoms: N_3  and  C_4
REMARK    2  A    between atoms: C_4  and  C_5
REMARK    3  A    between atoms: C_5  and  C_6
REMARK                            x       y       z     vdW  Elec       q    Type
REMARK                         _______ _______ _______ _____ _____    ______ ____
ROOT
ATOM      1  O   UNL     1      -3.892  10.299  18.054  0.00  0.00    +0.000 OA
ATOM      2  C   UNL     1      -4.076  11.456  18.422  0.00  0.00    +0.000 C 
ATOM      3  N   UNL     1      -3.028  12.295  18.714  0.00  0.00    +0.000 N 
ATOM      4  N   UNL     1      -5.336  12.013  18.517  0.00  0.00    +0.000 N 
ATOM      5  C   UNL     1      -6.493  11.154  18.244  0.00  0.00    +0.000 C 
ATOM      6  C   UNL     1      -7.161  10.669  19.530  0.00  0.00    +0.000 C 
ATOM      7  O   UNL     1      -7.786  11.758  20.229  0.00  0.00    +0.000 OA
ATOM      8  C   UNL     1      -6.905  12.368  21.088  0.00  0.00    +0.000 A 
ATOM      9  C   UNL     1      -7.149  12.199  22.451  0.00  0.00    +0.000 A 
ATOM     10  C   UNL     1      -6.309  12.798  23.382  0.00  0.00    +0.000 A 
ATOM     11  C   UNL     1      -5.251  13.593  22.944  0.00  0.00    +0.000 A 
ATOM     12  C   UNL     1      -5.027  13.788  21.574  0.00  0.00    +0.000 A 
ATOM     13 BR   UNL     1      -3.576  14.926  21.113  0.00  0.00    +0.000 Br
ATOM     14  C   UNL     1      -5.847  13.169  20.616  0.00  0.00    +0.000 A 
ATOM     15  C   UNL     1      -5.648  13.307  19.126  0.00  0.00    +0.000 C 
ATOM     16  H   UNL     1      -3.200  12.948  19.460  0.00  0.00    +0.000 HD
ENDROOT
BRANCH   3  17
ATOM     17  C   UNL     1      -1.649  11.841  18.598  0.00  0.00    +0.000 C 
BRANCH  17  18
ATOM     18  C   UNL     1      -0.770  12.323  19.757  0.00  0.00    +0.000 C 
BRANCH  18  19
ATOM     19  C   UNL     1      -0.638  11.326  20.865  0.00  0.00    +0.000 A 
ATOM     20  C   UNL     1      -0.389   9.989  20.625  0.00  0.00    +0.000 A 
ATOM     21  N   UNL     1      -0.216   9.072  21.597  0.00  0.00    +0.000 NA
ATOM     22  C   UNL     1      -0.300   9.534  22.852  0.00  0.00    +0.000 A 
ATOM     23  N   UNL     1      -0.554  10.802  23.212  0.00  0.00    +0.000 NA
ATOM     24  C   UNL     1      -0.717  11.675  22.197  0.00  0.00    +0.000 A 
ENDBRANCH  18  19
ENDBRANCH  17  18
ENDBRANCH   3  17
TORSDOF 3
ENDMDL
MODEL 6
REMARK VINA RESULT:      -6.2      9.339     11.633
REMARK  Name = 
REMARK  3 active torsions:
REMARK  status: ('A' for Active; 'I' for Inactive)
REMARK    1  A    between atoms: N_3  and  C_4
REMARK    2  A    between atoms: C_4  and  C_5
REMARK    3  A    between atoms: C_5  and  C_6
REMARK                            x       y       z     vdW  Elec       q    Type
REMARK                         _______ _______ _______ _____ _____    ______ ____
ROOT
ATOM      1  O   UNL     1      -4.482  10.802  18.233  0.00  0.00    +0.000 OA
ATOM      2  C   UNL     1      -4.417  11.884  18.811  0.00  0.00    +0.000 C 
ATOM      3  N   UNL     1      -3.212  12.445  19.157  0.00  0.00    +0.000 N 
ATOM      4  N   UNL     1      -5.538  12.636  19.106  0.00  0.00    +0.000 N 
ATOM      5  C   UNL     1      -6.852  12.072  18.783  0.00  0.00    +0.000 C 
ATOM      6  C   UNL     1      -7.541  11.486  20.015  0.00  0.00    +0.000 C 
ATOM      7  O   UNL     1      -7.906  12.522  20.943  0.00  0.00    +0.000 OA
ATOM      8  C   UNL     1      -6.882  12.787  21.819  0.00  0.00    +0.000 A 
ATOM      9  C   UNL     1      -7.090  12.414  23.148  0.00  0.00    +0.000 A 
ATOM     10  C   UNL     1      -6.105  12.663  24.096  0.00  0.00    +0.000 A 
ATOM     11  C   UNL     1      -4.934  13.316  23.718  0.00  0.00    +0.000 A 
ATOM     12  C   UNL     1      -4.741  13.719  22.389  0.00  0.00    +0.000 A 
ATOM     13 BR   UNL     1      -3.118  14.636  22.015  0.00  0.00    +0.000 Br
ATOM     14  C   UNL     1      -5.711  13.453  21.409  0.00  0.00    +0.000 A 
ATOM     15  C   UNL     1      -5.561  13.828  19.954  0.00  0.00    +0.000 C 
ATOM     16  H   UNL     1      -3.217  12.967  20.017  0.00  0.00    +0.000 HD
ENDROOT
BRANCH   3  17
ATOM     17  C   UNL     1      -1.957  11.774  18.851  0.00  0.00    +0.000 C 
BRANCH  17  18
ATOM     18  C   UNL     1      -0.827  12.171  19.807  0.00  0.00    +0.000 C 
BRANCH  18  19
ATOM     19  C   UNL     1      -0.622  11.203  20.929  0.00  0.00    +0.000 A 
ATOM     20  C   UNL     1      -0.856  11.544  22.247  0.00  0.00    +0.000 A 
ATOM     21  N   UNL     1      -0.730  10.685  23.277  0.00  0.00    +0.000 NA
ATOM     22  C   UNL     1      -0.353   9.440  22.952  0.00  0.00    +0.000 A 
ATOM     23  N   UNL     1      -0.081   8.994  21.715  0.00  0.00    +0.000 NA
ATOM     24  C   UNL     1      -0.225   9.897  20.725  0.00  0.00    +0.000 A 
ENDBRANCH  18  19
ENDBRANCH  17  18
ENDBRANCH   3  17
TORSDOF 3
ENDMDL
MODEL 7
REMARK VINA RESULT:      -6.2      7.601     10.224
REMARK  Name = 
REMARK  3 active torsions:
REMARK  status: ('A' for Active; 'I' for Inactive)
REMARK    1  A    between atoms: N_3  and  C_4
REMARK    2  A    between atoms: C_4  and  C_5
REMARK    3  A    between atoms: C_5  and  C_6
REMARK                            x       y       z     vdW  Elec       q    Type
REMARK                         _______ _______ _______ _____ _____    ______ ____
ROOT
ATOM      1  O   UNL     1       2.560  12.473  17.749  0.00  0.00    +0.000 OA
ATOM      2  C   UNL     1       2.022  13.241  18.543  0.00  0.00    +0.000 C 
ATOM      3  N   UNL     1       0.813  12.947  19.123  0.00  0.00    +0.000 N 
ATOM      4  N   UNL     1       2.614  14.422  18.949  0.00  0.00    +0.000 N 
ATOM      5  C   UNL     1       3.893  14.798  18.340  0.00  0.00    +0.000 C 
ATOM      6  C   UNL     1       3.717  15.852  17.246  0.00  0.00    +0.000 C 
ATOM      7  O   UNL     1       3.296  17.108  17.803  0.00  0.00    +0.000 OA
ATOM      8  C   UNL     1       1.928  17.179  17.891  0.00  0.00    +0.000 A 
ATOM      9  C   UNL     1       1.296  18.082  17.034  0.00  0.00    +0.000 A 
ATOM     10  C   UNL     1      -0.085  18.220  17.075  0.00  0.00    +0.000 A 
ATOM     11  C   UNL     1      -0.825  17.483  17.997  0.00  0.00    +0.000 A 
ATOM     12  C   UNL     1      -0.186  16.601  18.880  0.00  0.00    +0.000 A 
ATOM     13 BR   UNL     1      -1.306  15.687  20.114  0.00  0.00    +0.000 Br
ATOM     14  C   UNL     1       1.207  16.424  18.837  0.00  0.00    +0.000 A 
ATOM     15  C   UNL     1       1.961  15.471  19.733  0.00  0.00    +0.000 C 
ATOM     16  H   UNL     1       0.217  13.740  19.290  0.00  0.00    +0.000 HD
ENDROOT
BRANCH   3  17
ATOM     17  C   UNL     1       0.116  11.706  18.818  0.00  0.00    +0.000 C 
BRANCH  17  18
ATOM     18  C   UNL     1       0.280  10.651  19.917  0.00  0.00    +0.000 C 
BRANCH  18  19
ATOM     19  C   UNL     1       1.091   9.466  19.497  0.00  0.00    +0.000 A 
ATOM     20  C   UNL     1       1.429   8.456  20.376  0.00  0.00    +0.000 A 
ATOM     21  N   UNL     1       2.115   7.353  20.022  0.00  0.00    +0.000 NA
ATOM     22  C   UNL     1       2.468   7.277  18.731  0.00  0.00    +0.000 A 
ATOM     23  N   UNL     1       2.215   8.198  17.788  0.00  0.00    +0.000 NA
ATOM     24  C   UNL     1       1.525   9.281  18.200  0.00  0.00    +0.000 A 
ENDBRANCH  18  19
ENDBRANCH  17  18
ENDBRANCH   3  17
TORSDOF 3
ENDMDL
MODEL 8
REMARK VINA RESULT:      -6.2      8.777     11.521
REMARK  Name = 
REMARK  3 active torsions:
REMARK  status: ('A' for Active; 'I' for Inactive)
REMARK    1  A    between atoms: N_3  and  C_4
REMARK    2  A    between atoms: C_4  and  C_5
REMARK    3  A    between atoms: C_5  and  C_6
REMARK                            x       y       z     vdW  Elec       q    Type
REMARK                         _______ _______ _______ _____ _____    ______ ____
ROOT
ATOM      1  O   UNL     1       2.439  12.464  17.961  0.00  0.00    +0.000 OA
ATOM      2  C   UNL     1       1.914  13.280  18.714  0.00  0.00    +0.000 C 
ATOM      3  N   UNL     1       0.694  13.042  19.298  0.00  0.00    +0.000 N 
ATOM      4  N   UNL     1       2.529  14.465  19.069  0.00  0.00    +0.000 N 
ATOM      5  C   UNL     1       3.821  14.783  18.453  0.00  0.00    +0.000 C 
ATOM      6  C   UNL     1       3.678  15.787  17.310  0.00  0.00    +0.000 C 
ATOM      7  O   UNL     1       3.282  17.078  17.803  0.00  0.00    +0.000 OA
ATOM      8  C   UNL     1       1.915  17.184  17.876  0.00  0.00    +0.000 A 
ATOM      9  C   UNL     1       1.311  18.059  16.972  0.00  0.00    +0.000 A 
ATOM     10  C   UNL     1      -0.067  18.231  16.995  0.00  0.00    +0.000 A 
ATOM     11  C   UNL     1      -0.830  17.555  17.945  0.00  0.00    +0.000 A 
ATOM     12  C   UNL     1      -0.218  16.702  18.873  0.00  0.00    +0.000 A 
ATOM     13 BR   UNL     1      -1.368  15.873  20.140  0.00  0.00    +0.000 Br
ATOM     14  C   UNL     1       1.170  16.492  18.850  0.00  0.00    +0.000 A 
ATOM     15  C   UNL     1       1.896  15.565  19.797  0.00  0.00    +0.000 C 
ATOM     16  H   UNL     1       0.115  13.855  19.422  0.00  0.00    +0.000 HD
ENDROOT
BRANCH   3  17
ATOM     17  C   UNL     1      -0.030  11.804  19.045  0.00  0.00    +0.000 C 
BRANCH  17  18
ATOM     18  C   UNL     1      -1.464  11.837  19.585  0.00  0.00    +0.000 C 
BRANCH  18  19
ATOM     19  C   UNL     1      -2.507  11.637  18.532  0.00  0.00    +0.000 A 
ATOM     20  C   UNL     1      -3.846  11.882  18.766  0.00  0.00    +0.000 A 
ATOM     21  N   UNL     1      -4.805  11.759  17.829  0.00  0.00    +0.000 NA
ATOM     22  C   UNL     1      -4.386  11.374  16.615  0.00  0.00    +0.000 A 
ATOM     23  N   UNL     1      -3.120  11.091  16.270  0.00  0.00    +0.000 NA
ATOM     24  C   UNL     1      -2.203  11.232  17.248  0.00  0.00    +0.000 A 
ENDBRANCH  18  19
ENDBRANCH  17  18
ENDBRANCH   3  17
TORSDOF 3
ENDMDL
MODEL 9
REMARK VINA RESULT:      -6.1      3.855      6.292
REMARK  Name = 
REMARK  3 active torsions:
REMARK  status: ('A' for Active; 'I' for Inactive)
REMARK    1  A    between atoms: N_3  and  C_4
REMARK    2  A    between atoms: C_4  and  C_5
REMARK    3  A    between atoms: C_5  and  C_6
REMARK                            x       y       z     vdW  Elec       q    Type
REMARK                         _______ _______ _______ _____ _____    ______ ____
ROOT
ATOM      1  O   UNL     1       1.304   5.020  19.828  0.00  0.00    +0.000 OA
ATOM      2  C   UNL     1       2.487   5.316  19.677  0.00  0.00    +0.000 C 
ATOM      3  N   UNL     1       2.910   6.623  19.687  0.00  0.00    +0.000 N 
ATOM      4  N   UNL     1       3.478   4.364  19.542  0.00  0.00    +0.000 N 
ATOM      5  C   UNL     1       3.079   2.954  19.497  0.00  0.00    +0.000 C 
ATOM      6  C   UNL     1       3.063   2.409  18.069  0.00  0.00    +0.000 C 
ATOM      7  O   UNL     1       4.393   2.337  17.529  0.00  0.00    +0.000 OA
ATOM      8  C   UNL     1       4.748   3.516  16.922  0.00  0.00    +0.000 A 
ATOM      9  C   UNL     1       4.876   3.485  15.533  0.00  0.00    +0.000 A 
ATOM     10  C   UNL     1       5.246   4.637  14.849  0.00  0.00    +0.000 A 
ATOM     11  C   UNL     1       5.522   5.802  15.561  0.00  0.00    +0.000 A 
ATOM     12  C   UNL     1       5.425   5.823  16.959  0.00  0.00    +0.000 A 
ATOM     13 BR   UNL     1       5.868   7.464  17.809  0.00  0.00    +0.000 Br
ATOM     14  C   UNL     1       5.025   4.678  17.668  0.00  0.00    +0.000 A 
ATOM     15  C   UNL     1       4.867   4.632  19.169  0.00  0.00    +0.000 C 
ATOM     16  H   UNL     1       3.678   6.826  19.070  0.00  0.00    +0.000 HD
ENDROOT
BRANCH   3  17
ATOM     17  C   UNL     1       1.967   7.716  19.877  0.00  0.00    +0.000 C 
BRANCH  17  18
ATOM     18  C   UNL     1       1.521   7.863  21.336  0.00  0.00    +0.000 C 
BRANCH  18  19
ATOM     19  C   UNL     1       0.703   9.089  21.592  0.00  0.00    +0.000 A 
ATOM     20  C   UNL     1       0.324   9.467  22.866  0.00  0.00    +0.000 A 
ATOM     21  N   UNL     1      -0.371  10.588  23.139  0.00  0.00    +0.000 NA
ATOM     22  C   UNL     1      -0.688  11.348  22.081  0.00  0.00    +0.000 A 
ATOM     23  N   UNL     1      -0.392  11.079  20.799  0.00  0.00    +0.000 NA
ATOM     24  C   UNL     1       0.304   9.945  20.586  0.00  0.00    +0.000 A 
ENDBRANCH  18  19
ENDBRANCH  17  18
ENDBRANCH   3  17
TORSDOF 3
ENDMDL
