MODEL 1
REMARK VINA RESULT:      -7.4      0.000      0.000
REMARK  Name = 
REMARK  2 active torsions:
REMARK  status: ('A' for Active; 'I' for Inactive)
REMARK    1  A    between atoms: C_2  and  C_3
REMARK    2  A    between atoms: N_10  and  C_11
REMARK                            x       y       z     vdW  Elec       q    Type
REMARK                         _______ _______ _______ _____ _____    ______ ____
ROOT
ATOM      1  C   UNL     1       0.867  10.257  19.173  0.00  0.00    +0.000 A 
ATOM      2  C   UNL     1       1.700   9.981  18.089  0.00  0.00    +0.000 A 
ATOM      3  C   UNL     1       2.374   8.756  18.032  0.00  0.00    +0.000 A 
ATOM      4  C   UNL     1       2.193   7.832  19.063  0.00  0.00    +0.000 A 
ATOM      5  N   UNL     1       2.965   6.629  19.058  0.00  0.00    +0.000 N 
ATOM      6  N   UNL     1       3.881   6.358  18.093  0.00  0.00    +0.000 NA
ATOM      7  C   UNL     1       4.488   5.268  18.573  0.00  0.00    +0.000 A 
ATOM      8  N   UNL     1       5.551   4.630  18.057  0.00  0.00    +0.000 N 
ATOM      9  N   UNL     1       3.957   4.777  19.728  0.00  0.00    +0.000 NA
ATOM     10  C   UNL     1       2.962   5.591  19.984  0.00  0.00    +0.000 A 
ATOM     11  N   UNL     1       2.063   5.446  20.977  0.00  0.00    +0.000 N 
ATOM     12  N   UNL     1       1.346   8.071  20.105  0.00  0.00    +0.000 NA
ATOM     13  C   UNL     1       0.723   9.278  20.143  0.00  0.00    +0.000 A 
ATOM     14  H   UNL     1       6.078   4.033  18.683  0.00  0.00    +0.000 HD
ATOM     15  H   UNL     1       1.974   4.533  21.411  0.00  0.00    +0.000 HD
ATOM     16  H   UNL     1       1.216   6.015  20.973  0.00  0.00    +0.000 HD
ENDROOT
BRANCH   8  17
ATOM     17  C   UNL     1       5.989   4.576  16.717  0.00  0.00    +0.000 A 
ATOM     18  C   UNL     1       5.481   3.612  15.833  0.00  0.00    +0.000 A 
ATOM     19  C   UNL     1       5.852   3.591  14.487  0.00  0.00    +0.000 A 
ATOM     20  C   UNL     1       6.718   4.560  13.991  0.00  0.00    +0.000 A 
ATOM     21  C   UNL     1       7.236   5.530  14.847  0.00  0.00    +0.000 A 
ATOM     22  C   UNL     1       6.882   5.532  16.200  0.00  0.00    +0.000 A 
ATOM     23 CL   UNL     1       7.565   6.754  17.220  0.00  0.00    +0.000 Cl
ENDBRANCH   8  17
BRANCH   1  25
ATOM     24  N   UNL     1      -0.347  12.531  19.407  0.00  0.00    +0.000 NA
ATOM     25  C   UNL     1       0.195  11.512  19.302  0.00  0.00    +0.000 C 
ENDBRANCH   1  25
TORSDOF 2
ENDMDL
MODEL 2
REMARK VINA RESULT:      -7.2      2.613      4.312
REMARK  Name = 
REMARK  2 active torsions:
REMARK  status: ('A' for Active; 'I' for Inactive)
REMARK    1  A    between atoms: C_2  and  C_3
REMARK    2  A    between atoms: N_10  and  C_11
REMARK                            x       y       z     vdW  Elec       q    Type
REMARK                         _______ _______ _______ _____ _____    ______ ____
ROOT
ATOM      1  C   UNL     1      -0.925  11.119  22.194  0.00  0.00    +0.000 A 
ATOM      2  C   UNL     1      -0.555   9.797  22.432  0.00  0.00    +0.000 A 
ATOM      3  C   UNL     1       0.269   9.135  21.516  0.00  0.00    +0.000 A 
ATOM      4  C   UNL     1       0.708   9.820  20.380  0.00  0.00    +0.000 A 
ATOM      5  N   UNL     1       1.460   9.111  19.392  0.00  0.00    +0.000 N 
ATOM      6  N   UNL     1       1.750   7.790  19.509  0.00  0.00    +0.000 NA
ATOM      7  C   UNL     1       2.270   7.503  18.312  0.00  0.00    +0.000 A 
ATOM      8  N   UNL     1       2.642   6.299  17.849  0.00  0.00    +0.000 N 
ATOM      9  N   UNL     1       2.417   8.572  17.480  0.00  0.00    +0.000 NA
ATOM     10  C   UNL     1       1.975   9.583  18.189  0.00  0.00    +0.000 A 
ATOM     11  N   UNL     1       2.020  10.879  17.825  0.00  0.00    +0.000 N 
ATOM     12  N   UNL     1       0.391  11.128  20.159  0.00  0.00    +0.000 NA
ATOM     13  C   UNL     1      -0.429  11.735  21.056  0.00  0.00    +0.000 A 
ATOM     14  H   UNL     1       2.715   6.195  16.844  0.00  0.00    +0.000 HD
ATOM     15  H   UNL     1       2.655  11.143  17.078  0.00  0.00    +0.000 HD
ATOM     16  H   UNL     1       1.838  11.601  18.521  0.00  0.00    +0.000 HD
ENDROOT
BRANCH   8  17
ATOM     17  C   UNL     1       3.064   5.162  18.570  0.00  0.00    +0.000 A 
ATOM     18  C   UNL     1       2.128   4.273  19.120  0.00  0.00    +0.000 A 
ATOM     19  C   UNL     1       2.530   3.106  19.774  0.00  0.00    +0.000 A 
ATOM     20  C   UNL     1       3.882   2.791  19.863  0.00  0.00    +0.000 A 
ATOM     21  C   UNL     1       4.832   3.657  19.325  0.00  0.00    +0.000 A 
ATOM     22  C   UNL     1       4.427   4.837  18.692  0.00  0.00    +0.000 A 
ATOM     23 CL   UNL     1       5.651   5.881  18.052  0.00  0.00    +0.000 Cl
ENDBRANCH   8  17
BRANCH   1  25
ATOM     24  N   UNL     1      -2.518  12.390  23.791  0.00  0.00    +0.000 NA
ATOM     25  C   UNL     1      -1.805  11.823  23.075  0.00  0.00    +0.000 C 
ENDBRANCH   1  25
TORSDOF 2
ENDMDL
MODEL 3
REMARK VINA RESULT:      -7.0      2.968      4.444
REMARK  Name = 
REMARK  2 active torsions:
REMARK  status: ('A' for Active; 'I' for Inactive)
REMARK    1  A    between atoms: C_2  and  C_3
REMARK    2  A    between atoms: N_10  and  C_11
REMARK                            x       y       z     vdW  Elec       q    Type
REMARK                         _______ _______ _______ _____ _____    ______ ____
ROOT
ATOM      1  C   UNL     1      -0.895  10.853  22.103  0.00  0.00    +0.000 A 
ATOM      2  C   UNL     1      -0.407   9.557  22.269  0.00  0.00    +0.000 A 
ATOM      3  C   UNL     1       0.460   9.018  21.312  0.00  0.00    +0.000 A 
ATOM      4  C   UNL     1       0.823   9.797  20.211  0.00  0.00    +0.000 A 
ATOM      5  N   UNL     1       1.621   9.209  19.180  0.00  0.00    +0.000 N 
ATOM      6  N   UNL     1       2.027   7.914  19.226  0.00  0.00    +0.000 NA
ATOM      7  C   UNL     1       2.555   7.737  18.011  0.00  0.00    +0.000 A 
ATOM      8  N   UNL     1       3.025   6.595  17.482  0.00  0.00    +0.000 N 
ATOM      9  N   UNL     1       2.597   8.856  17.235  0.00  0.00    +0.000 NA
ATOM     10  C   UNL     1       2.077   9.786  18.000  0.00  0.00    +0.000 A 
ATOM     11  N   UNL     1       2.005  11.098  17.704  0.00  0.00    +0.000 N 
ATOM     12  N   UNL     1       0.390  11.082  20.061  0.00  0.00    +0.000 NA
ATOM     13  C   UNL     1      -0.468  11.567  20.996  0.00  0.00    +0.000 A 
ATOM     14  H   UNL     1       3.094   6.550  16.473  0.00  0.00    +0.000 HD
ATOM     15  H   UNL     1       2.604  11.454  16.967  0.00  0.00    +0.000 HD
ATOM     16  H   UNL     1       1.769  11.764  18.438  0.00  0.00    +0.000 HD
ENDROOT
BRANCH   8  17
ATOM     17  C   UNL     1       3.554   5.464  18.140  0.00  0.00    +0.000 A 
ATOM     18  C   UNL     1       4.839   5.496  18.702  0.00  0.00    +0.000 A 
ATOM     19  C   UNL     1       5.348   4.410  19.417  0.00  0.00    +0.000 A 
ATOM     20  C   UNL     1       4.563   3.278  19.610  0.00  0.00    +0.000 A 
ATOM     21  C   UNL     1       3.282   3.220  19.063  0.00  0.00    +0.000 A 
ATOM     22  C   UNL     1       2.785   4.301  18.326  0.00  0.00    +0.000 A 
ATOM     23 CL   UNL     1       1.193   4.170  17.660  0.00  0.00    +0.000 Cl
ENDBRANCH   8  17
BRANCH   1  25
ATOM     24  N   UNL     1      -2.570  11.896  23.779  0.00  0.00    +0.000 NA
ATOM     25  C   UNL     1      -1.821  11.429  23.027  0.00  0.00    +0.000 C 
ENDBRANCH   1  25
TORSDOF 2
ENDMDL
MODEL 4
REMARK VINA RESULT:      -6.9      1.271      1.402
REMARK  Name = 
REMARK  2 active torsions:
REMARK  status: ('A' for Active; 'I' for Inactive)
REMARK    1  A    between atoms: C_2  and  C_3
REMARK    2  A    between atoms: N_10  and  C_11
REMARK                            x       y       z     vdW  Elec       q    Type
REMARK                         _______ _______ _______ _____ _____    ______ ____
ROOT
ATOM      1  C   UNL     1       0.660   9.077  20.761  0.00  0.00    +0.000 A 
ATOM      2  C   UNL     1       1.495   9.081  19.644  0.00  0.00    +0.000 A 
ATOM      3  C   UNL     1       2.174   7.911  19.287  0.00  0.00    +0.000 A 
ATOM      4  C   UNL     1       1.995   6.760  20.057  0.00  0.00    +0.000 A 
ATOM      5  N   UNL     1       2.771   5.597  19.755  0.00  0.00    +0.000 N 
ATOM      6  N   UNL     1       3.689   5.576  18.756  0.00  0.00    +0.000 NA
ATOM      7  C   UNL     1       4.300   4.404  18.953  0.00  0.00    +0.000 A 
ATOM      8  N   UNL     1       5.366   3.917  18.297  0.00  0.00    +0.000 N 
ATOM      9  N   UNL     1       3.769   3.640  19.948  0.00  0.00    +0.000 NA
ATOM     10  C   UNL     1       2.770   4.362  20.396  0.00  0.00    +0.000 A 
ATOM     11  N   UNL     1       1.871   3.974  21.320  0.00  0.00    +0.000 N 
ATOM     12  N   UNL     1       1.146   6.730  21.124  0.00  0.00    +0.000 NA
ATOM     13  C   UNL     1       0.518   7.888  21.458  0.00  0.00    +0.000 A 
ATOM     14  H   UNL     1       5.895   3.185  18.757  0.00  0.00    +0.000 HD
ATOM     15  H   UNL     1       1.784   2.981  21.514  0.00  0.00    +0.000 HD
ATOM     16  H   UNL     1       1.022   4.522  21.455  0.00  0.00    +0.000 HD
ENDROOT
BRANCH   8  17
ATOM     17  C   UNL     1       5.807   4.198  16.986  0.00  0.00    +0.000 A 
ATOM     18  C   UNL     1       5.116   3.695  15.873  0.00  0.00    +0.000 A 
ATOM     19  C   UNL     1       5.498   4.023  14.571  0.00  0.00    +0.000 A 
ATOM     20  C   UNL     1       6.564   4.891  14.358  0.00  0.00    +0.000 A 
ATOM     21  C   UNL     1       7.266   5.406  15.446  0.00  0.00    +0.000 A 
ATOM     22  C   UNL     1       6.897   5.055  16.749  0.00  0.00    +0.000 A 
ATOM     23 CL   UNL     1       7.812   5.715  18.062  0.00  0.00    +0.000 Cl
ENDBRANCH   8  17
BRANCH   1  25
ATOM     24  N   UNL     1      -0.565  11.217  21.550  0.00  0.00    +0.000 NA
ATOM     25  C   UNL     1      -0.017  10.259  21.195  0.00  0.00    +0.000 C 
ENDBRANCH   1  25
TORSDOF 2
ENDMDL
MODEL 5
REMARK VINA RESULT:      -6.7      1.186      1.544
REMARK  Name = 
REMARK  2 active torsions:
REMARK  status: ('A' for Active; 'I' for Inactive)
REMARK    1  A    between atoms: C_2  and  C_3
REMARK    2  A    between atoms: N_10  and  C_11
REMARK                            x       y       z     vdW  Elec       q    Type
REMARK                         _______ _______ _______ _____ _____    ______ ____
ROOT
ATOM      1  C   UNL     1       0.701  10.240  19.335  0.00  0.00    +0.000 A 
ATOM      2  C   UNL     1       1.447   9.956  18.192  0.00  0.00    +0.000 A 
ATOM      3  C   UNL     1       2.172   8.760  18.121  0.00  0.00    +0.000 A 
ATOM      4  C   UNL     1       2.126   7.873  19.199  0.00  0.00    +0.000 A 
ATOM      5  N   UNL     1       2.951   6.706  19.170  0.00  0.00    +0.000 N 
ATOM      6  N   UNL     1       3.790   6.435  18.139  0.00  0.00    +0.000 NA
ATOM      7  C   UNL     1       4.488   5.394  18.603  0.00  0.00    +0.000 A 
ATOM      8  N   UNL     1       5.531   4.782  18.019  0.00  0.00    +0.000 N 
ATOM      9  N   UNL     1       4.084   4.929  19.818  0.00  0.00    +0.000 NA
ATOM     10  C   UNL     1       3.078   5.709  20.132  0.00  0.00    +0.000 A 
ATOM     11  N   UNL     1       2.277   5.567  21.206  0.00  0.00    +0.000 N 
ATOM     12  N   UNL     1       1.363   8.118  20.303  0.00  0.00    +0.000 NA
ATOM     13  C   UNL     1       0.689   9.297  20.350  0.00  0.00    +0.000 A 
ATOM     14  H   UNL     1       6.139   4.236  18.617  0.00  0.00    +0.000 HD
ATOM     15  H   UNL     1       2.269   4.669  21.680  0.00  0.00    +0.000 HD
ATOM     16  H   UNL     1       1.407   6.096  21.256  0.00  0.00    +0.000 HD
ENDROOT
BRANCH   8  17
ATOM     17  C   UNL     1       5.852   4.692  16.648  0.00  0.00    +0.000 A 
ATOM     18  C   UNL     1       7.046   5.238  16.153  0.00  0.00    +0.000 A 
ATOM     19  C   UNL     1       7.412   5.094  14.812  0.00  0.00    +0.000 A 
ATOM     20  C   UNL     1       6.600   4.369  13.946  0.00  0.00    +0.000 A 
ATOM     21  C   UNL     1       5.409   3.816  14.412  0.00  0.00    +0.000 A 
ATOM     22  C   UNL     1       5.033   3.984  15.749  0.00  0.00    +0.000 A 
ATOM     23 CL   UNL     1       3.539   3.284  16.271  0.00  0.00    +0.000 Cl
ENDBRANCH   8  17
BRANCH   1  25
ATOM     24  N   UNL     1      -0.600  12.463  19.588  0.00  0.00    +0.000 NA
ATOM     25  C   UNL     1      -0.016  11.469  19.476  0.00  0.00    +0.000 C 
ENDBRANCH   1  25
TORSDOF 2
ENDMDL
MODEL 6
REMARK VINA RESULT:      -6.6      2.622      7.471
REMARK  Name = 
REMARK  2 active torsions:
REMARK  status: ('A' for Active; 'I' for Inactive)
REMARK    1  A    between atoms: C_2  and  C_3
REMARK    2  A    between atoms: N_10  and  C_11
REMARK                            x       y       z     vdW  Elec       q    Type
REMARK                         _______ _______ _______ _____ _____    ______ ____
ROOT
ATOM      1  C   UNL     1       5.543   5.141  15.734  0.00  0.00    +0.000 A 
ATOM      2  C   UNL     1       5.072   6.446  15.871  0.00  0.00    +0.000 A 
ATOM      3  C   UNL     1       4.299   6.786  16.986  0.00  0.00    +0.000 A 
ATOM      4  C   UNL     1       4.020   5.808  17.943  0.00  0.00    +0.000 A 
ATOM      5  N   UNL     1       3.141   6.128  19.025  0.00  0.00    +0.000 N 
ATOM      6  N   UNL     1       2.554   7.346  19.147  0.00  0.00    +0.000 NA
ATOM      7  C   UNL     1       1.690   7.148  20.147  0.00  0.00    +0.000 A 
ATOM      8  N   UNL     1       0.774   8.009  20.619  0.00  0.00    +0.000 N 
ATOM      9  N   UNL     1       1.757   5.917  20.728  0.00  0.00    +0.000 NA
ATOM     10  C   UNL     1       2.714   5.312  20.067  0.00  0.00    +0.000 A 
ATOM     11  N   UNL     1       3.223   4.098  20.354  0.00  0.00    +0.000 N 
ATOM     12  N   UNL     1       4.514   4.540  17.844  0.00  0.00    +0.000 NA
ATOM     13  C   UNL     1       5.242   4.236  16.738  0.00  0.00    +0.000 A 
ATOM     14  H   UNL     1       0.002   7.618  21.145  0.00  0.00    +0.000 HD
ATOM     15  H   UNL     1       3.050   3.715  21.278  0.00  0.00    +0.000 HD
ATOM     16  H   UNL     1       4.092   3.802  19.912  0.00  0.00    +0.000 HD
ENDROOT
BRANCH   8  17
ATOM     17  C   UNL     1       0.783   9.420  20.588  0.00  0.00    +0.000 A 
ATOM     18  C   UNL     1       1.051  10.110  19.396  0.00  0.00    +0.000 A 
ATOM     19  C   UNL     1       0.993  11.504  19.334  0.00  0.00    +0.000 A 
ATOM     20  C   UNL     1       0.634  12.235  20.462  0.00  0.00    +0.000 A 
ATOM     21  C   UNL     1       0.362  11.574  21.658  0.00  0.00    +0.000 A 
ATOM     22  C   UNL     1       0.446  10.179  21.724  0.00  0.00    +0.000 A 
ATOM     23 CL   UNL     1       0.109   9.412  23.239  0.00  0.00    +0.000 Cl
ENDBRANCH   8  17
BRANCH   1  25
ATOM     24  N   UNL     1       6.908   4.399  13.663  0.00  0.00    +0.000 NA
ATOM     25  C   UNL     1       6.296   4.732  14.589  0.00  0.00    +0.000 C 
ENDBRANCH   1  25
TORSDOF 2
ENDMDL
MODEL 7
REMARK VINA RESULT:      -6.6      2.563      7.548
REMARK  Name = 
REMARK  2 active torsions:
REMARK  status: ('A' for Active; 'I' for Inactive)
REMARK    1  A    between atoms: C_2  and  C_3
REMARK    2  A    between atoms: N_10  and  C_11
REMARK                            x       y       z     vdW  Elec       q    Type
REMARK                         _______ _______ _______ _____ _____    ______ ____
ROOT
ATOM      1  C   UNL     1       5.061   5.306  16.448  0.00  0.00    +0.000 A 
ATOM      2  C   UNL     1       4.675   6.637  16.301  0.00  0.00    +0.000 A 
ATOM      3  C   UNL     1       3.877   7.236  17.282  0.00  0.00    +0.000 A 
ATOM      4  C   UNL     1       3.489   6.485  18.394  0.00  0.00    +0.000 A 
ATOM      5  N   UNL     1       2.587   7.063  19.340  0.00  0.00    +0.000 N 
ATOM      6  N   UNL     1       2.080   8.313  19.189  0.00  0.00    +0.000 NA
ATOM      7  C   UNL     1       1.159   8.367  20.157  0.00  0.00    +0.000 A 
ATOM      8  N   UNL     1       0.285   9.357  20.399  0.00  0.00    +0.000 N 
ATOM      9  N   UNL     1       1.116   7.274  20.969  0.00  0.00    +0.000 NA
ATOM     10  C   UNL     1       2.059   6.496  20.495  0.00  0.00    +0.000 A 
ATOM     11  N   UNL     1       2.470   5.336  21.042  0.00  0.00    +0.000 N 
ATOM     12  N   UNL     1       3.899   5.196  18.572  0.00  0.00    +0.000 NA
ATOM     13  C   UNL     1       4.654   4.637  17.591  0.00  0.00    +0.000 A 
ATOM     14  H   UNL     1      -0.536   9.123  20.946  0.00  0.00    +0.000 HD
ATOM     15  H   UNL     1       2.230   5.154  22.011  0.00  0.00    +0.000 HD
ATOM     16  H   UNL     1       3.336   4.908  20.717  0.00  0.00    +0.000 HD
ENDROOT
BRANCH   8  17
ATOM     17  C   UNL     1       0.391  10.731  20.095  0.00  0.00    +0.000 A 
ATOM     18  C   UNL     1       1.116  11.597  20.928  0.00  0.00    +0.000 A 
ATOM     19  C   UNL     1       1.290  12.943  20.602  0.00  0.00    +0.000 A 
ATOM     20  C   UNL     1       0.767  13.443  19.414  0.00  0.00    +0.000 A 
ATOM     21  C   UNL     1       0.044  12.604  18.568  0.00  0.00    +0.000 A 
ATOM     22  C   UNL     1      -0.150  11.262  18.910  0.00  0.00    +0.000 A 
ATOM     23 CL   UNL     1      -1.065  10.268  17.827  0.00  0.00    +0.000 Cl
ENDBRANCH   8  17
BRANCH   1  25
ATOM     24  N   UNL     1       6.460   4.092  14.639  0.00  0.00    +0.000 NA
ATOM     25  C   UNL     1       5.835   4.635  15.450  0.00  0.00    +0.000 C 
ENDBRANCH   1  25
TORSDOF 2
ENDMDL
MODEL 8
REMARK VINA RESULT:      -6.6      4.452      6.012
REMARK  Name = 
REMARK  2 active torsions:
REMARK  status: ('A' for Active; 'I' for Inactive)
REMARK    1  A    between atoms: C_2  and  C_3
REMARK    2  A    between atoms: N_10  and  C_11
REMARK                            x       y       z     vdW  Elec       q    Type
REMARK                         _______ _______ _______ _____ _____    ______ ____
ROOT
ATOM      1  C   UNL     1       3.528   3.524  19.652  0.00  0.00    +0.000 A 
ATOM      2  C   UNL     1       3.430   2.784  18.475  0.00  0.00    +0.000 A 
ATOM      3  C   UNL     1       4.277   3.081  17.401  0.00  0.00    +0.000 A 
ATOM      4  C   UNL     1       5.209   4.112  17.537  0.00  0.00    +0.000 A 
ATOM      5  N   UNL     1       5.999   4.485  16.405  0.00  0.00    +0.000 N 
ATOM      6  N   UNL     1       5.864   3.883  15.196  0.00  0.00    +0.000 NA
ATOM      7  C   UNL     1       6.622   4.652  14.407  0.00  0.00    +0.000 A 
ATOM      8  N   UNL     1       6.770   4.562  13.076  0.00  0.00    +0.000 N 
ATOM      9  N   UNL     1       7.301   5.641  15.052  0.00  0.00    +0.000 NA
ATOM     10  C   UNL     1       6.961   5.484  16.309  0.00  0.00    +0.000 A 
ATOM     11  N   UNL     1       7.470   6.168  17.352  0.00  0.00    +0.000 N 
ATOM     12  N   UNL     1       5.347   4.812  18.700  0.00  0.00    +0.000 NA
ATOM     13  C   UNL     1       4.494   4.514  19.715  0.00  0.00    +0.000 A 
ATOM     14  H   UNL     1       7.111   5.385  12.594  0.00  0.00    +0.000 HD
ATOM     15  H   UNL     1       8.347   6.660  17.218  0.00  0.00    +0.000 HD
ATOM     16  H   UNL     1       7.292   5.840  18.301  0.00  0.00    +0.000 HD
ENDROOT
BRANCH   8  17
ATOM     17  C   UNL     1       6.624   3.434  12.240  0.00  0.00    +0.000 A 
ATOM     18  C   UNL     1       7.746   2.706  11.815  0.00  0.00    +0.000 A 
ATOM     19  C   UNL     1       7.612   1.547  11.048  0.00  0.00    +0.000 A 
ATOM     20  C   UNL     1       6.346   1.076  10.716  0.00  0.00    +0.000 A 
ATOM     21  C   UNL     1       5.216   1.780  11.126  0.00  0.00    +0.000 A 
ATOM     22  C   UNL     1       5.354   2.954  11.874  0.00  0.00    +0.000 A 
ATOM     23 CL   UNL     1       3.915   3.794  12.347  0.00  0.00    +0.000 Cl
ENDBRANCH   8  17
BRANCH   1  25
ATOM     24  N   UNL     1       1.942   3.106  21.655  0.00  0.00    +0.000 NA
ATOM     25  C   UNL     1       2.653   3.291  20.759  0.00  0.00    +0.000 C 
ENDBRANCH   1  25
TORSDOF 2
ENDMDL
MODEL 9
REMARK VINA RESULT:      -6.5      3.158      4.770
REMARK  Name = 
REMARK  2 active torsions:
REMARK  status: ('A' for Active; 'I' for Inactive)
REMARK    1  A    between atoms: C_2  and  C_3
REMARK    2  A    between atoms: N_10  and  C_11
REMARK                            x       y       z     vdW  Elec       q    Type
REMARK                         _______ _______ _______ _____ _____    ______ ____
ROOT
ATOM      1  C   UNL     1       0.750  13.911  19.256  0.00  0.00    +0.000 A 
ATOM      2  C   UNL     1       1.349  12.928  18.470  0.00  0.00    +0.000 A 
ATOM      3  C   UNL     1       1.333  11.596  18.901  0.00  0.00    +0.000 A 
ATOM      4  C   UNL     1       0.711  11.282  20.112  0.00  0.00    +0.000 A 
ATOM      5  N   UNL     1       0.789   9.942  20.603  0.00  0.00    +0.000 N 
ATOM      6  N   UNL     1       1.462   8.965  19.943  0.00  0.00    +0.000 NA
ATOM      7  C   UNL     1       1.449   7.962  20.826  0.00  0.00    +0.000 A 
ATOM      8  N   UNL     1       2.064   6.773  20.722  0.00  0.00    +0.000 N 
ATOM      9  N   UNL     1       0.734   8.205  21.960  0.00  0.00    +0.000 NA
ATOM     10  C   UNL     1       0.267   9.417  21.781  0.00  0.00    +0.000 A 
ATOM     11  N   UNL     1      -0.595  10.056  22.594  0.00  0.00    +0.000 N 
ATOM     12  N   UNL     1       0.082  12.228  20.867  0.00  0.00    +0.000 NA
ATOM     13  C   UNL     1       0.134  13.515  20.431  0.00  0.00    +0.000 A 
ATOM     14  H   UNL     1       2.224   6.260  21.582  0.00  0.00    +0.000 HD
ATOM     15  H   UNL     1      -1.127   9.501  23.257  0.00  0.00    +0.000 HD
ATOM     16  H   UNL     1      -1.052  10.908  22.270  0.00  0.00    +0.000 HD
ENDROOT
BRANCH   8  17
ATOM     17  C   UNL     1       2.432   6.062  19.560  0.00  0.00    +0.000 A 
ATOM     18  C   UNL     1       3.362   6.596  18.656  0.00  0.00    +0.000 A 
ATOM     19  C   UNL     1       3.789   5.874  17.539  0.00  0.00    +0.000 A 
ATOM     20  C   UNL     1       3.313   4.585  17.323  0.00  0.00    +0.000 A 
ATOM     21  C   UNL     1       2.389   4.030  18.206  0.00  0.00    +0.000 A 
ATOM     22  C   UNL     1       1.944   4.766  19.310  0.00  0.00    +0.000 A 
ATOM     23 CL   UNL     1       0.787   4.032  20.367  0.00  0.00    +0.000 Cl
ENDBRANCH   8  17
BRANCH   1  25
ATOM     24  N   UNL     1       0.806  16.409  18.578  0.00  0.00    +0.000 NA
ATOM     25  C   UNL     1       0.782  15.292  18.882  0.00  0.00    +0.000 C 
ENDBRANCH   1  25
TORSDOF 2
ENDMDL
