MODEL 1
REMARK VINA RESULT:      -7.5      0.000      0.000
REMARK  Name = 
REMARK  5 active torsions:
REMARK  status: ('A' for Active; 'I' for Inactive)
REMARK    1  A    between atoms: C_1  and  N_2
REMARK    2  A    between atoms: C_3  and  C_4
REMARK    3  A    between atoms: C_4  and  N_5
REMARK    4  A    between atoms: N_5  and  C_6
REMARK    5  A    between atoms: C_9  and  O_10
REMARK                            x       y       z     vdW  Elec       q    Type
REMARK                         _______ _______ _______ _____ _____    ______ ____
ROOT
ATOM      1  C   UNL     1       4.865   3.989  16.017  0.00  0.00    +0.000 C 
ENDROOT
BRANCH   1   4
ATOM      2  C   UNL     1       3.670   6.319  17.736  0.00  0.00    +0.000 C 
ATOM      3  N   UNL     1       3.417   4.911  17.919  0.00  0.00    +0.000 N 
ATOM      4  C   UNL     1       3.923   3.859  17.185  0.00  0.00    +0.000 A 
ATOM      5  N   UNL     1       3.477   2.708  17.658  0.00  0.00    +0.000 NA
ATOM      6  C   UNL     1       2.671   3.020  18.723  0.00  0.00    +0.000 A 
ATOM      7  C   UNL     1       1.962   2.170  19.584  0.00  0.00    +0.000 A 
ATOM      8  C   UNL     1       1.194   2.735  20.608  0.00  0.00    +0.000 A 
ATOM      9  C   UNL     1       1.131   4.120  20.770  0.00  0.00    +0.000 A 
ATOM     10  C   UNL     1       1.836   4.983  19.921  0.00  0.00    +0.000 A 
ATOM     11  C   UNL     1       2.604   4.395  18.908  0.00  0.00    +0.000 A 
ENDBRANCH   1   4
BRANCH   1  12
ATOM     12  N   UNL     1       6.283   3.836  16.361  0.00  0.00    +0.000 N 
ATOM     13  H   UNL     1       6.380   3.029  16.982  0.00  0.00    +0.000 HD
BRANCH  12  14
ATOM     14  C   UNL     1       6.955   4.915  16.965  0.00  0.00    +0.000 A 
ATOM     15  C   UNL     1       7.018   6.211  16.433  0.00  0.00    +0.000 A 
ATOM     16  C   UNL     1       7.588   7.267  17.161  0.00  0.00    +0.000 A 
ATOM     17  C   UNL     1       8.097   7.032  18.431  0.00  0.00    +0.000 A 
ATOM     18  C   UNL     1       8.041   5.762  18.985  0.00  0.00    +0.000 A 
ATOM     19  C   UNL     1       7.461   4.717  18.257  0.00  0.00    +0.000 A 
BRANCH  17  20
ATOM     20  O   UNL     1       8.649   8.029  19.176  0.00  0.00    +0.000 OA
ATOM     21  H   UNL     1       8.298   7.972  20.080  0.00  0.00    +0.000 HD
ENDBRANCH  17  20
ENDBRANCH  12  14
ENDBRANCH   1  12
TORSDOF 4
ENDMDL
MODEL 2
REMARK VINA RESULT:      -7.5      0.139      1.111
REMARK  Name = 
REMARK  5 active torsions:
REMARK  status: ('A' for Active; 'I' for Inactive)
REMARK    1  A    between atoms: C_1  and  N_2
REMARK    2  A    between atoms: C_3  and  C_4
REMARK    3  A    between atoms: C_4  and  N_5
REMARK    4  A    between atoms: N_5  and  C_6
REMARK    5  A    between atoms: C_9  and  O_10
REMARK                            x       y       z     vdW  Elec       q    Type
REMARK                         _______ _______ _______ _____ _____    ______ ____
ROOT
ATOM      1  C   UNL     1       4.872   3.988  16.048  0.00  0.00    +0.000 C 
ENDROOT
BRANCH   1   4
ATOM      2  C   UNL     1       3.518   6.307  17.661  0.00  0.00    +0.000 C 
ATOM      3  N   UNL     1       3.362   4.895  17.908  0.00  0.00    +0.000 N 
ATOM      4  C   UNL     1       3.940   3.848  17.222  0.00  0.00    +0.000 A 
ATOM      5  N   UNL     1       3.574   2.691  17.748  0.00  0.00    +0.000 NA
ATOM      6  C   UNL     1       2.747   2.996  18.798  0.00  0.00    +0.000 A 
ATOM      7  C   UNL     1       2.096   2.139  19.699  0.00  0.00    +0.000 A 
ATOM      8  C   UNL     1       1.289   2.697  20.698  0.00  0.00    +0.000 A 
ATOM      9  C   UNL     1       1.131   4.080  20.796  0.00  0.00    +0.000 A 
ATOM     10  C   UNL     1       1.776   4.950  19.908  0.00  0.00    +0.000 A 
ATOM     11  C   UNL     1       2.585   4.370  18.921  0.00  0.00    +0.000 A 
ENDBRANCH   1   4
BRANCH   1  12
ATOM     12  N   UNL     1       6.297   3.948  16.396  0.00  0.00    +0.000 N 
ATOM     13  H   UNL     1       6.487   3.067  16.881  0.00  0.00    +0.000 HD
BRANCH  12  14
ATOM     14  C   UNL     1       6.834   4.985  17.181  0.00  0.00    +0.000 A 
ATOM     15  C   UNL     1       7.398   4.809  18.454  0.00  0.00    +0.000 A 
ATOM     16  C   UNL     1       8.038   5.868  19.116  0.00  0.00    +0.000 A 
ATOM     17  C   UNL     1       8.122   7.111  18.505  0.00  0.00    +0.000 A 
ATOM     18  C   UNL     1       7.581   7.312  17.244  0.00  0.00    +0.000 A 
ATOM     19  C   UNL     1       6.954   6.248  16.586  0.00  0.00    +0.000 A 
BRANCH  17  20
ATOM     20  O   UNL     1       8.743   8.163  19.107  0.00  0.00    +0.000 OA
ATOM     21  H   UNL     1       9.274   7.828  19.848  0.00  0.00    +0.000 HD
ENDBRANCH  17  20
ENDBRANCH  12  14
ENDBRANCH   1  12
TORSDOF 4
ENDMDL
MODEL 3
REMARK VINA RESULT:      -7.2      5.086      7.250
REMARK  Name = 
REMARK  5 active torsions:
REMARK  status: ('A' for Active; 'I' for Inactive)
REMARK    1  A    between atoms: C_1  and  N_2
REMARK    2  A    between atoms: C_3  and  C_4
REMARK    3  A    between atoms: C_4  and  N_5
REMARK    4  A    between atoms: N_5  and  C_6
REMARK    5  A    between atoms: C_9  and  O_10
REMARK                            x       y       z     vdW  Elec       q    Type
REMARK                         _______ _______ _______ _____ _____    ______ ____
ROOT
ATOM      1  C   UNL     1       2.271   7.592  19.553  0.00  0.00    +0.000 C 
ENDROOT
BRANCH   1   4
ATOM      2  C   UNL     1       0.898  10.174  18.430  0.00  0.00    +0.000 C 
ATOM      3  N   UNL     1       0.776   9.660  19.773  0.00  0.00    +0.000 N 
ATOM      4  C   UNL     1       1.363   8.531  20.302  0.00  0.00    +0.000 A 
ATOM      5  N   UNL     1       1.030   8.389  21.574  0.00  0.00    +0.000 NA
ATOM      6  C   UNL     1       0.216   9.451  21.875  0.00  0.00    +0.000 A 
ATOM      7  C   UNL     1      -0.400   9.786  23.090  0.00  0.00    +0.000 A 
ATOM      8  C   UNL     1      -1.200  10.933  23.147  0.00  0.00    +0.000 A 
ATOM      9  C   UNL     1      -1.385  11.729  22.015  0.00  0.00    +0.000 A 
ATOM     10  C   UNL     1      -0.774  11.412  20.796  0.00  0.00    +0.000 A 
ATOM     11  C   UNL     1       0.028  10.264  20.764  0.00  0.00    +0.000 A 
ENDBRANCH   1   4
BRANCH   1  12
ATOM     12  N   UNL     1       2.652   6.389  20.302  0.00  0.00    +0.000 N 
ATOM     13  H   UNL     1       3.673   6.319  20.303  0.00  0.00    +0.000 HD
BRANCH  12  14
ATOM     14  C   UNL     1       2.145   5.143  19.890  0.00  0.00    +0.000 A 
ATOM     15  C   UNL     1       1.562   4.198  20.747  0.00  0.00    +0.000 A 
ATOM     16  C   UNL     1       0.954   3.039  20.243  0.00  0.00    +0.000 A 
ATOM     17  C   UNL     1       0.922   2.819  18.872  0.00  0.00    +0.000 A 
ATOM     18  C   UNL     1       1.485   3.739  18.001  0.00  0.00    +0.000 A 
ATOM     19  C   UNL     1       2.079   4.898  18.511  0.00  0.00    +0.000 A 
BRANCH  17  20
ATOM     20  O   UNL     1       0.333   1.713  18.339  0.00  0.00    +0.000 OA
ATOM     21  H   UNL     1       0.188   1.066  19.048  0.00  0.00    +0.000 HD
ENDBRANCH  17  20
ENDBRANCH  12  14
ENDBRANCH   1  12
TORSDOF 4
ENDMDL
MODEL 4
REMARK VINA RESULT:      -7.1      0.647      1.781
REMARK  Name = 
REMARK  5 active torsions:
REMARK  status: ('A' for Active; 'I' for Inactive)
REMARK    1  A    between atoms: C_1  and  N_2
REMARK    2  A    between atoms: C_3  and  C_4
REMARK    3  A    between atoms: C_4  and  N_5
REMARK    4  A    between atoms: N_5  and  C_6
REMARK    5  A    between atoms: C_9  and  O_10
REMARK                            x       y       z     vdW  Elec       q    Type
REMARK                         _______ _______ _______ _____ _____    ______ ____
ROOT
ATOM      1  C   UNL     1       4.876   3.920  16.074  0.00  0.00    +0.000 C 
ENDROOT
BRANCH   1   4
ATOM      2  C   UNL     1       3.694   1.603  17.820  0.00  0.00    +0.000 C 
ATOM      3  N   UNL     1       3.500   3.016  18.037  0.00  0.00    +0.000 N 
ATOM      4  C   UNL     1       4.003   4.062  17.292  0.00  0.00    +0.000 A 
ATOM      5  N   UNL     1       3.598   5.220  17.787  0.00  0.00    +0.000 NA
ATOM      6  C   UNL     1       2.814   4.916  18.871  0.00  0.00    +0.000 A 
ATOM      7  C   UNL     1       2.127   5.774  19.742  0.00  0.00    +0.000 A 
ATOM      8  C   UNL     1       1.387   5.218  20.792  0.00  0.00    +0.000 A 
ATOM      9  C   UNL     1       1.334   3.834  20.972  0.00  0.00    +0.000 A 
ATOM     10  C   UNL     1       2.011   2.964  20.109  0.00  0.00    +0.000 A 
ATOM     11  C   UNL     1       2.739   3.542  19.061  0.00  0.00    +0.000 A 
ENDBRANCH   1   4
BRANCH   1  12
ATOM     12  N   UNL     1       6.310   3.806  16.364  0.00  0.00    +0.000 N 
ATOM     13  H   UNL     1       6.455   2.990  16.965  0.00  0.00    +0.000 HD
BRANCH  12  14
ATOM     14  C   UNL     1       6.970   4.894  16.965  0.00  0.00    +0.000 A 
ATOM     15  C   UNL     1       6.960   6.205  16.466  0.00  0.00    +0.000 A 
ATOM     16  C   UNL     1       7.525   7.263  17.194  0.00  0.00    +0.000 A 
ATOM     17  C   UNL     1       8.102   7.015  18.432  0.00  0.00    +0.000 A 
ATOM     18  C   UNL     1       8.120   5.730  18.953  0.00  0.00    +0.000 A 
ATOM     19  C   UNL     1       7.545   4.682  18.226  0.00  0.00    +0.000 A 
BRANCH  17  20
ATOM     20  O   UNL     1       8.652   8.013  19.177  0.00  0.00    +0.000 OA
ATOM     21  H   UNL     1       9.136   7.616  19.920  0.00  0.00    +0.000 HD
ENDBRANCH  17  20
ENDBRANCH  12  14
ENDBRANCH   1  12
TORSDOF 4
ENDMDL
MODEL 5
REMARK VINA RESULT:      -7.1      0.666      2.102
REMARK  Name = 
REMARK  5 active torsions:
REMARK  status: ('A' for Active; 'I' for Inactive)
REMARK    1  A    between atoms: C_1  and  N_2
REMARK    2  A    between atoms: C_3  and  C_4
REMARK    3  A    between atoms: C_4  and  N_5
REMARK    4  A    between atoms: N_5  and  C_6
REMARK    5  A    between atoms: C_9  and  O_10
REMARK                            x       y       z     vdW  Elec       q    Type
REMARK                         _______ _______ _______ _____ _____    ______ ____
ROOT
ATOM      1  C   UNL     1       5.005   3.905  16.171  0.00  0.00    +0.000 C 
ENDROOT
BRANCH   1   4
ATOM      2  C   UNL     1       3.691   1.585  17.816  0.00  0.00    +0.000 C 
ATOM      3  N   UNL     1       3.522   2.998  18.053  0.00  0.00    +0.000 N 
ATOM      4  C   UNL     1       4.083   4.045  17.352  0.00  0.00    +0.000 A 
ATOM      5  N   UNL     1       3.685   5.203  17.853  0.00  0.00    +0.000 NA
ATOM      6  C   UNL     1       2.847   4.899  18.895  0.00  0.00    +0.000 A 
ATOM      7  C   UNL     1       2.144   5.757  19.754  0.00  0.00    +0.000 A 
ATOM      8  C   UNL     1       1.345   5.199  20.759  0.00  0.00    +0.000 A 
ATOM      9  C   UNL     1       1.251   3.814  20.908  0.00  0.00    +0.000 A 
ATOM     10  C   UNL     1       1.943   2.943  20.057  0.00  0.00    +0.000 A 
ATOM     11  C   UNL     1       2.730   3.523  19.054  0.00  0.00    +0.000 A 
ENDBRANCH   1   4
BRANCH   1  12
ATOM     12  N   UNL     1       6.433   3.936  16.507  0.00  0.00    +0.000 N 
ATOM     13  H   UNL     1       6.662   3.084  17.024  0.00  0.00    +0.000 HD
BRANCH  12  14
ATOM     14  C   UNL     1       6.933   5.025  17.245  0.00  0.00    +0.000 A 
ATOM     15  C   UNL     1       7.519   4.922  18.515  0.00  0.00    +0.000 A 
ATOM     16  C   UNL     1       8.120   6.032  19.128  0.00  0.00    +0.000 A 
ATOM     17  C   UNL     1       8.141   7.254  18.470  0.00  0.00    +0.000 A 
ATOM     18  C   UNL     1       7.576   7.383  17.210  0.00  0.00    +0.000 A 
ATOM     19  C   UNL     1       6.989   6.269  16.601  0.00  0.00    +0.000 A 
BRANCH  17  20
ATOM     20  O   UNL     1       8.723   8.354  19.023  0.00  0.00    +0.000 OA
ATOM     21  H   UNL     1       8.077   9.079  19.027  0.00  0.00    +0.000 HD
ENDBRANCH  17  20
ENDBRANCH  12  14
ENDBRANCH   1  12
TORSDOF 4
ENDMDL
MODEL 6
REMARK VINA RESULT:      -6.9      5.166      7.216
REMARK  Name = 
REMARK  5 active torsions:
REMARK  status: ('A' for Active; 'I' for Inactive)
REMARK    1  A    between atoms: C_1  and  N_2
REMARK    2  A    between atoms: C_3  and  C_4
REMARK    3  A    between atoms: C_4  and  N_5
REMARK    4  A    between atoms: N_5  and  C_6
REMARK    5  A    between atoms: C_9  and  O_10
REMARK                            x       y       z     vdW  Elec       q    Type
REMARK                         _______ _______ _______ _____ _____    ______ ____
ROOT
ATOM      1  C   UNL     1       2.178   7.810  19.456  0.00  0.00    +0.000 C 
ENDROOT
BRANCH   1   4
ATOM      2  C   UNL     1       1.247  10.686  18.636  0.00  0.00    +0.000 C 
ATOM      3  N   UNL     1       0.911  10.000  19.859  0.00  0.00    +0.000 N 
ATOM      4  C   UNL     1       1.301   8.737  20.254  0.00  0.00    +0.000 A 
ATOM      5  N   UNL     1       0.808   8.453  21.448  0.00  0.00    +0.000 NA
ATOM      6  C   UNL     1       0.090   9.555  21.835  0.00  0.00    +0.000 A 
ATOM      7  C   UNL     1      -0.623   9.783  23.022  0.00  0.00    +0.000 A 
ATOM      8  C   UNL     1      -1.289  11.004  23.185  0.00  0.00    +0.000 A 
ATOM      9  C   UNL     1      -1.248  11.976  22.184  0.00  0.00    +0.000 A 
ATOM     10  C   UNL     1      -0.539  11.766  20.995  0.00  0.00    +0.000 A 
ATOM     11  C   UNL     1       0.126  10.541  20.857  0.00  0.00    +0.000 A 
ENDBRANCH   1   4
BRANCH   1  12
ATOM     12  N   UNL     1       2.535   6.566  20.148  0.00  0.00    +0.000 N 
ATOM     13  H   UNL     1       3.555   6.489  20.169  0.00  0.00    +0.000 HD
BRANCH  12  14
ATOM     14  C   UNL     1       2.031   5.347  19.657  0.00  0.00    +0.000 A 
ATOM     15  C   UNL     1       2.193   4.892  18.340  0.00  0.00    +0.000 A 
ATOM     16  C   UNL     1       1.783   3.605  17.961  0.00  0.00    +0.000 A 
ATOM     17  C   UNL     1       1.210   2.761  18.903  0.00  0.00    +0.000 A 
ATOM     18  C   UNL     1       1.045   3.181  20.214  0.00  0.00    +0.000 A 
ATOM     19  C   UNL     1       1.467   4.462  20.586  0.00  0.00    +0.000 A 
BRANCH  17  20
ATOM     20  O   UNL     1       0.808   1.500  18.582  0.00  0.00    +0.000 OA
ATOM     21  H   UNL     1       1.582   0.914  18.596  0.00  0.00    +0.000 HD
ENDBRANCH  17  20
ENDBRANCH  12  14
ENDBRANCH   1  12
TORSDOF 4
ENDMDL
MODEL 7
REMARK VINA RESULT:      -6.9      1.052      1.214
REMARK  Name = 
REMARK  5 active torsions:
REMARK  status: ('A' for Active; 'I' for Inactive)
REMARK    1  A    between atoms: C_1  and  N_2
REMARK    2  A    between atoms: C_3  and  C_4
REMARK    3  A    between atoms: C_4  and  N_5
REMARK    4  A    between atoms: N_5  and  C_6
REMARK    5  A    between atoms: C_9  and  O_10
REMARK                            x       y       z     vdW  Elec       q    Type
REMARK                         _______ _______ _______ _____ _____    ______ ____
ROOT
ATOM      1  C   UNL     1       4.438   3.959  16.506  0.00  0.00    +0.000 C 
ENDROOT
BRANCH   1   4
ATOM      2  C   UNL     1       1.495   4.685  17.298  0.00  0.00    +0.000 C 
ATOM      3  N   UNL     1       2.445   3.972  18.116  0.00  0.00    +0.000 N 
ATOM      4  C   UNL     1       3.745   3.635  17.803  0.00  0.00    +0.000 A 
ATOM      5  N   UNL     1       4.313   2.996  18.811  0.00  0.00    +0.000 NA
ATOM      6  C   UNL     1       3.364   2.922  19.798  0.00  0.00    +0.000 A 
ATOM      7  C   UNL     1       3.452   2.357  21.080  0.00  0.00    +0.000 A 
ATOM      8  C   UNL     1       2.330   2.402  21.915  0.00  0.00    +0.000 A 
ATOM      9  C   UNL     1       1.142   2.995  21.482  0.00  0.00    +0.000 A 
ATOM     10  C   UNL     1       1.039   3.566  20.207  0.00  0.00    +0.000 A 
ATOM     11  C   UNL     1       2.176   3.516  19.391  0.00  0.00    +0.000 A 
ENDBRANCH   1   4
BRANCH   1  12
ATOM     12  N   UNL     1       5.899   3.840  16.552  0.00  0.00    +0.000 N 
ATOM     13  H   UNL     1       6.139   3.007  17.094  0.00  0.00    +0.000 HD
BRANCH  12  14
ATOM     14  C   UNL     1       6.652   4.911  17.069  0.00  0.00    +0.000 A 
ATOM     15  C   UNL     1       6.609   6.224  16.579  0.00  0.00    +0.000 A 
ATOM     16  C   UNL     1       7.282   7.266  17.234  0.00  0.00    +0.000 A 
ATOM     17  C   UNL     1       8.002   7.000  18.391  0.00  0.00    +0.000 A 
ATOM     18  C   UNL     1       8.056   5.712  18.903  0.00  0.00    +0.000 A 
ATOM     19  C   UNL     1       7.372   4.681  18.250  0.00  0.00    +0.000 A 
BRANCH  17  20
ATOM     20  O   UNL     1       8.661   7.982  19.065  0.00  0.00    +0.000 OA
ATOM     21  H   UNL     1       8.925   8.670  18.433  0.00  0.00    +0.000 HD
ENDBRANCH  17  20
ENDBRANCH  12  14
ENDBRANCH   1  12
TORSDOF 4
ENDMDL
MODEL 8
REMARK VINA RESULT:      -6.6      3.097      6.301
REMARK  Name = 
REMARK  5 active torsions:
REMARK  status: ('A' for Active; 'I' for Inactive)
REMARK    1  A    between atoms: C_1  and  N_2
REMARK    2  A    between atoms: C_3  and  C_4
REMARK    3  A    between atoms: C_4  and  N_5
REMARK    4  A    between atoms: N_5  and  C_6
REMARK    5  A    between atoms: C_9  and  O_10
REMARK                            x       y       z     vdW  Elec       q    Type
REMARK                         _______ _______ _______ _____ _____    ______ ____
ROOT
ATOM      1  C   UNL     1       6.227   5.385  17.929  0.00  0.00    +0.000 C 
ENDROOT
BRANCH   1   4
ATOM      2  C   UNL     1       4.238   3.666  16.225  0.00  0.00    +0.000 C 
ATOM      3  N   UNL     1       5.445   4.296  15.746  0.00  0.00    +0.000 N 
ATOM      4  C   UNL     1       6.343   5.057  16.465  0.00  0.00    +0.000 A 
ATOM      5  N   UNL     1       7.338   5.453  15.689  0.00  0.00    +0.000 NA
ATOM      6  C   UNL     1       7.082   4.933  14.446  0.00  0.00    +0.000 A 
ATOM      7  C   UNL     1       7.829   5.040  13.264  0.00  0.00    +0.000 A 
ATOM      8  C   UNL     1       7.351   4.416  12.105  0.00  0.00    +0.000 A 
ATOM      9  C   UNL     1       6.152   3.703  12.123  0.00  0.00    +0.000 A 
ATOM     10  C   UNL     1       5.395   3.583  13.296  0.00  0.00    +0.000 A 
ATOM     11  C   UNL     1       5.896   4.209  14.445  0.00  0.00    +0.000 A 
ENDBRANCH   1   4
BRANCH   1  12
ATOM     12  N   UNL     1       5.995   4.223  18.796  0.00  0.00    +0.000 N 
ATOM     13  H   UNL     1       6.149   3.374  18.246  0.00  0.00    +0.000 HD
BRANCH  12  14
ATOM     14  C   UNL     1       4.749   4.092  19.435  0.00  0.00    +0.000 A 
ATOM     15  C   UNL     1       3.829   5.136  19.608  0.00  0.00    +0.000 A 
ATOM     16  C   UNL     1       2.549   4.897  20.131  0.00  0.00    +0.000 A 
ATOM     17  C   UNL     1       2.180   3.606  20.483  0.00  0.00    +0.000 A 
ATOM     18  C   UNL     1       3.066   2.553  20.316  0.00  0.00    +0.000 A 
ATOM     19  C   UNL     1       4.336   2.798  19.783  0.00  0.00    +0.000 A 
BRANCH  17  20
ATOM     20  O   UNL     1       0.945   3.327  20.984  0.00  0.00    +0.000 OA
ATOM     21  H   UNL     1       0.806   2.367  20.951  0.00  0.00    +0.000 HD
ENDBRANCH  17  20
ENDBRANCH  12  14
ENDBRANCH   1  12
TORSDOF 4
ENDMDL
MODEL 9
REMARK VINA RESULT:      -6.6      3.116      5.888
REMARK  Name = 
REMARK  5 active torsions:
REMARK  status: ('A' for Active; 'I' for Inactive)
REMARK    1  A    between atoms: C_1  and  N_2
REMARK    2  A    between atoms: C_3  and  C_4
REMARK    3  A    between atoms: C_4  and  N_5
REMARK    4  A    between atoms: N_5  and  C_6
REMARK    5  A    between atoms: C_9  and  O_10
REMARK                            x       y       z     vdW  Elec       q    Type
REMARK                         _______ _______ _______ _____ _____    ______ ____
ROOT
ATOM      1  C   UNL     1       2.296   5.139  20.073  0.00  0.00    +0.000 C 
ENDROOT
BRANCH   1   4
ATOM      2  C   UNL     1       2.328   3.805  17.239  0.00  0.00    +0.000 C 
ATOM      3  N   UNL     1       3.465   4.366  17.928  0.00  0.00    +0.000 N 
ATOM      4  C   UNL     1       3.489   4.960  19.173  0.00  0.00    +0.000 A 
ATOM      5  N   UNL     1       4.718   5.341  19.479  0.00  0.00    +0.000 NA
ATOM      6  C   UNL     1       5.504   4.983  18.415  0.00  0.00    +0.000 A 
ATOM      7  C   UNL     1       6.886   5.144  18.233  0.00  0.00    +0.000 A 
ATOM      8  C   UNL     1       7.466   4.694  17.041  0.00  0.00    +0.000 A 
ATOM      9  C   UNL     1       6.685   4.098  16.049  0.00  0.00    +0.000 A 
ATOM     10  C   UNL     1       5.305   3.926  16.216  0.00  0.00    +0.000 A 
ATOM     11  C   UNL     1       4.748   4.376  17.420  0.00  0.00    +0.000 A 
ENDBRANCH   1   4
BRANCH   1  12
ATOM     12  N   UNL     1       2.248   6.430  20.769  0.00  0.00    +0.000 N 
ATOM     13  H   UNL     1       1.575   6.359  21.537  0.00  0.00    +0.000 HD
BRANCH  12  14
ATOM     14  C   UNL     1       1.928   7.587  20.034  0.00  0.00    +0.000 A 
ATOM     15  C   UNL     1       2.213   7.768  18.672  0.00  0.00    +0.000 A 
ATOM     16  C   UNL     1       1.739   8.890  17.975  0.00  0.00    +0.000 A 
ATOM     17  C   UNL     1       0.972   9.838  18.637  0.00  0.00    +0.000 A 
ATOM     18  C   UNL     1       0.668   9.681  19.981  0.00  0.00    +0.000 A 
ATOM     19  C   UNL     1       1.134   8.553  20.667  0.00  0.00    +0.000 A 
BRANCH  17  20
ATOM     20  O   UNL     1       0.482  10.936  17.997  0.00  0.00    +0.000 OA
ATOM     21  H   UNL     1       0.027  11.497  18.646  0.00  0.00    +0.000 HD
ENDBRANCH  17  20
ENDBRANCH  12  14
ENDBRANCH   1  12
TORSDOF 4
ENDMDL
