MODEL 1
REMARK VINA RESULT:      -7.0      0.000      0.000
REMARK  Name = 
REMARK  7 active torsions:
REMARK  status: ('A' for Active; 'I' for Inactive)
REMARK    1  A    between atoms: C_1  and  N_2
REMARK    2  A    between atoms: N_2  and  O_3
REMARK    3  A    between atoms: N_2  and  C_4
REMARK    4  A    between atoms: C_5  and  O_6
REMARK    5  A    between atoms: C_7  and  C_8
REMARK    6  A    between atoms: C_8  and  O_9
REMARK    7  A    between atoms: C_11  and  N_12
REMARK                            x       y       z     vdW  Elec       q    Type
REMARK                         _______ _______ _______ _____ _____    ______ ____
ROOT
ATOM      1  C   UNL     1       3.141   5.142  19.128  0.00  0.00    +0.000 C 
ATOM      2  C   UNL     1       2.423   4.273  20.181  0.00  0.00    +0.000 C 
ATOM      3  C   UNL     1       3.074   2.902  20.005  0.00  0.00    +0.000 C 
ATOM      4  O   UNL     1       4.400   3.113  19.466  0.00  0.00    +0.000 OA
ATOM      5  C   UNL     1       4.563   4.517  19.171  0.00  0.00    +0.000 C 
ENDROOT
BRANCH   5   6
ATOM      6  N   UNL     1       5.336   4.637  17.938  0.00  0.00    +0.000 N 
ATOM      7  C   UNL     1       4.731   4.480  16.707  0.00  0.00    +0.000 A 
ATOM      8  C   UNL     1       5.417   4.617  15.581  0.00  0.00    +0.000 A 
ATOM      9  C   UNL     1       6.844   4.959  15.732  0.00  0.00    +0.000 A 
ATOM     10  N   UNL     1       7.615   5.152  14.622  0.00  0.00    +0.000 N 
ATOM     11  N   UNL     1       7.425   5.083  16.882  0.00  0.00    +0.000 NA
ATOM     12  C   UNL     1       6.705   4.910  18.041  0.00  0.00    +0.000 A 
ATOM     13  O   UNL     1       7.257   5.014  19.132  0.00  0.00    +0.000 OA
ATOM     14  H   UNL     1       7.404   4.585  13.811  0.00  0.00    +0.000 HD
ATOM     15  H   UNL     1       8.607   5.161  14.849  0.00  0.00    +0.000 HD
ENDBRANCH   5   6
BRANCH   1  17
ATOM     16  C   UNL     1       2.924   7.384  18.165  0.00  0.00    +0.000 C 
ATOM     17  N   UNL     1       3.042   6.596  19.394  0.00  0.00    +0.000 NA
BRANCH  17  18
ATOM     18  O   UNL     1       1.755   6.787  20.054  0.00  0.00    +0.000 OA
ATOM     19  H   UNL     1       1.944   6.443  20.950  0.00  0.00    +0.000 HD
ENDBRANCH  17  18
ENDBRANCH   1  17
BRANCH   2  20
ATOM     20  O   UNL     1       2.629   4.726  21.527  0.00  0.00    +0.000 OA
ATOM     21  H   UNL     1       2.375   4.016  22.144  0.00  0.00    +0.000 HD
ENDBRANCH   2  20
BRANCH   3  22
ATOM     22  C   UNL     1       2.320   2.008  19.016  0.00  0.00    +0.000 C 
BRANCH  22  23
ATOM     23  O   UNL     1       3.244   1.314  18.177  0.00  0.00    +0.000 OA
ATOM     24  H   UNL     1       4.031   1.889  18.101  0.00  0.00    +0.000 HD
ENDBRANCH  22  23
ENDBRANCH   3  22
TORSDOF 6
ENDMDL
MODEL 2
REMARK VINA RESULT:      -6.5      1.625      1.699
REMARK  Name = 
REMARK  7 active torsions:
REMARK  status: ('A' for Active; 'I' for Inactive)
REMARK    1  A    between atoms: C_1  and  N_2
REMARK    2  A    between atoms: N_2  and  O_3
REMARK    3  A    between atoms: N_2  and  C_4
REMARK    4  A    between atoms: C_5  and  O_6
REMARK    5  A    between atoms: C_7  and  C_8
REMARK    6  A    between atoms: C_8  and  O_9
REMARK    7  A    between atoms: C_11  and  N_12
REMARK                            x       y       z     vdW  Elec       q    Type
REMARK                         _______ _______ _______ _____ _____    ______ ____
ROOT
ATOM      1  C   UNL     1       3.247   4.476  19.610  0.00  0.00    +0.000 C 
ATOM      2  C   UNL     1       2.766   3.072  20.032  0.00  0.00    +0.000 C 
ATOM      3  C   UNL     1       3.871   2.154  19.510  0.00  0.00    +0.000 C 
ATOM      4  O   UNL     1       5.090   2.930  19.445  0.00  0.00    +0.000 OA
ATOM      5  C   UNL     1       4.784   4.305  19.764  0.00  0.00    +0.000 C 
ENDROOT
BRANCH   5   6
ATOM      6  N   UNL     1       5.597   5.164  18.909  0.00  0.00    +0.000 N 
ATOM      7  C   UNL     1       5.126   5.589  17.683  0.00  0.00    +0.000 A 
ATOM      8  C   UNL     1       5.844   6.395  16.912  0.00  0.00    +0.000 A 
ATOM      9  C   UNL     1       7.151   6.809  17.453  0.00  0.00    +0.000 A 
ATOM     10  N   UNL     1       7.939   7.665  16.738  0.00  0.00    +0.000 N 
ATOM     11  N   UNL     1       7.612   6.395  18.589  0.00  0.00    +0.000 NA
ATOM     12  C   UNL     1       6.867   5.537  19.364  0.00  0.00    +0.000 A 
ATOM     13  O   UNL     1       7.308   5.132  20.436  0.00  0.00    +0.000 OA
ATOM     14  H   UNL     1       7.910   7.583  15.730  0.00  0.00    +0.000 HD
ATOM     15  H   UNL     1       8.888   7.697  17.103  0.00  0.00    +0.000 HD
ENDBRANCH   5   6
BRANCH   1  17
ATOM     16  C   UNL     1       2.417   6.780  19.577  0.00  0.00    +0.000 C 
ATOM     17  N   UNL     1       2.617   5.573  20.382  0.00  0.00    +0.000 NA
BRANCH  17  18
ATOM     18  O   UNL     1       1.261   5.120  20.671  0.00  0.00    +0.000 OA
ATOM     19  H   UNL     1       0.907   4.980  19.770  0.00  0.00    +0.000 HD
ENDBRANCH  17  18
ENDBRANCH   1  17
BRANCH   2  20
ATOM     20  O   UNL     1       2.651   2.914  21.454  0.00  0.00    +0.000 OA
ATOM     21  H   UNL     1       1.998   2.217  21.644  0.00  0.00    +0.000 HD
ENDBRANCH   2  20
BRANCH   3  22
ATOM     22  C   UNL     1       3.592   1.629  18.099  0.00  0.00    +0.000 C 
BRANCH  22  23
ATOM     23  O   UNL     1       2.192   1.685  17.822  0.00  0.00    +0.000 OA
ATOM     24  H   UNL     1       1.799   0.889  18.230  0.00  0.00    +0.000 HD
ENDBRANCH  22  23
ENDBRANCH   3  22
TORSDOF 6
ENDMDL
MODEL 3
REMARK VINA RESULT:      -6.2      2.553      4.770
REMARK  Name = 
REMARK  7 active torsions:
REMARK  status: ('A' for Active; 'I' for Inactive)
REMARK    1  A    between atoms: C_1  and  N_2
REMARK    2  A    between atoms: N_2  and  O_3
REMARK    3  A    between atoms: N_2  and  C_4
REMARK    4  A    between atoms: C_5  and  O_6
REMARK    5  A    between atoms: C_7  and  C_8
REMARK    6  A    between atoms: C_8  and  O_9
REMARK    7  A    between atoms: C_11  and  N_12
REMARK                            x       y       z     vdW  Elec       q    Type
REMARK                         _______ _______ _______ _____ _____    ______ ____
ROOT
ATOM      1  C   UNL     1       3.155   4.207  18.332  0.00  0.00    +0.000 C 
ATOM      2  C   UNL     1       4.343   3.277  18.653  0.00  0.00    +0.000 C 
ATOM      3  C   UNL     1       5.446   4.251  19.065  0.00  0.00    +0.000 C 
ATOM      4  O   UNL     1       4.808   5.444  19.577  0.00  0.00    +0.000 OA
ATOM      5  C   UNL     1       3.382   5.328  19.385  0.00  0.00    +0.000 C 
ENDROOT
BRANCH   5   6
ATOM      6  N   UNL     1       2.862   6.642  19.020  0.00  0.00    +0.000 N 
ATOM      7  C   UNL     1       3.206   7.230  17.820  0.00  0.00    +0.000 A 
ATOM      8  C   UNL     1       2.715   8.410  17.466  0.00  0.00    +0.000 A 
ATOM      9  C   UNL     1       1.780   9.032  18.422  0.00  0.00    +0.000 A 
ATOM     10  N   UNL     1       1.202  10.232  18.120  0.00  0.00    +0.000 N 
ATOM     11  N   UNL     1       1.471   8.500  19.561  0.00  0.00    +0.000 NA
ATOM     12  C   UNL     1       2.012   7.289  19.925  0.00  0.00    +0.000 A 
ATOM     13  O   UNL     1       1.731   6.790  21.011  0.00  0.00    +0.000 OA
ATOM     14  H   UNL     1       1.758  10.890  17.589  0.00  0.00    +0.000 HD
ATOM     15  H   UNL     1       0.762  10.654  18.934  0.00  0.00    +0.000 HD
ENDBRANCH   5   6
BRANCH   1  17
ATOM     16  C   UNL     1       1.115   3.753  19.610  0.00  0.00    +0.000 C 
ATOM     17  N   UNL     1       1.842   3.521  18.360  0.00  0.00    +0.000 NA
BRANCH  17  18
ATOM     18  O   UNL     1       1.027   4.193  17.354  0.00  0.00    +0.000 OA
ATOM     19  H   UNL     1       1.571   4.071  16.551  0.00  0.00    +0.000 HD
ENDBRANCH  17  18
ENDBRANCH   1  17
BRANCH   2  20
ATOM     20  O   UNL     1       4.080   2.373  19.736  0.00  0.00    +0.000 OA
ATOM     21  H   UNL     1       3.717   1.544  19.377  0.00  0.00    +0.000 HD
ENDBRANCH   2  20
BRANCH   3  22
ATOM     22  C   UNL     1       6.332   4.678  17.891  0.00  0.00    +0.000 C 
BRANCH  22  23
ATOM     23  O   UNL     1       7.678   4.258  18.112  0.00  0.00    +0.000 OA
ATOM     24  H   UNL     1       8.249   4.979  17.780  0.00  0.00    +0.000 HD
ENDBRANCH  22  23
ENDBRANCH   3  22
TORSDOF 6
ENDMDL
MODEL 4
REMARK VINA RESULT:      -6.1      2.454      5.391
REMARK  Name = 
REMARK  7 active torsions:
REMARK  status: ('A' for Active; 'I' for Inactive)
REMARK    1  A    between atoms: C_1  and  N_2
REMARK    2  A    between atoms: N_2  and  O_3
REMARK    3  A    between atoms: N_2  and  C_4
REMARK    4  A    between atoms: C_5  and  O_6
REMARK    5  A    between atoms: C_7  and  C_8
REMARK    6  A    between atoms: C_8  and  O_9
REMARK    7  A    between atoms: C_11  and  N_12
REMARK                            x       y       z     vdW  Elec       q    Type
REMARK                         _______ _______ _______ _____ _____    ______ ____
ROOT
ATOM      1  C   UNL     1       5.507   5.482  17.156  0.00  0.00    +0.000 C 
ATOM      2  C   UNL     1       7.040   5.608  17.039  0.00  0.00    +0.000 C 
ATOM      3  C   UNL     1       7.542   4.969  18.334  0.00  0.00    +0.000 C 
ATOM      4  O   UNL     1       6.543   4.017  18.767  0.00  0.00    +0.000 OA
ATOM      5  C   UNL     1       5.394   4.122  17.900  0.00  0.00    +0.000 C 
ENDROOT
BRANCH   5   6
ATOM      6  N   UNL     1       4.192   3.952  18.712  0.00  0.00    +0.000 N 
ATOM      7  C   UNL     1       3.800   4.929  19.606  0.00  0.00    +0.000 A 
ATOM      8  C   UNL     1       2.694   4.798  20.326  0.00  0.00    +0.000 A 
ATOM      9  C   UNL     1       1.919   3.565  20.098  0.00  0.00    +0.000 A 
ATOM     10  N   UNL     1       0.748   3.368  20.773  0.00  0.00    +0.000 N 
ATOM     11  N   UNL     1       2.291   2.633  19.281  0.00  0.00    +0.000 NA
ATOM     12  C   UNL     1       3.456   2.771  18.563  0.00  0.00    +0.000 A 
ATOM     13  O   UNL     1       3.819   1.882  17.798  0.00  0.00    +0.000 OA
ATOM     14  H   UNL     1       0.696   3.726  21.718  0.00  0.00    +0.000 HD
ATOM     15  H   UNL     1       0.429   2.405  20.700  0.00  0.00    +0.000 HD
ENDBRANCH   5   6
BRANCH   1  17
ATOM     16  C   UNL     1       5.304   6.703  15.042  0.00  0.00    +0.000 C 
ATOM     17  N   UNL     1       4.805   5.592  15.856  0.00  0.00    +0.000 NA
BRANCH  17  18
ATOM     18  O   UNL     1       5.190   4.406  15.100  0.00  0.00    +0.000 OA
ATOM     19  H   UNL     1       6.088   4.651  14.800  0.00  0.00    +0.000 HD
ENDBRANCH  17  18
ENDBRANCH   1  17
BRANCH   2  20
ATOM     20  O   UNL     1       7.585   4.899  15.917  0.00  0.00    +0.000 OA
ATOM     21  H   UNL     1       7.515   3.942  16.082  0.00  0.00    +0.000 HD
ENDBRANCH   2  20
BRANCH   3  22
ATOM     22  C   UNL     1       7.725   5.983  19.466  0.00  0.00    +0.000 C 
BRANCH  22  23
ATOM     23  O   UNL     1       8.145   5.318  20.658  0.00  0.00    +0.000 OA
ATOM     24  H   UNL     1       8.686   5.963  21.156  0.00  0.00    +0.000 HD
ENDBRANCH  22  23
ENDBRANCH   3  22
TORSDOF 6
ENDMDL
MODEL 5
REMARK VINA RESULT:      -6.1      2.646      4.820
REMARK  Name = 
REMARK  7 active torsions:
REMARK  status: ('A' for Active; 'I' for Inactive)
REMARK    1  A    between atoms: C_1  and  N_2
REMARK    2  A    between atoms: N_2  and  O_3
REMARK    3  A    between atoms: N_2  and  C_4
REMARK    4  A    between atoms: C_5  and  O_6
REMARK    5  A    between atoms: C_7  and  C_8
REMARK    6  A    between atoms: C_8  and  O_9
REMARK    7  A    between atoms: C_11  and  N_12
REMARK                            x       y       z     vdW  Elec       q    Type
REMARK                         _______ _______ _______ _____ _____    ______ ____
ROOT
ATOM      1  C   UNL     1       2.519   4.401  18.876  0.00  0.00    +0.000 C 
ATOM      2  C   UNL     1       3.634   3.369  19.144  0.00  0.00    +0.000 C 
ATOM      3  C   UNL     1       4.894   4.231  19.228  0.00  0.00    +0.000 C 
ATOM      4  O   UNL     1       4.491   5.555  19.649  0.00  0.00    +0.000 OA
ATOM      5  C   UNL     1       3.049   5.607  19.701  0.00  0.00    +0.000 C 
ENDROOT
BRANCH   5   6
ATOM      6  N   UNL     1       2.623   6.922  19.230  0.00  0.00    +0.000 N 
ATOM      7  C   UNL     1       3.073   7.420  18.024  0.00  0.00    +0.000 A 
ATOM      8  C   UNL     1       2.668   8.600  17.573  0.00  0.00    +0.000 A 
ATOM      9  C   UNL     1       1.709   9.322  18.428  0.00  0.00    +0.000 A 
ATOM     10  N   UNL     1       1.215  10.529  18.021  0.00  0.00    +0.000 N 
ATOM     11  N   UNL     1       1.301   8.874  19.572  0.00  0.00    +0.000 NA
ATOM     12  C   UNL     1       1.752   7.662  20.038  0.00  0.00    +0.000 A 
ATOM     13  O   UNL     1       1.377   7.242  21.129  0.00  0.00    +0.000 OA
ATOM     14  H   UNL     1       1.838  11.127  17.493  0.00  0.00    +0.000 HD
ATOM     15  H   UNL     1       0.747  11.020  18.780  0.00  0.00    +0.000 HD
ENDBRANCH   5   6
BRANCH   1  17
ATOM     16  C   UNL     1       0.998   2.482  18.916  0.00  0.00    +0.000 C 
ATOM     17  N   UNL     1       1.163   3.907  19.211  0.00  0.00    +0.000 NA
BRANCH  17  18
ATOM     18  O   UNL     1       1.070   3.974  20.665  0.00  0.00    +0.000 OA
ATOM     19  H   UNL     1       0.418   3.270  20.850  0.00  0.00    +0.000 HD
ENDBRANCH  17  18
ENDBRANCH   1  17
BRANCH   2  20
ATOM     20  O   UNL     1       3.464   2.656  20.377  0.00  0.00    +0.000 OA
ATOM     21  H   UNL     1       2.896   1.881  20.221  0.00  0.00    +0.000 HD
ENDBRANCH   2  20
BRANCH   3  22
ATOM     22  C   UNL     1       5.604   4.380  17.879  0.00  0.00    +0.000 C 
BRANCH  22  23
ATOM     23  O   UNL     1       7.002   4.128  18.029  0.00  0.00    +0.000 OA
ATOM     24  H   UNL     1       7.162   3.240  17.654  0.00  0.00    +0.000 HD
ENDBRANCH  22  23
ENDBRANCH   3  22
TORSDOF 6
ENDMDL
MODEL 6
REMARK VINA RESULT:      -6.1      2.686      5.208
REMARK  Name = 
REMARK  7 active torsions:
REMARK  status: ('A' for Active; 'I' for Inactive)
REMARK    1  A    between atoms: C_1  and  N_2
REMARK    2  A    between atoms: N_2  and  O_3
REMARK    3  A    between atoms: N_2  and  C_4
REMARK    4  A    between atoms: C_5  and  O_6
REMARK    5  A    between atoms: C_7  and  C_8
REMARK    6  A    between atoms: C_8  and  O_9
REMARK    7  A    between atoms: C_11  and  N_12
REMARK                            x       y       z     vdW  Elec       q    Type
REMARK                         _______ _______ _______ _____ _____    ______ ____
ROOT
ATOM      1  C   UNL     1       4.206   6.240  17.725  0.00  0.00    +0.000 C 
ATOM      2  C   UNL     1       5.442   6.366  16.812  0.00  0.00    +0.000 C 
ATOM      3  C   UNL     1       6.090   4.985  16.909  0.00  0.00    +0.000 C 
ATOM      4  O   UNL     1       5.048   4.035  17.231  0.00  0.00    +0.000 OA
ATOM      5  C   UNL     1       3.820   4.755  17.472  0.00  0.00    +0.000 C 
ENDROOT
BRANCH   5   6
ATOM      6  N   UNL     1       3.113   4.098  18.567  0.00  0.00    +0.000 N 
ATOM      7  C   UNL     1       3.790   3.681  19.695  0.00  0.00    +0.000 A 
ATOM      8  C   UNL     1       3.152   3.111  20.709  0.00  0.00    +0.000 A 
ATOM      9  C   UNL     1       1.693   2.969  20.554  0.00  0.00    +0.000 A 
ATOM     10  N   UNL     1       0.955   2.423  21.565  0.00  0.00    +0.000 N 
ATOM     11  N   UNL     1       1.053   3.334  19.489  0.00  0.00    +0.000 NA
ATOM     12  C   UNL     1       1.734   3.898  18.436  0.00  0.00    +0.000 A 
ATOM     13  O   UNL     1       1.132   4.232  17.420  0.00  0.00    +0.000 OA
ATOM     14  H   UNL     1       1.391   1.690  22.109  0.00  0.00    +0.000 HD
ATOM     15  H   UNL     1       0.016   2.179  21.258  0.00  0.00    +0.000 HD
ENDBRANCH   5   6
BRANCH   1  17
ATOM     16  C   UNL     1       2.372   7.581  18.641  0.00  0.00    +0.000 C 
ATOM     17  N   UNL     1       3.163   7.256  17.451  0.00  0.00    +0.000 NA
BRANCH  17  18
ATOM     18  O   UNL     1       3.884   8.491  17.165  0.00  0.00    +0.000 OA
ATOM     19  H   UNL     1       4.547   8.182  16.515  0.00  0.00    +0.000 HD
ENDBRANCH  17  18
ENDBRANCH   1  17
BRANCH   2  20
ATOM     20  O   UNL     1       5.112   6.639  15.442  0.00  0.00    +0.000 OA
ATOM     21  H   UNL     1       4.218   6.302  15.257  0.00  0.00    +0.000 HD
ENDBRANCH   2  20
BRANCH   3  22
ATOM     22  C   UNL     1       7.142   4.898  18.019  0.00  0.00    +0.000 C 
BRANCH  22  23
ATOM     23  O   UNL     1       8.212   4.043  17.616  0.00  0.00    +0.000 OA
ATOM     24  H   UNL     1       7.811   3.342  17.065  0.00  0.00    +0.000 HD
ENDBRANCH  22  23
ENDBRANCH   3  22
TORSDOF 6
ENDMDL
MODEL 7
REMARK VINA RESULT:      -6.0      2.225      5.724
REMARK  Name = 
REMARK  7 active torsions:
REMARK  status: ('A' for Active; 'I' for Inactive)
REMARK    1  A    between atoms: C_1  and  N_2
REMARK    2  A    between atoms: N_2  and  O_3
REMARK    3  A    between atoms: N_2  and  C_4
REMARK    4  A    between atoms: C_5  and  O_6
REMARK    5  A    between atoms: C_7  and  C_8
REMARK    6  A    between atoms: C_8  and  O_9
REMARK    7  A    between atoms: C_11  and  N_12
REMARK                            x       y       z     vdW  Elec       q    Type
REMARK                         _______ _______ _______ _____ _____    ______ ____
ROOT
ATOM      1  C   UNL     1       5.470   4.965  16.456  0.00  0.00    +0.000 C 
ATOM      2  C   UNL     1       6.888   5.545  16.274  0.00  0.00    +0.000 C 
ATOM      3  C   UNL     1       7.204   6.133  17.649  0.00  0.00    +0.000 C 
ATOM      4  O   UNL     1       6.428   5.402  18.626  0.00  0.00    +0.000 OA
ATOM      5  C   UNL     1       5.550   4.489  17.934  0.00  0.00    +0.000 C 
ENDROOT
BRANCH   5   6
ATOM      6  N   UNL     1       4.276   4.450  18.647  0.00  0.00    +0.000 N 
ATOM      7  C   UNL     1       3.798   5.568  19.300  0.00  0.00    +0.000 A 
ATOM      8  C   UNL     1       2.629   5.552  19.925  0.00  0.00    +0.000 A 
ATOM      9  C   UNL     1       1.882   4.283  19.863  0.00  0.00    +0.000 A 
ATOM     10  N   UNL     1       0.653   4.191  20.451  0.00  0.00    +0.000 N 
ATOM     11  N   UNL     1       2.334   3.222  19.275  0.00  0.00    +0.000 NA
ATOM     12  C   UNL     1       3.561   3.246  18.655  0.00  0.00    +0.000 A 
ATOM     13  O   UNL     1       3.998   2.238  18.110  0.00  0.00    +0.000 OA
ATOM     14  H   UNL     1       0.510   4.720  21.302  0.00  0.00    +0.000 HD
ATOM     15  H   UNL     1       0.345   3.225  20.531  0.00  0.00    +0.000 HD
ENDBRANCH   5   6
BRANCH   1  17
ATOM     16  C   UNL     1       5.623   4.276  14.111  0.00  0.00    +0.000 C 
ATOM     17  N   UNL     1       5.114   3.944  15.444  0.00  0.00    +0.000 NA
BRANCH  17  18
ATOM     18  O   UNL     1       5.862   2.748  15.814  0.00  0.00    +0.000 OA
ATOM     19  H   UNL     1       6.047   2.356  14.937  0.00  0.00    +0.000 HD
ENDBRANCH  17  18
ENDBRANCH   1  17
BRANCH   2  20
ATOM     20  O   UNL     1       7.870   4.551  15.946  0.00  0.00    +0.000 OA
ATOM     21  H   UNL     1       8.170   4.690  15.030  0.00  0.00    +0.000 HD
ENDBRANCH   2  20
BRANCH   3  22
ATOM     22  C   UNL     1       6.812   7.609  17.769  0.00  0.00    +0.000 C 
BRANCH  22  23
ATOM     23  O   UNL     1       7.965   8.437  17.628  0.00  0.00    +0.000 OA
ATOM     24  H   UNL     1       7.809   9.224  18.188  0.00  0.00    +0.000 HD
ENDBRANCH  22  23
ENDBRANCH   3  22
TORSDOF 6
ENDMDL
MODEL 8
REMARK VINA RESULT:      -6.0      1.051      1.546
REMARK  Name = 
REMARK  7 active torsions:
REMARK  status: ('A' for Active; 'I' for Inactive)
REMARK    1  A    between atoms: C_1  and  N_2
REMARK    2  A    between atoms: N_2  and  O_3
REMARK    3  A    between atoms: N_2  and  C_4
REMARK    4  A    between atoms: C_5  and  O_6
REMARK    5  A    between atoms: C_7  and  C_8
REMARK    6  A    between atoms: C_8  and  O_9
REMARK    7  A    between atoms: C_11  and  N_12
REMARK                            x       y       z     vdW  Elec       q    Type
REMARK                         _______ _______ _______ _____ _____    ______ ____
ROOT
ATOM      1  C   UNL     1       3.053   5.030  19.309  0.00  0.00    +0.000 C 
ATOM      2  C   UNL     1       2.293   4.153  20.324  0.00  0.00    +0.000 C 
ATOM      3  C   UNL     1       2.937   2.778  20.147  0.00  0.00    +0.000 C 
ATOM      4  O   UNL     1       4.281   2.984  19.655  0.00  0.00    +0.000 OA
ATOM      5  C   UNL     1       4.468   4.391  19.388  0.00  0.00    +0.000 C 
ENDROOT
BRANCH   5   6
ATOM      6  N   UNL     1       5.281   4.523  18.182  0.00  0.00    +0.000 N 
ATOM      7  C   UNL     1       6.603   4.910  18.262  0.00  0.00    +0.000 A 
ATOM      8  C   UNL     1       7.360   5.004  17.177  0.00  0.00    +0.000 A 
ATOM      9  C   UNL     1       6.704   4.657  15.903  0.00  0.00    +0.000 A 
ATOM     10  N   UNL     1       7.421   4.693  14.741  0.00  0.00    +0.000 N 
ATOM     11  N   UNL     1       5.458   4.317  15.816  0.00  0.00    +0.000 NA
ATOM     12  C   UNL     1       4.680   4.252  16.947  0.00  0.00    +0.000 A 
ATOM     13  O   UNL     1       3.495   3.944  16.866  0.00  0.00    +0.000 OA
ATOM     14  H   UNL     1       8.136   5.406  14.664  0.00  0.00    +0.000 HD
ATOM     15  H   UNL     1       6.816   4.652  13.924  0.00  0.00    +0.000 HD
ENDBRANCH   5   6
BRANCH   1  17
ATOM     16  C   UNL     1       2.894   7.289  18.374  0.00  0.00    +0.000 C 
ATOM     17  N   UNL     1       2.959   6.481  19.594  0.00  0.00    +0.000 NA
BRANCH  17  18
ATOM     18  O   UNL     1       1.651   6.675  20.210  0.00  0.00    +0.000 OA
ATOM     19  H   UNL     1       1.105   6.037  19.709  0.00  0.00    +0.000 HD
ENDBRANCH  17  18
ENDBRANCH   1  17
BRANCH   2  20
ATOM     20  O   UNL     1       2.460   4.583  21.683  0.00  0.00    +0.000 OA
ATOM     21  H   UNL     1       2.841   5.478  21.689  0.00  0.00    +0.000 HD
ENDBRANCH   2  20
BRANCH   3  22
ATOM     22  C   UNL     1       2.207   1.906  19.121  0.00  0.00    +0.000 C 
BRANCH  22  23
ATOM     23  O   UNL     1       3.146   1.309  18.226  0.00  0.00    +0.000 OA
ATOM     24  H   UNL     1       2.693   0.541  17.825  0.00  0.00    +0.000 HD
ENDBRANCH  22  23
ENDBRANCH   3  22
TORSDOF 6
ENDMDL
MODEL 9
REMARK VINA RESULT:      -6.0      1.787      3.270
REMARK  Name = 
REMARK  7 active torsions:
REMARK  status: ('A' for Active; 'I' for Inactive)
REMARK    1  A    between atoms: C_1  and  N_2
REMARK    2  A    between atoms: N_2  and  O_3
REMARK    3  A    between atoms: N_2  and  C_4
REMARK    4  A    between atoms: C_5  and  O_6
REMARK    5  A    between atoms: C_7  and  C_8
REMARK    6  A    between atoms: C_8  and  O_9
REMARK    7  A    between atoms: C_11  and  N_12
REMARK                            x       y       z     vdW  Elec       q    Type
REMARK                         _______ _______ _______ _____ _____    ______ ____
ROOT
ATOM      1  C   UNL     1       3.315   3.372  19.764  0.00  0.00    +0.000 C 
ATOM      2  C   UNL     1       1.912   3.529  20.383  0.00  0.00    +0.000 C 
ATOM      3  C   UNL     1       1.439   4.877  19.837  0.00  0.00    +0.000 C 
ATOM      4  O   UNL     1       2.125   5.106  18.584  0.00  0.00    +0.000 OA
ATOM      5  C   UNL     1       3.092   4.053  18.384  0.00  0.00    +0.000 C 
ENDROOT
BRANCH   5   6
ATOM      6  N   UNL     1       4.284   4.636  17.776  0.00  0.00    +0.000 N 
ATOM      7  C   UNL     1       4.492   4.557  16.413  0.00  0.00    +0.000 A 
ATOM      8  C   UNL     1       5.556   5.110  15.846  0.00  0.00    +0.000 A 
ATOM      9  C   UNL     1       6.477   5.815  16.756  0.00  0.00    +0.000 A 
ATOM     10  N   UNL     1       7.580   6.442  16.250  0.00  0.00    +0.000 N 
ATOM     11  N   UNL     1       6.304   5.873  18.037  0.00  0.00    +0.000 NA
ATOM     12  C   UNL     1       5.210   5.270  18.613  0.00  0.00    +0.000 A 
ATOM     13  O   UNL     1       5.051   5.311  19.829  0.00  0.00    +0.000 OA
ATOM     14  H   UNL     1       8.028   6.011  15.451  0.00  0.00    +0.000 HD
ATOM     15  H   UNL     1       8.239   6.695  16.982  0.00  0.00    +0.000 HD
ENDBRANCH   5   6
BRANCH   1  17
ATOM     16  C   UNL     1       3.701   1.361  18.419  0.00  0.00    +0.000 C 
ATOM     17  N   UNL     1       3.800   1.971  19.746  0.00  0.00    +0.000 NA
BRANCH  17  18
ATOM     18  O   UNL     1       5.236   2.051  19.987  0.00  0.00    +0.000 OA
ATOM     19  H   UNL     1       5.319   2.947  20.372  0.00  0.00    +0.000 HD
ENDBRANCH  17  18
ENDBRANCH   1  17
BRANCH   2  20
ATOM     20  O   UNL     1       0.993   2.505  19.976  0.00  0.00    +0.000 OA
ATOM     21  H   UNL     1       0.739   1.978  20.755  0.00  0.00    +0.000 HD
ENDBRANCH   2  20
BRANCH   3  22
ATOM     22  C   UNL     1       1.782   6.047  20.763  0.00  0.00    +0.000 C 
BRANCH  22  23
ATOM     23  O   UNL     1       2.534   7.032  20.053  0.00  0.00    +0.000 OA
ATOM     24  H   UNL     1       1.882   7.653  19.672  0.00  0.00    +0.000 HD
ENDBRANCH  22  23
ENDBRANCH   3  22
TORSDOF 6
ENDMDL
