MODEL 1
REMARK VINA RESULT:      -8.5      0.000      0.000
REMARK  Name = 
REMARK  7 active torsions:
REMARK  status: ('A' for Active; 'I' for Inactive)
REMARK    1  A    between atoms: C_2  and  C_3
REMARK    2  A    between atoms: C_3  and  N_4
REMARK    3  A    between atoms: N_4  and  S_5
REMARK    4  A    between atoms: S_5  and  C_8
REMARK    5  A    between atoms: N_21  and  C_22
REMARK    6  A    between atoms: C_22  and  C_23
REMARK    7  A    between atoms: C_23  and  C_24
REMARK                            x       y       z     vdW  Elec       q    Type
REMARK                         _______ _______ _______ _____ _____    ______ ____
ROOT
ATOM      1  O   UNL     1       2.420   8.738  17.404  0.00  0.00    +0.000 OA
ATOM      2  C   UNL     1       2.070   8.357  18.524  0.00  0.00    +0.000 C 
ATOM      3  N   UNL     1       1.265   9.133  19.348  0.00  0.00    +0.000 N 
ATOM      4  C   UNL     1       0.822   8.777  20.704  0.00  0.00    +0.000 C 
ATOM      5  C   UNL     1       1.229   9.875  21.703  0.00  0.00    +0.000 C 
ATOM      6  N   UNL     1       0.704  11.214  21.351  0.00  0.00    +0.000 NA
ATOM      7  C   UNL     1       1.174  11.541  19.976  0.00  0.00    +0.000 C 
ATOM      8  C   UNL     1       0.845  10.470  18.908  0.00  0.00    +0.000 C 
ENDROOT
BRANCH   2   9
ATOM      9  C   UNL     1       2.520   7.006  19.068  0.00  0.00    +0.000 C 
BRANCH   9  10
ATOM     10  N   UNL     1       2.460   5.934  18.074  0.00  0.00    +0.000 NA
ATOM     11  H   UNL     1       2.594   6.198  17.096  0.00  0.00    +0.000 HD
BRANCH  10  12
ATOM     12  S   UNL     1       3.187   4.483  18.495  0.00  0.00    +0.000 S 
ATOM     13  O   UNL     1       2.980   4.301  19.917  0.00  0.00    +0.000 OA
ATOM     14  O   UNL     1       2.740   3.486  17.543  0.00  0.00    +0.000 OA
BRANCH  12  15
ATOM     15  C   UNL     1       4.914   4.808  18.219  0.00  0.00    +0.000 A 
ATOM     16  C   UNL     1       5.681   5.148  19.347  0.00  0.00    +0.000 A 
ATOM     17  C   UNL     1       7.034   5.431  19.208  0.00  0.00    +0.000 A 
ATOM     18  C   UNL     1       7.623   5.375  17.948  0.00  0.00    +0.000 A 
ATOM     19  C   UNL     1       6.875   5.037  16.809  0.00  0.00    +0.000 A 
ATOM     20  C   UNL     1       7.512   4.993  15.556  0.00  0.00    +0.000 A 
ATOM     21  C   UNL     1       6.806   4.664  14.401  0.00  0.00    +0.000 A 
ATOM     22  C   UNL     1       5.454   4.372  14.485  0.00  0.00    +0.000 A 
ATOM     23  C   UNL     1       4.807   4.415  15.721  0.00  0.00    +0.000 A 
ATOM     24  C   UNL     1       5.491   4.744  16.920  0.00  0.00    +0.000 A 
ENDBRANCH  12  15
ENDBRANCH  10  12
ENDBRANCH   9  10
ENDBRANCH   2   9
BRANCH   6  25
ATOM     25  C   UNL     1      -0.771  11.297  21.436  0.00  0.00    +0.000 C 
BRANCH  25  26
ATOM     26  C   UNL     1      -1.325  11.150  22.865  0.00  0.00    +0.000 C 
BRANCH  26  27
ATOM     27  C   UNL     1      -2.029  12.403  23.328  0.00  0.00    +0.000 A 
ATOM     28  C   UNL     1      -1.338  13.623  23.381  0.00  0.00    +0.000 A 
ATOM     29  C   UNL     1      -1.983  14.783  23.811  0.00  0.00    +0.000 A 
ATOM     30  C   UNL     1      -3.322  14.733  24.192  0.00  0.00    +0.000 A 
ATOM     31  C   UNL     1      -4.016  13.525  24.146  0.00  0.00    +0.000 A 
ATOM     32  C   UNL     1      -3.372  12.363  23.718  0.00  0.00    +0.000 A 
ENDBRANCH  26  27
ENDBRANCH  25  26
ENDBRANCH   6  25
TORSDOF 7
ENDMDL
MODEL 2
REMARK VINA RESULT:      -8.4      0.885      1.152
REMARK  Name = 
REMARK  7 active torsions:
REMARK  status: ('A' for Active; 'I' for Inactive)
REMARK    1  A    between atoms: C_2  and  C_3
REMARK    2  A    between atoms: C_3  and  N_4
REMARK    3  A    between atoms: N_4  and  S_5
REMARK    4  A    between atoms: S_5  and  C_8
REMARK    5  A    between atoms: N_21  and  C_22
REMARK    6  A    between atoms: C_22  and  C_23
REMARK    7  A    between atoms: C_23  and  C_24
REMARK                            x       y       z     vdW  Elec       q    Type
REMARK                         _______ _______ _______ _____ _____    ______ ____
ROOT
ATOM      1  O   UNL     1       2.315   8.712  17.864  0.00  0.00    +0.000 OA
ATOM      2  C   UNL     1       1.995   8.252  18.964  0.00  0.00    +0.000 C 
ATOM      3  N   UNL     1       1.181   8.951  19.847  0.00  0.00    +0.000 N 
ATOM      4  C   UNL     1       0.772   8.499  21.185  0.00  0.00    +0.000 C 
ATOM      5  C   UNL     1       1.164   9.546  22.243  0.00  0.00    +0.000 C 
ATOM      6  N   UNL     1       0.594  10.887  21.983  0.00  0.00    +0.000 NA
ATOM      7  C   UNL     1       1.030  11.312  20.624  0.00  0.00    +0.000 C 
ATOM      8  C   UNL     1       0.715  10.299  19.496  0.00  0.00    +0.000 C 
ENDROOT
BRANCH   2   9
ATOM      9  C   UNL     1       2.494   6.884  19.416  0.00  0.00    +0.000 C 
BRANCH   9  10
ATOM     10  N   UNL     1       2.418   5.866  18.369  0.00  0.00    +0.000 NA
ATOM     11  H   UNL     1       2.495   6.187  17.402  0.00  0.00    +0.000 HD
BRANCH  10  12
ATOM     12  S   UNL     1       3.208   4.419  18.674  0.00  0.00    +0.000 S 
ATOM     13  O   UNL     1       3.097   4.166  20.095  0.00  0.00    +0.000 OA
ATOM     14  O   UNL     1       2.728   3.454  17.705  0.00  0.00    +0.000 OA
BRANCH  12  15
ATOM     15  C   UNL     1       4.905   4.807  18.306  0.00  0.00    +0.000 A 
ATOM     16  C   UNL     1       5.704   5.229  19.382  0.00  0.00    +0.000 A 
ATOM     17  C   UNL     1       7.036   5.564  19.170  0.00  0.00    +0.000 A 
ATOM     18  C   UNL     1       7.571   5.480  17.888  0.00  0.00    +0.000 A 
ATOM     19  C   UNL     1       6.790   5.061  16.800  0.00  0.00    +0.000 A 
ATOM     20  C   UNL     1       7.373   4.990  15.521  0.00  0.00    +0.000 A 
ATOM     21  C   UNL     1       6.632   4.581  14.414  0.00  0.00    +0.000 A 
ATOM     22  C   UNL     1       5.300   4.235  14.572  0.00  0.00    +0.000 A 
ATOM     23  C   UNL     1       4.706   4.302  15.833  0.00  0.00    +0.000 A 
ATOM     24  C   UNL     1       5.426   4.713  16.985  0.00  0.00    +0.000 A 
ENDBRANCH  12  15
ENDBRANCH  10  12
ENDBRANCH   9  10
ENDBRANCH   2   9
BRANCH   6  25
ATOM     25  C   UNL     1      -0.882  10.920  22.095  0.00  0.00    +0.000 C 
BRANCH  25  26
ATOM     26  C   UNL     1      -1.509  12.270  21.701  0.00  0.00    +0.000 C 
BRANCH  26  27
ATOM     27  C   UNL     1      -2.846  12.486  22.368  0.00  0.00    +0.000 A 
ATOM     28  C   UNL     1      -2.973  12.335  23.758  0.00  0.00    +0.000 A 
ATOM     29  C   UNL     1      -4.207  12.531  24.380  0.00  0.00    +0.000 A 
ATOM     30  C   UNL     1      -5.322  12.875  23.619  0.00  0.00    +0.000 A 
ATOM     31  C   UNL     1      -5.206  13.023  22.238  0.00  0.00    +0.000 A 
ATOM     32  C   UNL     1      -3.973  12.827  21.613  0.00  0.00    +0.000 A 
ENDBRANCH  26  27
ENDBRANCH  25  26
ENDBRANCH   6  25
TORSDOF 7
ENDMDL
MODEL 3
REMARK VINA RESULT:      -8.2      3.225     10.806
REMARK  Name = 
REMARK  7 active torsions:
REMARK  status: ('A' for Active; 'I' for Inactive)
REMARK    1  A    between atoms: C_2  and  C_3
REMARK    2  A    between atoms: C_3  and  N_4
REMARK    3  A    between atoms: N_4  and  S_5
REMARK    4  A    between atoms: S_5  and  C_8
REMARK    5  A    between atoms: N_21  and  C_22
REMARK    6  A    between atoms: C_22  and  C_23
REMARK    7  A    between atoms: C_23  and  C_24
REMARK                            x       y       z     vdW  Elec       q    Type
REMARK                         _______ _______ _______ _____ _____    ______ ____
ROOT
ATOM      1  O   UNL     1       5.826   4.329  19.971  0.00  0.00    +0.000 OA
ATOM      2  C   UNL     1       5.222   4.018  18.941  0.00  0.00    +0.000 C 
ATOM      3  N   UNL     1       5.777   4.193  17.679  0.00  0.00    +0.000 N 
ATOM      4  C   UNL     1       5.123   3.880  16.400  0.00  0.00    +0.000 C 
ATOM      5  C   UNL     1       5.102   5.126  15.495  0.00  0.00    +0.000 C 
ATOM      6  N   UNL     1       6.447   5.687  15.235  0.00  0.00    +0.000 NA
ATOM      7  C   UNL     1       7.074   5.993  16.551  0.00  0.00    +0.000 C 
ATOM      8  C   UNL     1       7.104   4.808  17.546  0.00  0.00    +0.000 C 
ENDROOT
BRANCH   2   9
ATOM      9  C   UNL     1       3.817   3.431  19.005  0.00  0.00    +0.000 C 
BRANCH   9  10
ATOM     10  N   UNL     1       2.770   4.396  18.667  0.00  0.00    +0.000 NA
ATOM     11  H   UNL     1       2.117   4.133  17.927  0.00  0.00    +0.000 HD
BRANCH  10  12
ATOM     12  S   UNL     1       2.059   5.209  19.949  0.00  0.00    +0.000 S 
ATOM     13  O   UNL     1       0.711   4.696  20.081  0.00  0.00    +0.000 OA
ATOM     14  O   UNL     1       2.988   5.159  21.059  0.00  0.00    +0.000 OA
BRANCH  12  15
ATOM     15  C   UNL     1       1.964   6.883  19.355  0.00  0.00    +0.000 A 
ATOM     16  C   UNL     1       2.515   7.136  18.087  0.00  0.00    +0.000 A 
ATOM     17  C   UNL     1       2.492   8.423  17.563  0.00  0.00    +0.000 A 
ATOM     18  C   UNL     1       1.921   9.456  18.300  0.00  0.00    +0.000 A 
ATOM     19  C   UNL     1       1.364   9.224  19.568  0.00  0.00    +0.000 A 
ATOM     20  C   UNL     1       0.797  10.299  20.276  0.00  0.00    +0.000 A 
ATOM     21  C   UNL     1       0.236  10.112  21.538  0.00  0.00    +0.000 A 
ATOM     22  C   UNL     1       0.232   8.848  22.106  0.00  0.00    +0.000 A 
ATOM     23  C   UNL     1       0.794   7.772  21.416  0.00  0.00    +0.000 A 
ATOM     24  C   UNL     1       1.374   7.921  20.129  0.00  0.00    +0.000 A 
ENDBRANCH  12  15
ENDBRANCH  10  12
ENDBRANCH   9  10
ENDBRANCH   2   9
BRANCH   6  25
ATOM     25  C   UNL     1       7.308   4.784  14.440  0.00  0.00    +0.000 C 
BRANCH  25  26
ATOM     26  C   UNL     1       7.178   4.975  12.918  0.00  0.00    +0.000 C 
BRANCH  26  27
ATOM     27  C   UNL     1       6.696   3.719  12.231  0.00  0.00    +0.000 A 
ATOM     28  C   UNL     1       7.621   2.811  11.693  0.00  0.00    +0.000 A 
ATOM     29  C   UNL     1       7.182   1.649  11.055  0.00  0.00    +0.000 A 
ATOM     30  C   UNL     1       5.818   1.389  10.948  0.00  0.00    +0.000 A 
ATOM     31  C   UNL     1       4.892   2.287  11.477  0.00  0.00    +0.000 A 
ATOM     32  C   UNL     1       5.329   3.450  12.114  0.00  0.00    +0.000 A 
ENDBRANCH  26  27
ENDBRANCH  25  26
ENDBRANCH   6  25
TORSDOF 7
ENDMDL
MODEL 4
REMARK VINA RESULT:      -8.2      6.681      9.801
REMARK  Name = 
REMARK  7 active torsions:
REMARK  status: ('A' for Active; 'I' for Inactive)
REMARK    1  A    between atoms: C_2  and  C_3
REMARK    2  A    between atoms: C_3  and  N_4
REMARK    3  A    between atoms: N_4  and  S_5
REMARK    4  A    between atoms: S_5  and  C_8
REMARK    5  A    between atoms: N_21  and  C_22
REMARK    6  A    between atoms: C_22  and  C_23
REMARK    7  A    between atoms: C_23  and  C_24
REMARK                            x       y       z     vdW  Elec       q    Type
REMARK                         _______ _______ _______ _____ _____    ______ ____
ROOT
ATOM      1  O   UNL     1       8.659   6.730  19.124  0.00  0.00    +0.000 OA
ATOM      2  C   UNL     1       7.826   7.242  18.370  0.00  0.00    +0.000 C 
ATOM      3  N   UNL     1       6.681   6.566  17.968  0.00  0.00    +0.000 N 
ATOM      4  C   UNL     1       5.652   7.081  17.054  0.00  0.00    +0.000 C 
ATOM      5  C   UNL     1       5.460   6.116  15.870  0.00  0.00    +0.000 C 
ATOM      6  N   UNL     1       5.104   4.740  16.284  0.00  0.00    +0.000 NA
ATOM      7  C   UNL     1       6.168   4.252  17.205  0.00  0.00    +0.000 C 
ATOM      8  C   UNL     1       6.460   5.181  18.408  0.00  0.00    +0.000 C 
ENDROOT
BRANCH   2   9
ATOM      9  C   UNL     1       8.024   8.653  17.828  0.00  0.00    +0.000 C 
BRANCH   9  10
ATOM     10  N   UNL     1       8.789   9.516  18.728  0.00  0.00    +0.000 NA
ATOM     11  H   UNL     1       9.544   9.079  19.261  0.00  0.00    +0.000 HD
BRANCH  10  12
ATOM     12  S   UNL     1       9.152  11.052  18.162  0.00  0.00    +0.000 S 
ATOM     13  O   UNL     1      10.445  10.971  17.514  0.00  0.00    +0.000 OA
ATOM     14  O   UNL     1       7.989  11.533  17.447  0.00  0.00    +0.000 OA
BRANCH  12  15
ATOM     15  C   UNL     1       9.337  11.995  19.660  0.00  0.00    +0.000 A 
ATOM     16  C   UNL     1       9.030  11.336  20.863  0.00  0.00    +0.000 A 
ATOM     17  C   UNL     1       9.135  12.011  22.072  0.00  0.00    +0.000 A 
ATOM     18  C   UNL     1       9.545  13.341  22.084  0.00  0.00    +0.000 A 
ATOM     19  C   UNL     1       9.856  14.018  20.894  0.00  0.00    +0.000 A 
ATOM     20  C   UNL     1      10.266  15.362  20.953  0.00  0.00    +0.000 A 
ATOM     21  C   UNL     1      10.583  16.070  19.796  0.00  0.00    +0.000 A 
ATOM     22  C   UNL     1      10.495  15.441  18.564  0.00  0.00    +0.000 A 
ATOM     23  C   UNL     1      10.087  14.109  18.487  0.00  0.00    +0.000 A 
ATOM     24  C   UNL     1       9.757  13.354  19.643  0.00  0.00    +0.000 A 
ENDBRANCH  12  15
ENDBRANCH  10  12
ENDBRANCH   9  10
ENDBRANCH   2   9
BRANCH   6  25
ATOM     25  C   UNL     1       3.773   4.656  16.927  0.00  0.00    +0.000 C 
BRANCH  25  26
ATOM     26  C   UNL     1       3.393   3.239  17.393  0.00  0.00    +0.000 C 
BRANCH  26  27
ATOM     27  C   UNL     1       2.727   3.252  18.748  0.00  0.00    +0.000 A 
ATOM     28  C   UNL     1       3.382   2.704  19.862  0.00  0.00    +0.000 A 
ATOM     29  C   UNL     1       2.770   2.710  21.116  0.00  0.00    +0.000 A 
ATOM     30  C   UNL     1       1.499   3.261  21.266  0.00  0.00    +0.000 A 
ATOM     31  C   UNL     1       0.840   3.804  20.165  0.00  0.00    +0.000 A 
ATOM     32  C   UNL     1       1.449   3.798  18.909  0.00  0.00    +0.000 A 
ENDBRANCH  26  27
ENDBRANCH  25  26
ENDBRANCH   6  25
TORSDOF 7
ENDMDL
MODEL 5
REMARK VINA RESULT:      -8.1      2.944      9.987
REMARK  Name = 
REMARK  7 active torsions:
REMARK  status: ('A' for Active; 'I' for Inactive)
REMARK    1  A    between atoms: C_2  and  C_3
REMARK    2  A    between atoms: C_3  and  N_4
REMARK    3  A    between atoms: N_4  and  S_5
REMARK    4  A    between atoms: S_5  and  C_8
REMARK    5  A    between atoms: N_21  and  C_22
REMARK    6  A    between atoms: C_22  and  C_23
REMARK    7  A    between atoms: C_23  and  C_24
REMARK                            x       y       z     vdW  Elec       q    Type
REMARK                         _______ _______ _______ _____ _____    ______ ____
ROOT
ATOM      1  O   UNL     1       1.734   8.581  17.965  0.00  0.00    +0.000 OA
ATOM      2  C   UNL     1       1.824   7.988  19.044  0.00  0.00    +0.000 C 
ATOM      3  N   UNL     1       2.250   6.667  19.126  0.00  0.00    +0.000 N 
ATOM      4  C   UNL     1       2.361   5.873  20.357  0.00  0.00    +0.000 C 
ATOM      5  C   UNL     1       1.537   4.578  20.232  0.00  0.00    +0.000 C 
ATOM      6  N   UNL     1       1.925   3.744  19.072  0.00  0.00    +0.000 NA
ATOM      7  C   UNL     1       1.798   4.580  17.847  0.00  0.00    +0.000 C 
ATOM      8  C   UNL     1       2.561   5.925  17.897  0.00  0.00    +0.000 C 
ENDROOT
BRANCH   2   9
ATOM      9  C   UNL     1       1.459   8.680  20.351  0.00  0.00    +0.000 C 
BRANCH   9  10
ATOM     10  N   UNL     1       0.193   9.411  20.285  0.00  0.00    +0.000 NA
ATOM     11  H   UNL     1      -0.593   9.027  20.814  0.00  0.00    +0.000 HD
BRANCH  10  12
ATOM     12  S   UNL     1       0.291  11.083  20.324  0.00  0.00    +0.000 S 
ATOM     13  O   UNL     1       0.599  11.459  21.688  0.00  0.00    +0.000 OA
ATOM     14  O   UNL     1       1.146  11.490  19.227  0.00  0.00    +0.000 OA
BRANCH  12  15
ATOM     15  C   UNL     1      -1.377  11.589  19.968  0.00  0.00    +0.000 A 
ATOM     16  C   UNL     1      -2.016  12.384  20.936  0.00  0.00    +0.000 A 
ATOM     17  C   UNL     1      -3.325  12.805  20.736  0.00  0.00    +0.000 A 
ATOM     18  C   UNL     1      -3.997  12.434  19.576  0.00  0.00    +0.000 A 
ATOM     19  C   UNL     1      -3.378  11.641  18.597  0.00  0.00    +0.000 A 
ATOM     20  C   UNL     1      -4.096  11.291  17.439  0.00  0.00    +0.000 A 
ATOM     21  C   UNL     1      -3.518  10.504  16.445  0.00  0.00    +0.000 A 
ATOM     22  C   UNL     1      -2.214  10.059  16.595  0.00  0.00    +0.000 A 
ATOM     23  C   UNL     1      -1.490  10.395  17.740  0.00  0.00    +0.000 A 
ATOM     24  C   UNL     1      -2.042  11.195  18.774  0.00  0.00    +0.000 A 
ENDBRANCH  12  15
ENDBRANCH  10  12
ENDBRANCH   9  10
ENDBRANCH   2   9
BRANCH   6  25
ATOM     25  C   UNL     1       3.292   3.190  19.190  0.00  0.00    +0.000 C 
BRANCH  25  26
ATOM     26  C   UNL     1       4.066   3.146  17.860  0.00  0.00    +0.000 C 
BRANCH  26  27
ATOM     27  C   UNL     1       5.284   4.040  17.888  0.00  0.00    +0.000 A 
ATOM     28  C   UNL     1       5.693   4.637  19.090  0.00  0.00    +0.000 A 
ATOM     29  C   UNL     1       6.816   5.466  19.121  0.00  0.00    +0.000 A 
ATOM     30  C   UNL     1       7.535   5.706  17.952  0.00  0.00    +0.000 A 
ATOM     31  C   UNL     1       7.134   5.120  16.753  0.00  0.00    +0.000 A 
ATOM     32  C   UNL     1       6.010   4.291  16.719  0.00  0.00    +0.000 A 
ENDBRANCH  26  27
ENDBRANCH  25  26
ENDBRANCH   6  25
TORSDOF 7
ENDMDL
MODEL 6
REMARK VINA RESULT:      -8.1      2.759      3.799
REMARK  Name = 
REMARK  7 active torsions:
REMARK  status: ('A' for Active; 'I' for Inactive)
REMARK    1  A    between atoms: C_2  and  C_3
REMARK    2  A    between atoms: C_3  and  N_4
REMARK    3  A    between atoms: N_4  and  S_5
REMARK    4  A    between atoms: S_5  and  C_8
REMARK    5  A    between atoms: N_21  and  C_22
REMARK    6  A    between atoms: C_22  and  C_23
REMARK    7  A    between atoms: C_23  and  C_24
REMARK                            x       y       z     vdW  Elec       q    Type
REMARK                         _______ _______ _______ _____ _____    ______ ____
ROOT
ATOM      1  O   UNL     1       1.828   6.136  20.674  0.00  0.00    +0.000 OA
ATOM      2  C   UNL     1       2.113   6.814  19.683  0.00  0.00    +0.000 C 
ATOM      3  N   UNL     1       1.833   8.173  19.615  0.00  0.00    +0.000 N 
ATOM      4  C   UNL     1       2.109   9.054  18.470  0.00  0.00    +0.000 C 
ATOM      5  C   UNL     1       0.816   9.757  18.016  0.00  0.00    +0.000 C 
ATOM      6  N   UNL     1       0.163  10.538  19.091  0.00  0.00    +0.000 NA
ATOM      7  C   UNL     1      -0.102   9.615  20.229  0.00  0.00    +0.000 C 
ATOM      8  C   UNL     1       1.135   8.830  20.728  0.00  0.00    +0.000 C 
ENDROOT
BRANCH   2   9
ATOM      9  C   UNL     1       2.784   6.183  18.468  0.00  0.00    +0.000 C 
BRANCH   9  10
ATOM     10  N   UNL     1       2.398   4.788  18.254  0.00  0.00    +0.000 NA
ATOM     11  H   UNL     1       1.890   4.574  17.394  0.00  0.00    +0.000 HD
BRANCH  10  12
ATOM     12  S   UNL     1       3.524   3.626  18.690  0.00  0.00    +0.000 S 
ATOM     13  O   UNL     1       3.436   3.468  20.127  0.00  0.00    +0.000 OA
ATOM     14  O   UNL     1       3.341   2.495  17.804  0.00  0.00    +0.000 OA
BRANCH  12  15
ATOM     15  C   UNL     1       5.075   4.410  18.309  0.00  0.00    +0.000 A 
ATOM     16  C   UNL     1       5.786   4.962  19.388  0.00  0.00    +0.000 A 
ATOM     17  C   UNL     1       6.998   5.604  19.166  0.00  0.00    +0.000 A 
ATOM     18  C   UNL     1       7.501   5.697  17.872  0.00  0.00    +0.000 A 
ATOM     19  C   UNL     1       6.807   5.152  16.781  0.00  0.00    +0.000 A 
ATOM     20  C   UNL     1       7.354   5.268  15.490  0.00  0.00    +0.000 A 
ATOM     21  C   UNL     1       6.696   4.742  14.379  0.00  0.00    +0.000 A 
ATOM     22  C   UNL     1       5.484   4.091  14.546  0.00  0.00    +0.000 A 
ATOM     23  C   UNL     1       4.927   3.970  15.820  0.00  0.00    +0.000 A 
ATOM     24  C   UNL     1       5.566   4.491  16.976  0.00  0.00    +0.000 A 
ENDBRANCH  12  15
ENDBRANCH  10  12
ENDBRANCH   9  10
ENDBRANCH   2   9
BRANCH   6  25
ATOM     25  C   UNL     1       0.967  11.699  19.532  0.00  0.00    +0.000 C 
BRANCH  25  26
ATOM     26  C   UNL     1       0.319  13.062  19.225  0.00  0.00    +0.000 C 
BRANCH  26  27
ATOM     27  C   UNL     1       1.341  14.086  18.792  0.00  0.00    +0.000 A 
ATOM     28  C   UNL     1       2.619  13.677  18.379  0.00  0.00    +0.000 A 
ATOM     29  C   UNL     1       3.568  14.619  17.981  0.00  0.00    +0.000 A 
ATOM     30  C   UNL     1       3.249  15.976  17.994  0.00  0.00    +0.000 A 
ATOM     31  C   UNL     1       1.984  16.391  18.406  0.00  0.00    +0.000 A 
ATOM     32  C   UNL     1       1.033  15.450  18.806  0.00  0.00    +0.000 A 
ENDBRANCH  26  27
ENDBRANCH  25  26
ENDBRANCH   6  25
TORSDOF 7
ENDMDL
MODEL 7
REMARK VINA RESULT:      -8.0      2.415     10.932
REMARK  Name = 
REMARK  7 active torsions:
REMARK  status: ('A' for Active; 'I' for Inactive)
REMARK    1  A    between atoms: C_2  and  C_3
REMARK    2  A    between atoms: C_3  and  N_4
REMARK    3  A    between atoms: N_4  and  S_5
REMARK    4  A    between atoms: S_5  and  C_8
REMARK    5  A    between atoms: N_21  and  C_22
REMARK    6  A    between atoms: C_22  and  C_23
REMARK    7  A    between atoms: C_23  and  C_24
REMARK                            x       y       z     vdW  Elec       q    Type
REMARK                         _______ _______ _______ _____ _____    ______ ____
ROOT
ATOM      1  O   UNL     1       2.275   4.936  21.478  0.00  0.00    +0.000 OA
ATOM      2  C   UNL     1       2.107   5.684  20.511  0.00  0.00    +0.000 C 
ATOM      3  N   UNL     1       2.829   5.540  19.333  0.00  0.00    +0.000 N 
ATOM      4  C   UNL     1       2.718   6.397  18.144  0.00  0.00    +0.000 C 
ATOM      5  C   UNL     1       4.097   6.975  17.773  0.00  0.00    +0.000 C 
ATOM      6  N   UNL     1       5.125   5.937  17.537  0.00  0.00    +0.000 NA
ATOM      7  C   UNL     1       5.210   5.092  18.760  0.00  0.00    +0.000 C 
ATOM      8  C   UNL     1       3.861   4.499  19.234  0.00  0.00    +0.000 C 
ENDROOT
BRANCH   2   9
ATOM      9  C   UNL     1       1.095   6.823  20.568  0.00  0.00    +0.000 C 
BRANCH   9  10
ATOM     10  N   UNL     1       1.643   8.056  21.134  0.00  0.00    +0.000 NA
ATOM     11  H   UNL     1       2.279   8.595  20.544  0.00  0.00    +0.000 HD
BRANCH  10  12
ATOM     12  S   UNL     1       0.591   8.995  22.041  0.00  0.00    +0.000 S 
ATOM     13  O   UNL     1      -0.634   8.236  22.191  0.00  0.00    +0.000 OA
ATOM     14  O   UNL     1       1.323   9.465  23.199  0.00  0.00    +0.000 OA
BRANCH  12  15
ATOM     15  C   UNL     1       0.264  10.376  20.967  0.00  0.00    +0.000 A 
ATOM     16  C   UNL     1       0.848  10.335  19.689  0.00  0.00    +0.000 A 
ATOM     17  C   UNL     1       0.651  11.384  18.801  0.00  0.00    +0.000 A 
ATOM     18  C   UNL     1      -0.125  12.473  19.184  0.00  0.00    +0.000 A 
ATOM     19  C   UNL     1      -0.717  12.534  20.455  0.00  0.00    +0.000 A 
ATOM     20  C   UNL     1      -1.495  13.655  20.799  0.00  0.00    +0.000 A 
ATOM     21  C   UNL     1      -2.098  13.755  22.051  0.00  0.00    +0.000 A 
ATOM     22  C   UNL     1      -1.934  12.735  22.974  0.00  0.00    +0.000 A 
ATOM     23  C   UNL     1      -1.162  11.617  22.649  0.00  0.00    +0.000 A 
ATOM     24  C   UNL     1      -0.533  11.478  21.384  0.00  0.00    +0.000 A 
ENDBRANCH  12  15
ENDBRANCH  10  12
ENDBRANCH   9  10
ENDBRANCH   2   9
BRANCH   6  25
ATOM     25  C   UNL     1       4.845   5.107  16.344  0.00  0.00    +0.000 C 
BRANCH  25  26
ATOM     26  C   UNL     1       5.959   4.098  16.008  0.00  0.00    +0.000 C 
BRANCH  26  27
ATOM     27  C   UNL     1       6.388   4.193  14.563  0.00  0.00    +0.000 A 
ATOM     28  C   UNL     1       5.775   3.389  13.590  0.00  0.00    +0.000 A 
ATOM     29  C   UNL     1       6.170   3.470  12.254  0.00  0.00    +0.000 A 
ATOM     30  C   UNL     1       7.180   4.354  11.881  0.00  0.00    +0.000 A 
ATOM     31  C   UNL     1       7.797   5.154  12.840  0.00  0.00    +0.000 A 
ATOM     32  C   UNL     1       7.405   5.073  14.178  0.00  0.00    +0.000 A 
ENDBRANCH  26  27
ENDBRANCH  25  26
ENDBRANCH   6  25
TORSDOF 7
ENDMDL
MODEL 8
REMARK VINA RESULT:      -8.0      2.083     11.065
REMARK  Name = 
REMARK  7 active torsions:
REMARK  status: ('A' for Active; 'I' for Inactive)
REMARK    1  A    between atoms: C_2  and  C_3
REMARK    2  A    between atoms: C_3  and  N_4
REMARK    3  A    between atoms: N_4  and  S_5
REMARK    4  A    between atoms: S_5  and  C_8
REMARK    5  A    between atoms: N_21  and  C_22
REMARK    6  A    between atoms: C_22  and  C_23
REMARK    7  A    between atoms: C_23  and  C_24
REMARK                            x       y       z     vdW  Elec       q    Type
REMARK                         _______ _______ _______ _____ _____    ______ ____
ROOT
ATOM      1  O   UNL     1       1.791   5.716  19.117  0.00  0.00    +0.000 OA
ATOM      2  C   UNL     1       2.581   6.393  18.454  0.00  0.00    +0.000 C 
ATOM      3  N   UNL     1       3.751   5.857  17.929  0.00  0.00    +0.000 N 
ATOM      4  C   UNL     1       4.762   6.590  17.154  0.00  0.00    +0.000 C 
ATOM      5  C   UNL     1       6.146   6.447  17.815  0.00  0.00    +0.000 C 
ATOM      6  N   UNL     1       6.577   5.041  17.978  0.00  0.00    +0.000 NA
ATOM      7  C   UNL     1       5.531   4.333  18.768  0.00  0.00    +0.000 C 
ATOM      8  C   UNL     1       4.096   4.456  18.201  0.00  0.00    +0.000 C 
ENDROOT
BRANCH   2   9
ATOM      9  C   UNL     1       2.314   7.869  18.185  0.00  0.00    +0.000 C 
BRANCH   9  10
ATOM     10  N   UNL     1       1.803   8.587  19.353  0.00  0.00    +0.000 NA
ATOM     11  H   UNL     1       2.439   8.696  20.145  0.00  0.00    +0.000 HD
BRANCH  10  12
ATOM     12  S   UNL     1       0.854   9.934  19.048  0.00  0.00    +0.000 S 
ATOM     13  O   UNL     1       1.753  11.028  18.745  0.00  0.00    +0.000 OA
ATOM     14  O   UNL     1      -0.174   9.532  18.109  0.00  0.00    +0.000 OA
BRANCH  12  15
ATOM     15  C   UNL     1       0.097  10.254  20.626  0.00  0.00    +0.000 A 
ATOM     16  C   UNL     1       0.355   9.326  21.650  0.00  0.00    +0.000 A 
ATOM     17  C   UNL     1      -0.213   9.500  22.906  0.00  0.00    +0.000 A 
ATOM     18  C   UNL     1      -1.037  10.596  23.142  0.00  0.00    +0.000 A 
ATOM     19  C   UNL     1      -1.308  11.535  22.133  0.00  0.00    +0.000 A 
ATOM     20  C   UNL     1      -2.146  12.628  22.417  0.00  0.00    +0.000 A 
ATOM     21  C   UNL     1      -2.441  13.580  21.444  0.00  0.00    +0.000 A 
ATOM     22  C   UNL     1      -1.899  13.453  20.175  0.00  0.00    +0.000 A 
ATOM     23  C   UNL     1      -1.067  12.372  19.877  0.00  0.00    +0.000 A 
ATOM     24  C   UNL     1      -0.742  11.383  20.840  0.00  0.00    +0.000 A 
ENDBRANCH  12  15
ENDBRANCH  10  12
ENDBRANCH   9  10
ENDBRANCH   2   9
BRANCH   6  25
ATOM     25  C   UNL     1       6.815   4.355  16.689  0.00  0.00    +0.000 C 
BRANCH  25  26
ATOM     26  C   UNL     1       7.255   5.296  15.552  0.00  0.00    +0.000 C 
BRANCH  26  27
ATOM     27  C   UNL     1       6.919   4.731  14.192  0.00  0.00    +0.000 A 
ATOM     28  C   UNL     1       5.811   3.885  14.034  0.00  0.00    +0.000 A 
ATOM     29  C   UNL     1       5.497   3.358  12.780  0.00  0.00    +0.000 A 
ATOM     30  C   UNL     1       6.289   3.670  11.677  0.00  0.00    +0.000 A 
ATOM     31  C   UNL     1       7.393   4.507  11.826  0.00  0.00    +0.000 A 
ATOM     32  C   UNL     1       7.710   5.035  13.079  0.00  0.00    +0.000 A 
ENDBRANCH  26  27
ENDBRANCH  25  26
ENDBRANCH   6  25
TORSDOF 7
ENDMDL
MODEL 9
REMARK VINA RESULT:      -8.0      2.767     10.998
REMARK  Name = 
REMARK  7 active torsions:
REMARK  status: ('A' for Active; 'I' for Inactive)
REMARK    1  A    between atoms: C_2  and  C_3
REMARK    2  A    between atoms: C_3  and  N_4
REMARK    3  A    between atoms: N_4  and  S_5
REMARK    4  A    between atoms: S_5  and  C_8
REMARK    5  A    between atoms: N_21  and  C_22
REMARK    6  A    between atoms: C_22  and  C_23
REMARK    7  A    between atoms: C_23  and  C_24
REMARK                            x       y       z     vdW  Elec       q    Type
REMARK                         _______ _______ _______ _____ _____    ______ ____
ROOT
ATOM      1  O   UNL     1       6.812   5.153  20.114  0.00  0.00    +0.000 OA
ATOM      2  C   UNL     1       5.914   4.928  19.298  0.00  0.00    +0.000 C 
ATOM      3  N   UNL     1       6.167   4.809  17.937  0.00  0.00    +0.000 N 
ATOM      4  C   UNL     1       5.161   4.571  16.892  0.00  0.00    +0.000 C 
ATOM      5  C   UNL     1       5.237   5.673  15.819  0.00  0.00    +0.000 C 
ATOM      6  N   UNL     1       6.574   5.796  15.196  0.00  0.00    +0.000 NA
ATOM      7  C   UNL     1       7.563   6.038  16.283  0.00  0.00    +0.000 C 
ATOM      8  C   UNL     1       7.532   5.000  17.431  0.00  0.00    +0.000 C 
ENDROOT
BRANCH   2   9
ATOM      9  C   UNL     1       4.466   4.779  19.750  0.00  0.00    +0.000 C 
BRANCH   9  10
ATOM     10  N   UNL     1       3.775   6.059  19.910  0.00  0.00    +0.000 NA
ATOM     11  H   UNL     1       4.278   6.898  19.616  0.00  0.00    +0.000 HD
BRANCH  10  12
ATOM     12  S   UNL     1       2.140   6.079  19.543  0.00  0.00    +0.000 S 
ATOM     13  O   UNL     1       1.978   5.373  18.289  0.00  0.00    +0.000 OA
ATOM     14  O   UNL     1       1.427   5.659  20.732  0.00  0.00    +0.000 OA
BRANCH  12  15
ATOM     15  C   UNL     1       1.816   7.805  19.259  0.00  0.00    +0.000 A 
ATOM     16  C   UNL     1       2.225   8.329  18.020  0.00  0.00    +0.000 A 
ATOM     17  C   UNL     1       2.020   9.672  17.731  0.00  0.00    +0.000 A 
ATOM     18  C   UNL     1       1.410  10.493  18.674  0.00  0.00    +0.000 A 
ATOM     19  C   UNL     1       0.994   9.990  19.917  0.00  0.00    +0.000 A 
ATOM     20  C   UNL     1       0.381  10.857  20.840  0.00  0.00    +0.000 A 
ATOM     21  C   UNL     1      -0.045  10.398  22.085  0.00  0.00    +0.000 A 
ATOM     22  C   UNL     1       0.135   9.066  22.422  0.00  0.00    +0.000 A 
ATOM     23  C   UNL     1       0.745   8.194  21.518  0.00  0.00    +0.000 A 
ATOM     24  C   UNL     1       1.191   8.622  20.241  0.00  0.00    +0.000 A 
ENDBRANCH  12  15
ENDBRANCH  10  12
ENDBRANCH   9  10
ENDBRANCH   2   9
BRANCH   6  25
ATOM     25  C   UNL     1       6.951   4.608  14.398  0.00  0.00    +0.000 C 
BRANCH  25  26
ATOM     26  C   UNL     1       6.852   4.820  12.876  0.00  0.00    +0.000 C 
BRANCH  26  27
ATOM     27  C   UNL     1       6.505   3.542  12.151  0.00  0.00    +0.000 A 
ATOM     28  C   UNL     1       7.524   2.699  11.679  0.00  0.00    +0.000 A 
ATOM     29  C   UNL     1       7.209   1.517  11.006  0.00  0.00    +0.000 A 
ATOM     30  C   UNL     1       5.876   1.171  10.796  0.00  0.00    +0.000 A 
ATOM     31  C   UNL     1       4.858   2.004  11.258  0.00  0.00    +0.000 A 
ATOM     32  C   UNL     1       5.170   3.187  11.931  0.00  0.00    +0.000 A 
ENDBRANCH  26  27
ENDBRANCH  25  26
ENDBRANCH   6  25
TORSDOF 7
ENDMDL
