MODEL 1
REMARK VINA RESULT:      -7.7      0.000      0.000
REMARK  Name = 
REMARK  6 active torsions:
REMARK  status: ('A' for Active; 'I' for Inactive)
REMARK    1  A    between atoms: N_1  and  N_2
REMARK    2  A    between atoms: C_3  and  C_5
REMARK    3  A    between atoms: C_5  and  S_6
REMARK    4  A    between atoms: S_6  and  C_7
REMARK    5  A    between atoms: C_12  and  C_13
REMARK    6  A    between atoms: N_22  and  C_23
REMARK                            x       y       z     vdW  Elec       q    Type
REMARK                         _______ _______ _______ _____ _____    ______ ____
ROOT
ATOM      1  C   UNL     1       2.806   6.828  18.393  0.00  0.00    +0.000 A 
ATOM      2  N   UNL     1       2.953   7.979  17.813  0.00  0.00    +0.000 NA
ATOM      3  C   UNL     1       2.269   9.006  18.375  0.00  0.00    +0.000 A 
ATOM      4  S   UNL     1       2.362  10.580  17.730  0.00  0.00    +0.000 S 
ATOM      5  C   UNL     1       1.291  11.197  18.912  0.00  0.00    +0.000 A 
ATOM      6  C   UNL     1       0.852  10.233  19.803  0.00  0.00    +0.000 A 
ATOM      7  C   UNL     1       1.461   8.955  19.489  0.00  0.00    +0.000 A 
ATOM      8  C   UNL     1       1.355   7.672  20.169  0.00  0.00    +0.000 A 
ATOM      9  O   UNL     1       0.711   7.544  21.207  0.00  0.00    +0.000 OA
ATOM     10  N   UNL     1       2.023   6.606  19.538  0.00  0.00    +0.000 N 
ENDROOT
BRANCH  10  11
ATOM     11  C   UNL     1       1.900   5.323  20.171  0.00  0.00    +0.000 A 
ATOM     12  C   UNL     1       2.734   4.953  21.237  0.00  0.00    +0.000 A 
ATOM     13  C   UNL     1       2.582   3.712  21.854  0.00  0.00    +0.000 A 
ATOM     14  C   UNL     1       1.623   2.827  21.382  0.00  0.00    +0.000 A 
ATOM     15  F   UNL     1       1.468   1.639  21.980  0.00  0.00    +0.000 F 
ATOM     16  C   UNL     1       0.818   3.153  20.298  0.00  0.00    +0.000 A 
ATOM     17  C   UNL     1       0.961   4.395  19.685  0.00  0.00    +0.000 A 
ENDBRANCH  10  11
BRANCH   6  18
ATOM     18  C   UNL     1      -0.068  10.572  20.898  0.00  0.00    +0.000 A 
ATOM     19  C   UNL     1       0.072   9.982  22.163  0.00  0.00    +0.000 A 
ATOM     20  C   UNL     1      -0.685  10.419  23.253  0.00  0.00    +0.000 A 
ATOM     21  C   UNL     1      -1.651  11.403  23.078  0.00  0.00    +0.000 A 
ATOM     22  C   UNL     1      -1.869  11.937  21.811  0.00  0.00    +0.000 A 
ATOM     23  C   UNL     1      -1.078  11.531  20.729  0.00  0.00    +0.000 A 
ENDBRANCH   6  18
BRANCH   1  24
ATOM     24  S   UNL     1       3.689   5.462  17.709  0.00  0.00    +0.000 S 
BRANCH  24  25
ATOM     25  C   UNL     1       5.421   5.992  17.833  0.00  0.00    +0.000 C 
BRANCH  25  27
ATOM     26  N   UNL     1       7.377   5.842  19.345  0.00  0.00    +0.000 N 
ATOM     27  C   UNL     1       6.180   5.256  18.942  0.00  0.00    +0.000 C 
ATOM     28  O   UNL     1       5.788   4.172  19.377  0.00  0.00    +0.000 OA
ATOM     29  H   UNL     1       7.520   6.818  19.081  0.00  0.00    +0.000 HD
BRANCH  26  30
ATOM     30  N   UNL     1       8.061   5.343  20.475  0.00  0.00    +0.000 NA
ATOM     31  H   UNL     1       8.990   5.766  20.527  0.00  0.00    +0.000 HD
ATOM     32  H   UNL     1       8.214   4.338  20.324  0.00  0.00    +0.000 HD
ENDBRANCH  26  30
ENDBRANCH  25  27
ENDBRANCH  24  25
ENDBRANCH   1  24
TORSDOF 6
ENDMDL
MODEL 2
REMARK VINA RESULT:      -7.6      1.447      1.872
REMARK  Name = 
REMARK  6 active torsions:
REMARK  status: ('A' for Active; 'I' for Inactive)
REMARK    1  A    between atoms: N_1  and  N_2
REMARK    2  A    between atoms: C_3  and  C_5
REMARK    3  A    between atoms: C_5  and  S_6
REMARK    4  A    between atoms: S_6  and  C_7
REMARK    5  A    between atoms: C_12  and  C_13
REMARK    6  A    between atoms: N_22  and  C_23
REMARK                            x       y       z     vdW  Elec       q    Type
REMARK                         _______ _______ _______ _____ _____    ______ ____
ROOT
ATOM      1  C   UNL     1       2.791   6.817  18.395  0.00  0.00    +0.000 A 
ATOM      2  N   UNL     1       2.948   7.969  17.820  0.00  0.00    +0.000 NA
ATOM      3  C   UNL     1       2.266   8.998  18.383  0.00  0.00    +0.000 A 
ATOM      4  S   UNL     1       2.372  10.574  17.744  0.00  0.00    +0.000 S 
ATOM      5  C   UNL     1       1.299  11.193  18.923  0.00  0.00    +0.000 A 
ATOM      6  C   UNL     1       0.850  10.227  19.808  0.00  0.00    +0.000 A 
ATOM      7  C   UNL     1       1.452   8.947  19.493  0.00  0.00    +0.000 A 
ATOM      8  C   UNL     1       1.336   7.662  20.166  0.00  0.00    +0.000 A 
ATOM      9  O   UNL     1       0.685   7.533  21.200  0.00  0.00    +0.000 OA
ATOM     10  N   UNL     1       2.001   6.595  19.535  0.00  0.00    +0.000 N 
ENDROOT
BRANCH  10  11
ATOM     11  C   UNL     1       1.867   5.310  20.161  0.00  0.00    +0.000 A 
ATOM     12  C   UNL     1       0.907   4.383  19.726  0.00  0.00    +0.000 A 
ATOM     13  C   UNL     1       0.810   3.131  20.332  0.00  0.00    +0.000 A 
ATOM     14  C   UNL     1       1.646   2.819  21.394  0.00  0.00    +0.000 A 
ATOM     15  F   UNL     1       1.562   1.612  21.969  0.00  0.00    +0.000 F 
ATOM     16  C   UNL     1       2.572   3.737  21.872  0.00  0.00    +0.000 A 
ATOM     17  C   UNL     1       2.677   4.985  21.264  0.00  0.00    +0.000 A 
ENDBRANCH  10  11
BRANCH   6  18
ATOM     18  C   UNL     1      -0.074  10.567  20.900  0.00  0.00    +0.000 A 
ATOM     19  C   UNL     1       0.065   9.982  22.167  0.00  0.00    +0.000 A 
ATOM     20  C   UNL     1      -0.696  10.421  23.254  0.00  0.00    +0.000 A 
ATOM     21  C   UNL     1      -1.665  11.401  23.073  0.00  0.00    +0.000 A 
ATOM     22  C   UNL     1      -1.881  11.930  21.804  0.00  0.00    +0.000 A 
ATOM     23  C   UNL     1      -1.086  11.523  20.725  0.00  0.00    +0.000 A 
ENDBRANCH   6  18
BRANCH   1  24
ATOM     24  S   UNL     1       3.669   5.448  17.710  0.00  0.00    +0.000 S 
BRANCH  24  25
ATOM     25  C   UNL     1       5.375   6.064  17.616  0.00  0.00    +0.000 C 
BRANCH  25  27
ATOM     26  N   UNL     1       7.144   5.592  15.948  0.00  0.00    +0.000 N 
ATOM     27  C   UNL     1       5.887   6.148  16.174  0.00  0.00    +0.000 C 
ATOM     28  O   UNL     1       5.256   6.748  15.303  0.00  0.00    +0.000 OA
ATOM     29  H   UNL     1       7.499   4.955  16.664  0.00  0.00    +0.000 HD
BRANCH  26  30
ATOM     30  N   UNL     1       7.629   5.460  14.629  0.00  0.00    +0.000 NA
ATOM     31  H   UNL     1       8.466   6.034  14.512  0.00  0.00    +0.000 HD
ATOM     32  H   UNL     1       6.922   5.859  13.998  0.00  0.00    +0.000 HD
ENDBRANCH  26  30
ENDBRANCH  25  27
ENDBRANCH  24  25
ENDBRANCH   1  24
TORSDOF 6
ENDMDL
MODEL 3
REMARK VINA RESULT:      -7.5      1.054      1.068
REMARK  Name = 
REMARK  6 active torsions:
REMARK  status: ('A' for Active; 'I' for Inactive)
REMARK    1  A    between atoms: N_1  and  N_2
REMARK    2  A    between atoms: C_3  and  C_5
REMARK    3  A    between atoms: C_5  and  S_6
REMARK    4  A    between atoms: S_6  and  C_7
REMARK    5  A    between atoms: C_12  and  C_13
REMARK    6  A    between atoms: N_22  and  C_23
REMARK                            x       y       z     vdW  Elec       q    Type
REMARK                         _______ _______ _______ _____ _____    ______ ____
ROOT
ATOM      1  C   UNL     1       2.780   7.051  18.204  0.00  0.00    +0.000 A 
ATOM      2  N   UNL     1       2.906   8.231  17.679  0.00  0.00    +0.000 NA
ATOM      3  C   UNL     1       2.222   9.222  18.305  0.00  0.00    +0.000 A 
ATOM      4  S   UNL     1       2.289  10.827  17.738  0.00  0.00    +0.000 S 
ATOM      5  C   UNL     1       1.233  11.374  18.967  0.00  0.00    +0.000 A 
ATOM      6  C   UNL     1       0.820  10.361  19.816  0.00  0.00    +0.000 A 
ATOM      7  C   UNL     1       1.434   9.107  19.429  0.00  0.00    +0.000 A 
ATOM      8  C   UNL     1       1.353   7.791  20.044  0.00  0.00    +0.000 A 
ATOM      9  O   UNL     1       0.728   7.604  21.086  0.00  0.00    +0.000 OA
ATOM     10  N   UNL     1       2.019   6.765  19.350  0.00  0.00    +0.000 N 
ENDROOT
BRANCH  10  11
ATOM     11  C   UNL     1       1.919   5.451  19.919  0.00  0.00    +0.000 A 
ATOM     12  C   UNL     1       2.557   5.128  21.127  0.00  0.00    +0.000 A 
ATOM     13  C   UNL     1       2.427   3.853  21.675  0.00  0.00    +0.000 A 
ATOM     14  C   UNL     1       1.692   2.890  21.000  0.00  0.00    +0.000 A 
ATOM     15  F   UNL     1       1.557   1.669  21.531  0.00  0.00    +0.000 F 
ATOM     16  C   UNL     1       1.090   3.172  19.780  0.00  0.00    +0.000 A 
ATOM     17  C   UNL     1       1.211   4.447  19.233  0.00  0.00    +0.000 A 
ENDBRANCH  10  11
BRANCH   6  18
ATOM     18  C   UNL     1      -0.084  10.636  20.943  0.00  0.00    +0.000 A 
ATOM     19  C   UNL     1       0.089   9.991  22.176  0.00  0.00    +0.000 A 
ATOM     20  C   UNL     1      -0.653  10.367  23.300  0.00  0.00    +0.000 A 
ATOM     21  C   UNL     1      -1.638  11.342  23.188  0.00  0.00    +0.000 A 
ATOM     22  C   UNL     1      -1.888  11.930  21.950  0.00  0.00    +0.000 A 
ATOM     23  C   UNL     1      -1.112  11.586  20.837  0.00  0.00    +0.000 A 
ENDBRANCH   6  18
BRANCH   1  24
ATOM     24  S   UNL     1       3.663   5.731  17.437  0.00  0.00    +0.000 S 
BRANCH  24  25
ATOM     25  C   UNL     1       5.325   5.880  18.154  0.00  0.00    +0.000 C 
BRANCH  25  27
ATOM     26  N   UNL     1       4.858   3.584  18.957  0.00  0.00    +0.000 N 
ATOM     27  C   UNL     1       5.668   4.711  19.083  0.00  0.00    +0.000 C 
ATOM     28  O   UNL     1       6.547   4.809  19.940  0.00  0.00    +0.000 OA
ATOM     29  H   UNL     1       4.297   3.517  18.105  0.00  0.00    +0.000 HD
BRANCH  26  30
ATOM     30  N   UNL     1       5.197   2.394  19.636  0.00  0.00    +0.000 NA
ATOM     31  H   UNL     1       4.561   2.257  20.424  0.00  0.00    +0.000 HD
ATOM     32  H   UNL     1       6.130   2.527  20.045  0.00  0.00    +0.000 HD
ENDBRANCH  26  30
ENDBRANCH  25  27
ENDBRANCH  24  25
ENDBRANCH   1  24
TORSDOF 6
ENDMDL
MODEL 4
REMARK VINA RESULT:      -7.4      6.989     10.139
REMARK  Name = 
REMARK  6 active torsions:
REMARK  status: ('A' for Active; 'I' for Inactive)
REMARK    1  A    between atoms: N_1  and  N_2
REMARK    2  A    between atoms: C_3  and  C_5
REMARK    3  A    between atoms: C_5  and  S_6
REMARK    4  A    between atoms: S_6  and  C_7
REMARK    5  A    between atoms: C_12  and  C_13
REMARK    6  A    between atoms: N_22  and  C_23
REMARK                            x       y       z     vdW  Elec       q    Type
REMARK                         _______ _______ _______ _____ _____    ______ ____
ROOT
ATOM      1  C   UNL     1      -5.032  12.740  20.348  0.00  0.00    +0.000 A 
ATOM      2  N   UNL     1      -5.228  12.261  19.159  0.00  0.00    +0.000 NA
ATOM      3  C   UNL     1      -4.118  11.807  18.525  0.00  0.00    +0.000 A 
ATOM      4  S   UNL     1      -4.213  11.146  16.957  0.00  0.00    +0.000 S 
ATOM      5  C   UNL     1      -2.526  10.866  16.904  0.00  0.00    +0.000 A 
ATOM      6  C   UNL     1      -1.874  11.264  18.059  0.00  0.00    +0.000 A 
ATOM      7  C   UNL     1      -2.831  11.789  19.013  0.00  0.00    +0.000 A 
ATOM      8  C   UNL     1      -2.635  12.270  20.372  0.00  0.00    +0.000 A 
ATOM      9  O   UNL     1      -1.534  12.232  20.917  0.00  0.00    +0.000 OA
ATOM     10  N   UNL     1      -3.785  12.791  20.993  0.00  0.00    +0.000 N 
ENDROOT
BRANCH  10  11
ATOM     11  C   UNL     1      -3.606  13.307  22.320  0.00  0.00    +0.000 A 
ATOM     12  C   UNL     1      -3.855  12.513  23.451  0.00  0.00    +0.000 A 
ATOM     13  C   UNL     1      -3.651  13.025  24.731  0.00  0.00    +0.000 A 
ATOM     14  C   UNL     1      -3.236  14.340  24.884  0.00  0.00    +0.000 A 
ATOM     15  F   UNL     1      -3.029  14.830  26.113  0.00  0.00    +0.000 F 
ATOM     16  C   UNL     1      -3.029  15.159  23.782  0.00  0.00    +0.000 A 
ATOM     17  C   UNL     1      -3.222  14.648  22.501  0.00  0.00    +0.000 A 
ENDBRANCH  10  11
BRANCH   6  18
ATOM     18  C   UNL     1      -0.421  11.096  18.207  0.00  0.00    +0.000 A 
ATOM     19  C   UNL     1       0.173   9.832  18.080  0.00  0.00    +0.000 A 
ATOM     20  C   UNL     1       1.562   9.685  18.050  0.00  0.00    +0.000 A 
ATOM     21  C   UNL     1       2.382  10.794  18.227  0.00  0.00    +0.000 A 
ATOM     22  C   UNL     1       1.812  12.045  18.446  0.00  0.00    +0.000 A 
ATOM     23  C   UNL     1       0.420  12.198  18.428  0.00  0.00    +0.000 A 
ENDBRANCH   6  18
BRANCH   1  24
ATOM     24  S   UNL     1      -6.447  13.329  21.222  0.00  0.00    +0.000 S 
BRANCH  24  25
ATOM     25  C   UNL     1      -7.816  12.430  20.437  0.00  0.00    +0.000 C 
BRANCH  25  27
ATOM     26  N   UNL     1      -7.611  10.115  19.581  0.00  0.00    +0.000 N 
ATOM     27  C   UNL     1      -7.755  10.923  20.707  0.00  0.00    +0.000 C 
ATOM     28  O   UNL     1      -7.913  10.467  21.840  0.00  0.00    +0.000 OA
ATOM     29  H   UNL     1      -7.294  10.575  18.725  0.00  0.00    +0.000 HD
BRANCH  26  30
ATOM     30  N   UNL     1      -7.368   8.733  19.732  0.00  0.00    +0.000 NA
ATOM     31  H   UNL     1      -6.766   8.578  20.543  0.00  0.00    +0.000 HD
ATOM     32  H   UNL     1      -6.827   8.424  18.914  0.00  0.00    +0.000 HD
ENDBRANCH  26  30
ENDBRANCH  25  27
ENDBRANCH  24  25
ENDBRANCH   1  24
TORSDOF 6
ENDMDL
MODEL 5
REMARK VINA RESULT:      -7.4      1.432      1.854
REMARK  Name = 
REMARK  6 active torsions:
REMARK  status: ('A' for Active; 'I' for Inactive)
REMARK    1  A    between atoms: N_1  and  N_2
REMARK    2  A    between atoms: C_3  and  C_5
REMARK    3  A    between atoms: C_5  and  S_6
REMARK    4  A    between atoms: S_6  and  C_7
REMARK    5  A    between atoms: C_12  and  C_13
REMARK    6  A    between atoms: N_22  and  C_23
REMARK                            x       y       z     vdW  Elec       q    Type
REMARK                         _______ _______ _______ _____ _____    ______ ____
ROOT
ATOM      1  C   UNL     1       2.729   6.757  18.359  0.00  0.00    +0.000 A 
ATOM      2  N   UNL     1       2.864   7.899  17.760  0.00  0.00    +0.000 NA
ATOM      3  C   UNL     1       2.246   8.947  18.360  0.00  0.00    +0.000 A 
ATOM      4  S   UNL     1       2.335  10.514  17.697  0.00  0.00    +0.000 S 
ATOM      5  C   UNL     1       1.364  11.167  18.944  0.00  0.00    +0.000 A 
ATOM      6  C   UNL     1       0.963  10.220  19.871  0.00  0.00    +0.000 A 
ATOM      7  C   UNL     1       1.516   8.925  19.527  0.00  0.00    +0.000 A 
ATOM      8  C   UNL     1       1.426   7.650  20.223  0.00  0.00    +0.000 A 
ATOM      9  O   UNL     1       0.851   7.545  21.304  0.00  0.00    +0.000 OA
ATOM     10  N   UNL     1       2.021   6.563  19.557  0.00  0.00    +0.000 N 
ENDROOT
BRANCH  10  11
ATOM     11  C   UNL     1       1.910   5.287  20.207  0.00  0.00    +0.000 A 
ATOM     12  C   UNL     1       2.868   4.857  21.138  0.00  0.00    +0.000 A 
ATOM     13  C   UNL     1       2.728   3.626  21.776  0.00  0.00    +0.000 A 
ATOM     14  C   UNL     1       1.653   2.809  21.458  0.00  0.00    +0.000 A 
ATOM     15  F   UNL     1       1.510   1.631  22.079  0.00  0.00    +0.000 F 
ATOM     16  C   UNL     1       0.717   3.193  20.506  0.00  0.00    +0.000 A 
ATOM     17  C   UNL     1       0.849   4.426  19.872  0.00  0.00    +0.000 A 
ENDBRANCH  10  11
BRANCH   6  18
ATOM     18  C   UNL     1       0.130  10.590  21.025  0.00  0.00    +0.000 A 
ATOM     19  C   UNL     1      -0.830  11.607  20.920  0.00  0.00    +0.000 A 
ATOM     20  C   UNL     1      -1.740  11.852  21.953  0.00  0.00    +0.000 A 
ATOM     21  C   UNL     1      -1.653  11.134  23.140  0.00  0.00    +0.000 A 
ATOM     22  C   UNL     1      -0.649  10.182  23.298  0.00  0.00    +0.000 A 
ATOM     23  C   UNL     1       0.232   9.906  22.245  0.00  0.00    +0.000 A 
ENDBRANCH   6  18
BRANCH   1  24
ATOM     24  S   UNL     1       3.527   5.364  17.627  0.00  0.00    +0.000 S 
BRANCH  24  25
ATOM     25  C   UNL     1       5.277   5.848  17.632  0.00  0.00    +0.000 C 
BRANCH  25  27
ATOM     26  N   UNL     1       7.118   5.556  16.000  0.00  0.00    +0.000 N 
ATOM     27  C   UNL     1       5.832   6.046  16.217  0.00  0.00    +0.000 C 
ATOM     28  O   UNL     1       5.205   6.677  15.365  0.00  0.00    +0.000 OA
ATOM     29  H   UNL     1       7.474   4.887  16.685  0.00  0.00    +0.000 HD
BRANCH  26  30
ATOM     30  N   UNL     1       7.650   5.529  14.693  0.00  0.00    +0.000 NA
ATOM     31  H   UNL     1       8.236   4.699  14.579  0.00  0.00    +0.000 HD
ATOM     32  H   UNL     1       8.280   6.336  14.600  0.00  0.00    +0.000 HD
ENDBRANCH  26  30
ENDBRANCH  25  27
ENDBRANCH  24  25
ENDBRANCH   1  24
TORSDOF 6
ENDMDL
MODEL 6
REMARK VINA RESULT:      -7.4      1.132      1.132
REMARK  Name = 
REMARK  6 active torsions:
REMARK  status: ('A' for Active; 'I' for Inactive)
REMARK    1  A    between atoms: N_1  and  N_2
REMARK    2  A    between atoms: C_3  and  C_5
REMARK    3  A    between atoms: C_5  and  S_6
REMARK    4  A    between atoms: S_6  and  C_7
REMARK    5  A    between atoms: C_12  and  C_13
REMARK    6  A    between atoms: N_22  and  C_23
REMARK                            x       y       z     vdW  Elec       q    Type
REMARK                         _______ _______ _______ _____ _____    ______ ____
ROOT
ATOM      1  C   UNL     1       2.875   6.999  18.330  0.00  0.00    +0.000 A 
ATOM      2  N   UNL     1       3.022   8.166  17.783  0.00  0.00    +0.000 NA
ATOM      3  C   UNL     1       2.317   9.171  18.358  0.00  0.00    +0.000 A 
ATOM      4  S   UNL     1       2.408  10.763  17.756  0.00  0.00    +0.000 S 
ATOM      5  C   UNL     1       1.308  11.339  18.932  0.00  0.00    +0.000 A 
ATOM      6  C   UNL     1       0.861  10.347  19.789  0.00  0.00    +0.000 A 
ATOM      7  C   UNL     1       1.488   9.084  19.454  0.00  0.00    +0.000 A 
ATOM      8  C   UNL     1       1.382   7.783  20.098  0.00  0.00    +0.000 A 
ATOM      9  O   UNL     1       0.718   7.621  21.119  0.00  0.00    +0.000 OA
ATOM     10  N   UNL     1       2.072   6.740  19.453  0.00  0.00    +0.000 N 
ENDROOT
BRANCH  10  11
ATOM     11  C   UNL     1       1.949   5.440  20.049  0.00  0.00    +0.000 A 
ATOM     12  C   UNL     1       2.700   5.081  21.180  0.00  0.00    +0.000 A 
ATOM     13  C   UNL     1       2.547   3.822  21.758  0.00  0.00    +0.000 A 
ATOM     14  C   UNL     1       1.674   2.909  21.186  0.00  0.00    +0.000 A 
ATOM     15  F   UNL     1       1.518   1.703  21.747  0.00  0.00    +0.000 F 
ATOM     16  C   UNL     1       0.956   3.223  20.040  0.00  0.00    +0.000 A 
ATOM     17  C   UNL     1       1.099   4.483  19.465  0.00  0.00    +0.000 A 
ENDBRANCH  10  11
BRANCH   6  18
ATOM     18  C   UNL     1      -0.084  10.649  20.874  0.00  0.00    +0.000 A 
ATOM     19  C   UNL     1       0.065  10.062  22.140  0.00  0.00    +0.000 A 
ATOM     20  C   UNL     1      -0.721  10.468  23.222  0.00  0.00    +0.000 A 
ATOM     21  C   UNL     1      -1.722  11.415  23.037  0.00  0.00    +0.000 A 
ATOM     22  C   UNL     1      -1.946  11.943  21.768  0.00  0.00    +0.000 A 
ATOM     23  C   UNL     1      -1.128  11.569  20.695  0.00  0.00    +0.000 A 
ENDBRANCH   6  18
BRANCH   1  24
ATOM     24  S   UNL     1       3.785   5.660  17.628  0.00  0.00    +0.000 S 
BRANCH  24  25
ATOM     25  C   UNL     1       5.071   6.502  16.662  0.00  0.00    +0.000 C 
BRANCH  25  27
ATOM     26  N   UNL     1       6.662   5.021  17.851  0.00  0.00    +0.000 N 
ATOM     27  C   UNL     1       6.408   5.754  16.694  0.00  0.00    +0.000 C 
ATOM     28  O   UNL     1       7.232   5.875  15.786  0.00  0.00    +0.000 OA
ATOM     29  H   UNL     1       5.858   4.820  18.450  0.00  0.00    +0.000 HD
BRANCH  26  30
ATOM     30  N   UNL     1       7.777   4.160  17.909  0.00  0.00    +0.000 NA
ATOM     31  H   UNL     1       7.491   3.212  17.655  0.00  0.00    +0.000 HD
ATOM     32  H   UNL     1       8.079   4.111  18.890  0.00  0.00    +0.000 HD
ENDBRANCH  26  30
ENDBRANCH  25  27
ENDBRANCH  24  25
ENDBRANCH   1  24
TORSDOF 6
ENDMDL
MODEL 7
REMARK VINA RESULT:      -7.3      6.704      8.752
REMARK  Name = 
REMARK  6 active torsions:
REMARK  status: ('A' for Active; 'I' for Inactive)
REMARK    1  A    between atoms: N_1  and  N_2
REMARK    2  A    between atoms: C_3  and  C_5
REMARK    3  A    between atoms: C_5  and  S_6
REMARK    4  A    between atoms: S_6  and  C_7
REMARK    5  A    between atoms: C_12  and  C_13
REMARK    6  A    between atoms: N_22  and  C_23
REMARK                            x       y       z     vdW  Elec       q    Type
REMARK                         _______ _______ _______ _____ _____    ______ ____
ROOT
ATOM      1  C   UNL     1      -3.295  11.301  17.724  0.00  0.00    +0.000 A 
ATOM      2  N   UNL     1      -4.589  11.221  17.779  0.00  0.00    +0.000 NA
ATOM      3  C   UNL     1      -5.159  11.761  18.885  0.00  0.00    +0.000 A 
ATOM      4  S   UNL     1      -6.849  11.738  19.102  0.00  0.00    +0.000 S 
ATOM      5  C   UNL     1      -6.731  12.531  20.612  0.00  0.00    +0.000 A 
ATOM      6  C   UNL     1      -5.426  12.823  20.971  0.00  0.00    +0.000 A 
ATOM      7  C   UNL     1      -4.516  12.389  19.929  0.00  0.00    +0.000 A 
ATOM      8  C   UNL     1      -3.072  12.529  19.825  0.00  0.00    +0.000 A 
ATOM      9  O   UNL     1      -2.419  13.131  20.675  0.00  0.00    +0.000 OA
ATOM     10  N   UNL     1      -2.492  11.911  18.702  0.00  0.00    +0.000 N 
ENDROOT
BRANCH  10  11
ATOM     11  C   UNL     1      -1.063  12.004  18.599  0.00  0.00    +0.000 A 
ATOM     12  C   UNL     1      -0.434  13.202  18.225  0.00  0.00    +0.000 A 
ATOM     13  C   UNL     1       0.956  13.277  18.155  0.00  0.00    +0.000 A 
ATOM     14  C   UNL     1       1.716  12.148  18.423  0.00  0.00    +0.000 A 
ATOM     15  F   UNL     1       3.052  12.222  18.368  0.00  0.00    +0.000 F 
ATOM     16  C   UNL     1       1.115  10.939  18.749  0.00  0.00    +0.000 A 
ATOM     17  C   UNL     1      -0.273  10.862  18.828  0.00  0.00    +0.000 A 
ENDBRANCH  10  11
BRANCH   6  18
ATOM     18  C   UNL     1      -5.121  13.514  22.233  0.00  0.00    +0.000 A 
ATOM     19  C   UNL     1      -4.508  12.833  23.295  0.00  0.00    +0.000 A 
ATOM     20  C   UNL     1      -4.061  13.515  24.430  0.00  0.00    +0.000 A 
ATOM     21  C   UNL     1      -4.291  14.880  24.555  0.00  0.00    +0.000 A 
ATOM     22  C   UNL     1      -4.979  15.558  23.552  0.00  0.00    +0.000 A 
ATOM     23  C   UNL     1      -5.385  14.882  22.395  0.00  0.00    +0.000 A 
ENDBRANCH   6  18
BRANCH   1  24
ATOM     24  S   UNL     1      -2.507  10.627  16.297  0.00  0.00    +0.000 S 
BRANCH  24  25
ATOM     25  C   UNL     1      -3.877  10.450  15.119  0.00  0.00    +0.000 C 
BRANCH  25  27
ATOM     26  N   UNL     1      -4.384   9.952  12.746  0.00  0.00    +0.000 N 
ATOM     27  C   UNL     1      -3.399  10.017  13.729  0.00  0.00    +0.000 C 
ATOM     28  O   UNL     1      -2.235   9.667  13.531  0.00  0.00    +0.000 OA
ATOM     29  H   UNL     1      -5.260  10.440  12.944  0.00  0.00    +0.000 HD
BRANCH  26  30
ATOM     30  N   UNL     1      -4.023   9.737  11.399  0.00  0.00    +0.000 NA
ATOM     31  H   UNL     1      -4.131  10.607  10.873  0.00  0.00    +0.000 HD
ATOM     32  H   UNL     1      -4.702   9.077  10.999  0.00  0.00    +0.000 HD
ENDBRANCH  26  30
ENDBRANCH  25  27
ENDBRANCH  24  25
ENDBRANCH   1  24
TORSDOF 6
ENDMDL
MODEL 8
REMARK VINA RESULT:      -7.3      0.736      1.161
REMARK  Name = 
REMARK  6 active torsions:
REMARK  status: ('A' for Active; 'I' for Inactive)
REMARK    1  A    between atoms: N_1  and  N_2
REMARK    2  A    between atoms: C_3  and  C_5
REMARK    3  A    between atoms: C_5  and  S_6
REMARK    4  A    between atoms: S_6  and  C_7
REMARK    5  A    between atoms: C_12  and  C_13
REMARK    6  A    between atoms: N_22  and  C_23
REMARK                            x       y       z     vdW  Elec       q    Type
REMARK                         _______ _______ _______ _____ _____    ______ ____
ROOT
ATOM      1  C   UNL     1       2.749   6.797  18.387  0.00  0.00    +0.000 A 
ATOM      2  N   UNL     1       2.896   7.950  17.810  0.00  0.00    +0.000 NA
ATOM      3  C   UNL     1       2.223   8.978  18.383  0.00  0.00    +0.000 A 
ATOM      4  S   UNL     1       2.318  10.554  17.744  0.00  0.00    +0.000 S 
ATOM      5  C   UNL     1       1.262  11.173  18.938  0.00  0.00    +0.000 A 
ATOM      6  C   UNL     1       0.827  10.207  19.829  0.00  0.00    +0.000 A 
ATOM      7  C   UNL     1       1.425   8.927  19.505  0.00  0.00    +0.000 A 
ATOM      8  C   UNL     1       1.320   7.642  20.180  0.00  0.00    +0.000 A 
ATOM      9  O   UNL     1       0.685   7.513  21.224  0.00  0.00    +0.000 OA
ATOM     10  N   UNL     1       1.976   6.575  19.539  0.00  0.00    +0.000 N 
ENDROOT
BRANCH  10  11
ATOM     11  C   UNL     1       1.852   5.290  20.167  0.00  0.00    +0.000 A 
ATOM     12  C   UNL     1       0.901   4.354  19.733  0.00  0.00    +0.000 A 
ATOM     13  C   UNL     1       0.814   3.103  20.340  0.00  0.00    +0.000 A 
ATOM     14  C   UNL     1       1.651   2.799  21.403  0.00  0.00    +0.000 A 
ATOM     15  F   UNL     1       1.577   1.593  21.980  0.00  0.00    +0.000 F 
ATOM     16  C   UNL     1       2.568   3.726  21.881  0.00  0.00    +0.000 A 
ATOM     17  C   UNL     1       2.664   4.974  21.272  0.00  0.00    +0.000 A 
ENDBRANCH  10  11
BRANCH   6  18
ATOM     18  C   UNL     1      -0.081  10.546  20.935  0.00  0.00    +0.000 A 
ATOM     19  C   UNL     1       0.041   9.918  22.183  0.00  0.00    +0.000 A 
ATOM     20  C   UNL     1      -0.701  10.350  23.286  0.00  0.00    +0.000 A 
ATOM     21  C   UNL     1      -1.635  11.370  23.139  0.00  0.00    +0.000 A 
ATOM     22  C   UNL     1      -1.835  11.945  21.887  0.00  0.00    +0.000 A 
ATOM     23  C   UNL     1      -1.059  11.543  20.794  0.00  0.00    +0.000 A 
ENDBRANCH   6  18
BRANCH   1  24
ATOM     24  S   UNL     1       3.618   5.430  17.689  0.00  0.00    +0.000 S 
BRANCH  24  25
ATOM     25  C   UNL     1       5.301   6.079  17.480  0.00  0.00    +0.000 C 
BRANCH  25  27
ATOM     26  N   UNL     1       7.373   4.733  17.304  0.00  0.00    +0.000 N 
ATOM     27  C   UNL     1       6.357   5.188  18.142  0.00  0.00    +0.000 C 
ATOM     28  O   UNL     1       6.252   4.833  19.317  0.00  0.00    +0.000 OA
ATOM     29  H   UNL     1       7.489   5.226  16.417  0.00  0.00    +0.000 HD
BRANCH  26  30
ATOM     30  N   UNL     1       8.485   4.056  17.849  0.00  0.00    +0.000 NA
ATOM     31  H   UNL     1       9.064   4.715  18.372  0.00  0.00    +0.000 HD
ATOM     32  H   UNL     1       9.063   3.731  17.063  0.00  0.00    +0.000 HD
ENDBRANCH  26  30
ENDBRANCH  25  27
ENDBRANCH  24  25
ENDBRANCH   1  24
TORSDOF 6
ENDMDL
MODEL 9
REMARK VINA RESULT:      -7.3      6.628      8.914
REMARK  Name = 
REMARK  6 active torsions:
REMARK  status: ('A' for Active; 'I' for Inactive)
REMARK    1  A    between atoms: N_1  and  N_2
REMARK    2  A    between atoms: C_3  and  C_5
REMARK    3  A    between atoms: C_5  and  S_6
REMARK    4  A    between atoms: S_6  and  C_7
REMARK    5  A    between atoms: C_12  and  C_13
REMARK    6  A    between atoms: N_22  and  C_23
REMARK                            x       y       z     vdW  Elec       q    Type
REMARK                         _______ _______ _______ _____ _____    ______ ____
ROOT
ATOM      1  C   UNL     1      -3.711  11.514  17.175  0.00  0.00    +0.000 A 
ATOM      2  N   UNL     1      -4.970  11.707  16.925  0.00  0.00    +0.000 NA
ATOM      3  C   UNL     1      -5.688  12.249  17.940  0.00  0.00    +0.000 A 
ATOM      4  S   UNL     1      -7.353  12.566  17.765  0.00  0.00    +0.000 S 
ATOM      5  C   UNL     1      -7.472  13.169  19.361  0.00  0.00    +0.000 A 
ATOM      6  C   UNL     1      -6.267  13.141  20.042  0.00  0.00    +0.000 A 
ATOM      7  C   UNL     1      -5.222  12.623  19.181  0.00  0.00    +0.000 A 
ATOM      8  C   UNL     1      -3.797  12.462  19.425  0.00  0.00    +0.000 A 
ATOM      9  O   UNL     1      -3.278  12.827  20.478  0.00  0.00    +0.000 OA
ATOM     10  N   UNL     1      -3.079  11.844  18.385  0.00  0.00    +0.000 N 
ENDROOT
BRANCH  10  11
ATOM     11  C   UNL     1      -1.678  11.639  18.621  0.00  0.00    +0.000 A 
ATOM     12  C   UNL     1      -1.189  10.411  19.097  0.00  0.00    +0.000 A 
ATOM     13  C   UNL     1       0.177  10.225  19.296  0.00  0.00    +0.000 A 
ATOM     14  C   UNL     1       1.053  11.273  19.055  0.00  0.00    +0.000 A 
ATOM     15  F   UNL     1       2.367  11.093  19.234  0.00  0.00    +0.000 F 
ATOM     16  C   UNL     1       0.589  12.512  18.628  0.00  0.00    +0.000 A 
ATOM     17  C   UNL     1      -0.775  12.699  18.420  0.00  0.00    +0.000 A 
ENDBRANCH  10  11
BRANCH   6  18
ATOM     18  C   UNL     1      -6.164  13.628  21.426  0.00  0.00    +0.000 A 
ATOM     19  C   UNL     1      -6.224  12.737  22.507  0.00  0.00    +0.000 A 
ATOM     20  C   UNL     1      -5.959  13.164  23.812  0.00  0.00    +0.000 A 
ATOM     21  C   UNL     1      -5.707  14.507  24.066  0.00  0.00    +0.000 A 
ATOM     22  C   UNL     1      -5.734  15.423  23.017  0.00  0.00    +0.000 A 
ATOM     23  C   UNL     1      -5.953  14.987  21.705  0.00  0.00    +0.000 A 
ENDBRANCH   6  18
BRANCH   1  24
ATOM     24  S   UNL     1      -2.729  10.826  15.881  0.00  0.00    +0.000 S 
BRANCH  24  25
ATOM     25  C   UNL     1      -3.964  10.037  14.808  0.00  0.00    +0.000 C 
BRANCH  25  27
ATOM     26  N   UNL     1      -4.409   9.764  12.387  0.00  0.00    +0.000 N 
ATOM     27  C   UNL     1      -3.440   9.806  13.387  0.00  0.00    +0.000 C 
ATOM     28  O   UNL     1      -2.247   9.587  13.170  0.00  0.00    +0.000 OA
ATOM     29  H   UNL     1      -5.327  10.145  12.623  0.00  0.00    +0.000 HD
BRANCH  26  30
ATOM     30  N   UNL     1      -4.021   9.734  11.030  0.00  0.00    +0.000 NA
ATOM     31  H   UNL     1      -3.231   9.095  10.914  0.00  0.00    +0.000 HD
ATOM     32  H   UNL     1      -3.668  10.669  10.790  0.00  0.00    +0.000 HD
ENDBRANCH  26  30
ENDBRANCH  25  27
ENDBRANCH  24  25
ENDBRANCH   1  24
TORSDOF 6
ENDMDL
