MODEL 1
REMARK VINA RESULT:      -7.2      0.000      0.000
REMARK  Name = 
REMARK  6 active torsions:
REMARK  status: ('A' for Active; 'I' for Inactive)
REMARK    1  A    between atoms: C_1  and  C_2
REMARK    2  A    between atoms: C_2  and  C_3
REMARK    3  A    between atoms: N_5  and  C_6
REMARK    4  A    between atoms: C_6  and  C_7
REMARK    5  A    between atoms: C_17  and  C_19
REMARK    6  A    between atoms: C_19  and  N_20
REMARK                            x       y       z     vdW  Elec       q    Type
REMARK                         _______ _______ _______ _____ _____    ______ ____
ROOT
ATOM      1  C   UNL     1       1.532   4.570  17.796  0.00  0.00    +0.000 C 
ATOM      2  C   UNL     1       2.478   5.233  18.832  0.00  0.00    +0.000 C 
ATOM      3  C   UNL     1       2.156   4.540  20.167  0.00  0.00    +0.000 C 
ATOM      4  C   UNL     1       3.972   4.872  18.511  0.00  0.00    +0.000 C 
ATOM      5  N   UNL     1       4.441   5.362  17.196  0.00  0.00    +0.000 NA
ATOM      6  C   UNL     1       4.257   6.827  17.127  0.00  0.00    +0.000 C 
ATOM      7  C   UNL     1       2.815   7.272  17.442  0.00  0.00    +0.000 C 
ATOM      8  N   UNL     1       2.334   6.740  18.739  0.00  0.00    +0.000 N 
ATOM      9  C   UNL     1       2.007   7.706  19.686  0.00  0.00    +0.000 C 
ATOM     10  O   UNL     1       2.030   8.911  19.396  0.00  0.00    +0.000 OA
ENDROOT
BRANCH   5  11
ATOM     11  C   UNL     1       5.862   5.025  16.973  0.00  0.00    +0.000 C 
BRANCH  11  12
ATOM     12  C   UNL     1       6.201   4.790  15.513  0.00  0.00    +0.000 A 
ATOM     13  C   UNL     1       5.371   3.990  14.709  0.00  0.00    +0.000 A 
ATOM     14  C   UNL     1       5.724   3.714  13.387  0.00  0.00    +0.000 A 
ATOM     15  C   UNL     1       6.897   4.244  12.867  0.00  0.00    +0.000 A 
ATOM     16  F   UNL     1       7.245   3.961  11.604  0.00  0.00    +0.000 F 
ATOM     17  C   UNL     1       7.721   5.055  13.637  0.00  0.00    +0.000 A 
ATOM     18  C   UNL     1       7.373   5.331  14.960  0.00  0.00    +0.000 A 
ENDBRANCH  11  12
ENDBRANCH   5  11
BRANCH   9  19
ATOM     19  C   UNL     1       1.564   7.367  21.083  0.00  0.00    +0.000 C 
BRANCH  19  20
ATOM     20  N   UNL     1       0.904   8.461  21.754  0.00  0.00    +0.000 N 
ATOM     21  N   UNL     1      -0.445   8.572  21.734  0.00  0.00    +0.000 NA
ATOM     22  C   UNL     1      -0.604   9.578  22.600  0.00  0.00    +0.000 A 
ATOM     23  N   UNL     1       0.560  10.033  23.140  0.00  0.00    +0.000 NA
ATOM     24  N   UNL     1       1.528   9.306  22.599  0.00  0.00    +0.000 NA
ENDBRANCH  19  20
ENDBRANCH   9  19
TORSDOF 4
ENDMDL
MODEL 2
REMARK VINA RESULT:      -7.0      0.604      1.158
REMARK  Name = 
REMARK  6 active torsions:
REMARK  status: ('A' for Active; 'I' for Inactive)
REMARK    1  A    between atoms: C_1  and  C_2
REMARK    2  A    between atoms: C_2  and  C_3
REMARK    3  A    between atoms: N_5  and  C_6
REMARK    4  A    between atoms: C_6  and  C_7
REMARK    5  A    between atoms: C_17  and  C_19
REMARK    6  A    between atoms: C_19  and  N_20
REMARK                            x       y       z     vdW  Elec       q    Type
REMARK                         _______ _______ _______ _____ _____    ______ ____
ROOT
ATOM      1  C   UNL     1       1.566   4.296  18.709  0.00  0.00    +0.000 C 
ATOM      2  C   UNL     1       2.501   5.199  19.557  0.00  0.00    +0.000 C 
ATOM      3  C   UNL     1       2.276   4.753  21.012  0.00  0.00    +0.000 C 
ATOM      4  C   UNL     1       4.004   4.877  19.238  0.00  0.00    +0.000 C 
ATOM      5  N   UNL     1       4.391   5.138  17.834  0.00  0.00    +0.000 NA
ATOM      6  C   UNL     1       4.103   6.549  17.502  0.00  0.00    +0.000 C 
ATOM      7  C   UNL     1       2.645   6.956  17.797  0.00  0.00    +0.000 C 
ATOM      8  N   UNL     1       2.249   6.650  19.192  0.00  0.00    +0.000 N 
ATOM      9  C   UNL     1       1.890   7.755  19.958  0.00  0.00    +0.000 C 
ATOM     10  O   UNL     1       1.819   8.883  19.447  0.00  0.00    +0.000 OA
ENDROOT
BRANCH   5  11
ATOM     11  C   UNL     1       5.823   4.853  17.609  0.00  0.00    +0.000 C 
BRANCH  11  12
ATOM     12  C   UNL     1       6.169   4.636  16.149  0.00  0.00    +0.000 A 
ATOM     13  C   UNL     1       7.344   5.184  15.606  0.00  0.00    +0.000 A 
ATOM     14  C   UNL     1       7.624   5.047  14.245  0.00  0.00    +0.000 A 
ATOM     15  C   UNL     1       6.737   4.355  13.431  0.00  0.00    +0.000 A 
ATOM     16  F   UNL     1       6.996   4.242  12.121  0.00  0.00    +0.000 F 
ATOM     17  C   UNL     1       5.581   3.786  13.950  0.00  0.00    +0.000 A 
ATOM     18  C   UNL     1       5.296   3.924  15.309  0.00  0.00    +0.000 A 
ENDBRANCH  11  12
ENDBRANCH   5  11
BRANCH   9  19
ATOM     19  C   UNL     1       1.521   7.660  21.413  0.00  0.00    +0.000 C 
BRANCH  19  20
ATOM     20  N   UNL     1       0.755   8.789  21.883  0.00  0.00    +0.000 N 
ATOM     21  N   UNL     1      -0.587   8.697  22.039  0.00  0.00    +0.000 NA
ATOM     22  C   UNL     1      -0.826   9.867  22.643  0.00  0.00    +0.000 A 
ATOM     23  N   UNL     1       0.291  10.610  22.872  0.00  0.00    +0.000 NA
ATOM     24  N   UNL     1       1.308   9.910  22.389  0.00  0.00    +0.000 NA
ENDBRANCH  19  20
ENDBRANCH   9  19
TORSDOF 4
ENDMDL
MODEL 3
REMARK VINA RESULT:      -6.8      4.345      6.308
REMARK  Name = 
REMARK  6 active torsions:
REMARK  status: ('A' for Active; 'I' for Inactive)
REMARK    1  A    between atoms: C_1  and  C_2
REMARK    2  A    between atoms: C_2  and  C_3
REMARK    3  A    between atoms: N_5  and  C_6
REMARK    4  A    between atoms: C_6  and  C_7
REMARK    5  A    between atoms: C_17  and  C_19
REMARK    6  A    between atoms: C_19  and  N_20
REMARK                            x       y       z     vdW  Elec       q    Type
REMARK                         _______ _______ _______ _____ _____    ______ ____
ROOT
ATOM      1  C   UNL     1      -0.776   9.685  19.561  0.00  0.00    +0.000 C 
ATOM      2  C   UNL     1       0.618  10.127  20.080  0.00  0.00    +0.000 C 
ATOM      3  C   UNL     1       0.338  10.860  21.404  0.00  0.00    +0.000 C 
ATOM      4  C   UNL     1       1.480   8.872  20.460  0.00  0.00    +0.000 C 
ATOM      5  N   UNL     1       1.764   7.970  19.322  0.00  0.00    +0.000 NA
ATOM      6  C   UNL     1       2.440   8.732  18.251  0.00  0.00    +0.000 C 
ATOM      7  C   UNL     1       1.664   9.994  17.824  0.00  0.00    +0.000 C 
ATOM      8  N   UNL     1       1.342  10.871  18.975  0.00  0.00    +0.000 N 
ATOM      9  C   UNL     1       1.900  12.145  18.917  0.00  0.00    +0.000 C 
ATOM     10  O   UNL     1       2.528  12.517  17.914  0.00  0.00    +0.000 OA
ENDROOT
BRANCH   5  11
ATOM     11  C   UNL     1       2.610   6.832  19.736  0.00  0.00    +0.000 C 
BRANCH  11  12
ATOM     12  C   UNL     1       1.993   5.481  19.425  0.00  0.00    +0.000 A 
ATOM     13  C   UNL     1       1.408   4.713  20.445  0.00  0.00    +0.000 A 
ATOM     14  C   UNL     1       0.908   3.439  20.171  0.00  0.00    +0.000 A 
ATOM     15  C   UNL     1       0.984   2.938  18.878  0.00  0.00    +0.000 A 
ATOM     16  F   UNL     1       0.523   1.706  18.619  0.00  0.00    +0.000 F 
ATOM     17  C   UNL     1       1.538   3.689  17.849  0.00  0.00    +0.000 A 
ATOM     18  C   UNL     1       2.041   4.962  18.121  0.00  0.00    +0.000 A 
ENDBRANCH  11  12
ENDBRANCH   5  11
BRANCH   9  19
ATOM     19  C   UNL     1       1.745  13.158  20.018  0.00  0.00    +0.000 C 
BRANCH  19  20
ATOM     20  N   UNL     1       1.120  14.384  19.582  0.00  0.00    +0.000 N 
ATOM     21  N   UNL     1       1.850  15.514  19.424  0.00  0.00    +0.000 NA
ATOM     22  C   UNL     1       0.930  16.301  18.856  0.00  0.00    +0.000 A 
ATOM     23  N   UNL     1      -0.270  15.691  18.649  0.00  0.00    +0.000 NA
ATOM     24  N   UNL     1      -0.141  14.454  19.111  0.00  0.00    +0.000 NA
ENDBRANCH  19  20
ENDBRANCH   9  19
TORSDOF 4
ENDMDL
MODEL 4
REMARK VINA RESULT:      -6.7      2.574      3.123
REMARK  Name = 
REMARK  6 active torsions:
REMARK  status: ('A' for Active; 'I' for Inactive)
REMARK    1  A    between atoms: C_1  and  C_2
REMARK    2  A    between atoms: C_2  and  C_3
REMARK    3  A    between atoms: N_5  and  C_6
REMARK    4  A    between atoms: C_6  and  C_7
REMARK    5  A    between atoms: C_17  and  C_19
REMARK    6  A    between atoms: C_19  and  N_20
REMARK                            x       y       z     vdW  Elec       q    Type
REMARK                         _______ _______ _______ _____ _____    ______ ____
ROOT
ATOM      1  C   UNL     1       1.391   3.850  18.953  0.00  0.00    +0.000 C 
ATOM      2  C   UNL     1       2.396   4.790  19.671  0.00  0.00    +0.000 C 
ATOM      3  C   UNL     1       2.268   4.446  21.165  0.00  0.00    +0.000 C 
ATOM      4  C   UNL     1       3.868   4.418  19.271  0.00  0.00    +0.000 C 
ATOM      5  N   UNL     1       4.159   4.577  17.829  0.00  0.00    +0.000 NA
ATOM      6  C   UNL     1       3.869   5.969  17.422  0.00  0.00    +0.000 C 
ATOM      7  C   UNL     1       2.442   6.422  17.790  0.00  0.00    +0.000 C 
ATOM      8  N   UNL     1       2.141   6.217  19.227  0.00  0.00    +0.000 N 
ATOM      9  C   UNL     1       1.852   7.378  19.938  0.00  0.00    +0.000 C 
ATOM     10  O   UNL     1       1.762   8.471  19.358  0.00  0.00    +0.000 OA
ENDROOT
BRANCH   5  11
ATOM     11  C   UNL     1       5.567   4.250  17.525  0.00  0.00    +0.000 C 
BRANCH  11  12
ATOM     12  C   UNL     1       6.525   5.386  17.830  0.00  0.00    +0.000 A 
ATOM     13  C   UNL     1       7.349   5.338  18.967  0.00  0.00    +0.000 A 
ATOM     14  C   UNL     1       8.175   6.417  19.286  0.00  0.00    +0.000 A 
ATOM     15  C   UNL     1       8.186   7.537  18.464  0.00  0.00    +0.000 A 
ATOM     16  F   UNL     1       8.965   8.580  18.783  0.00  0.00    +0.000 F 
ATOM     17  C   UNL     1       7.397   7.597  17.323  0.00  0.00    +0.000 A 
ATOM     18  C   UNL     1       6.567   6.521  17.003  0.00  0.00    +0.000 A 
ENDBRANCH  11  12
ENDBRANCH   5  11
BRANCH   9  19
ATOM     19  C   UNL     1       1.586   7.387  21.418  0.00  0.00    +0.000 C 
BRANCH  19  20
ATOM     20  N   UNL     1       0.870   8.559  21.863  0.00  0.00    +0.000 N 
ATOM     21  N   UNL     1      -0.484   8.574  21.888  0.00  0.00    +0.000 NA
ATOM     22  C   UNL     1      -0.687   9.737  22.516  0.00  0.00    +0.000 A 
ATOM     23  N   UNL     1       0.458  10.377  22.881  0.00  0.00    +0.000 NA
ATOM     24  N   UNL     1       1.459   9.612  22.466  0.00  0.00    +0.000 NA
ENDBRANCH  19  20
ENDBRANCH   9  19
TORSDOF 4
ENDMDL
MODEL 5
REMARK VINA RESULT:      -6.6      4.424      6.252
REMARK  Name = 
REMARK  6 active torsions:
REMARK  status: ('A' for Active; 'I' for Inactive)
REMARK    1  A    between atoms: C_1  and  C_2
REMARK    2  A    between atoms: C_2  and  C_3
REMARK    3  A    between atoms: N_5  and  C_6
REMARK    4  A    between atoms: C_6  and  C_7
REMARK    5  A    between atoms: C_17  and  C_19
REMARK    6  A    between atoms: C_19  and  N_20
REMARK                            x       y       z     vdW  Elec       q    Type
REMARK                         _______ _______ _______ _____ _____    ______ ____
ROOT
ATOM      1  C   UNL     1      -0.885   9.938  18.979  0.00  0.00    +0.000 C 
ATOM      2  C   UNL     1       0.405  10.412  19.700  0.00  0.00    +0.000 C 
ATOM      3  C   UNL     1      -0.088  11.295  20.861  0.00  0.00    +0.000 C 
ATOM      4  C   UNL     1       1.133   9.193  20.369  0.00  0.00    +0.000 C 
ATOM      5  N   UNL     1       1.588   8.163  19.409  0.00  0.00    +0.000 NA
ATOM      6  C   UNL     1       2.479   8.787  18.408  0.00  0.00    +0.000 C 
ATOM      7  C   UNL     1       1.845  10.006  17.710  0.00  0.00    +0.000 C 
ATOM      8  N   UNL     1       1.349  11.013  18.677  0.00  0.00    +0.000 N 
ATOM      9  C   UNL     1       1.956  12.263  18.589  0.00  0.00    +0.000 C 
ATOM     10  O   UNL     1       2.772  12.508  17.688  0.00  0.00    +0.000 OA
ENDROOT
BRANCH   5  11
ATOM     11  C   UNL     1       2.299   7.065  20.096  0.00  0.00    +0.000 C 
BRANCH  11  12
ATOM     12  C   UNL     1       1.818   5.687  19.681  0.00  0.00    +0.000 A 
ATOM     13  C   UNL     1       1.334   4.783  20.641  0.00  0.00    +0.000 A 
ATOM     14  C   UNL     1       0.962   3.490  20.268  0.00  0.00    +0.000 A 
ATOM     15  C   UNL     1       1.064   3.105  18.937  0.00  0.00    +0.000 A 
ATOM     16  F   UNL     1       0.727   1.857  18.584  0.00  0.00    +0.000 F 
ATOM     17  C   UNL     1       1.520   3.990  17.968  0.00  0.00    +0.000 A 
ATOM     18  C   UNL     1       1.895   5.282  18.338  0.00  0.00    +0.000 A 
ENDBRANCH  11  12
ENDBRANCH   5  11
BRANCH   9  19
ATOM     19  C   UNL     1       1.639  13.396  19.525  0.00  0.00    +0.000 C 
BRANCH  19  20
ATOM     20  N   UNL     1       2.778  13.837  20.294  0.00  0.00    +0.000 N 
ATOM     21  N   UNL     1       3.474  14.940  19.928  0.00  0.00    +0.000 NA
ATOM     22  C   UNL     1       4.281  15.062  20.987  0.00  0.00    +0.000 A 
ATOM     23  N   UNL     1       4.075  14.123  21.951  0.00  0.00    +0.000 NA
ATOM     24  N   UNL     1       3.101  13.341  21.505  0.00  0.00    +0.000 NA
ENDBRANCH  19  20
ENDBRANCH   9  19
TORSDOF 4
ENDMDL
MODEL 6
REMARK VINA RESULT:      -6.5      4.391      6.229
REMARK  Name = 
REMARK  6 active torsions:
REMARK  status: ('A' for Active; 'I' for Inactive)
REMARK    1  A    between atoms: C_1  and  C_2
REMARK    2  A    between atoms: C_2  and  C_3
REMARK    3  A    between atoms: N_5  and  C_6
REMARK    4  A    between atoms: C_6  and  C_7
REMARK    5  A    between atoms: C_17  and  C_19
REMARK    6  A    between atoms: C_19  and  N_20
REMARK                            x       y       z     vdW  Elec       q    Type
REMARK                         _______ _______ _______ _____ _____    ______ ____
ROOT
ATOM      1  C   UNL     1      -0.945   9.698  19.023  0.00  0.00    +0.000 C 
ATOM      2  C   UNL     1       0.307  10.226  19.773  0.00  0.00    +0.000 C 
ATOM      3  C   UNL     1      -0.250  11.049  20.948  0.00  0.00    +0.000 C 
ATOM      4  C   UNL     1       1.095   9.033  20.421  0.00  0.00    +0.000 C 
ATOM      5  N   UNL     1       1.620   8.056  19.442  0.00  0.00    +0.000 NA
ATOM      6  C   UNL     1       2.486   8.756  18.469  0.00  0.00    +0.000 C 
ATOM      7  C   UNL     1       1.791   9.954  17.792  0.00  0.00    +0.000 C 
ATOM      8  N   UNL     1       1.227  10.906  18.778  0.00  0.00    +0.000 N 
ATOM      9  C   UNL     1       1.763  12.190  18.729  0.00  0.00    +0.000 C 
ATOM     10  O   UNL     1       2.574  12.505  17.846  0.00  0.00    +0.000 OA
ENDROOT
BRANCH   5  11
ATOM     11  C   UNL     1       2.384   6.983  20.110  0.00  0.00    +0.000 C 
BRANCH  11  12
ATOM     12  C   UNL     1       1.955   5.590  19.690  0.00  0.00    +0.000 A 
ATOM     13  C   UNL     1       1.998   5.209  18.339  0.00  0.00    +0.000 A 
ATOM     14  C   UNL     1       1.533   3.953  17.944  0.00  0.00    +0.000 A 
ATOM     15  C   UNL     1       1.035   3.077  18.900  0.00  0.00    +0.000 A 
ATOM     16  F   UNL     1       0.570   1.879  18.518  0.00  0.00    +0.000 F 
ATOM     17  C   UNL     1       1.004   3.424  20.244  0.00  0.00    +0.000 A 
ATOM     18  C   UNL     1       1.465   4.680  20.641  0.00  0.00    +0.000 A 
ENDBRANCH  11  12
ENDBRANCH   5  11
BRANCH   9  19
ATOM     19  C   UNL     1       1.370  13.279  19.689  0.00  0.00    +0.000 C 
BRANCH  19  20
ATOM     20  N   UNL     1       2.500  13.936  20.301  0.00  0.00    +0.000 N 
ATOM     21  N   UNL     1       3.039  13.458  21.448  0.00  0.00    +0.000 NA
ATOM     22  C   UNL     1       4.123  14.237  21.532  0.00  0.00    +0.000 A 
ATOM     23  N   UNL     1       4.260  15.108  20.494  0.00  0.00    +0.000 NA
ATOM     24  N   UNL     1       3.218  14.906  19.700  0.00  0.00    +0.000 NA
ENDBRANCH  19  20
ENDBRANCH   9  19
TORSDOF 4
ENDMDL
MODEL 7
REMARK VINA RESULT:      -6.5      4.480      6.411
REMARK  Name = 
REMARK  6 active torsions:
REMARK  status: ('A' for Active; 'I' for Inactive)
REMARK    1  A    between atoms: C_1  and  C_2
REMARK    2  A    between atoms: C_2  and  C_3
REMARK    3  A    between atoms: N_5  and  C_6
REMARK    4  A    between atoms: C_6  and  C_7
REMARK    5  A    between atoms: C_17  and  C_19
REMARK    6  A    between atoms: C_19  and  N_20
REMARK                            x       y       z     vdW  Elec       q    Type
REMARK                         _______ _______ _______ _____ _____    ______ ____
ROOT
ATOM      1  C   UNL     1      -0.814   9.678  19.168  0.00  0.00    +0.000 C 
ATOM      2  C   UNL     1       0.501  10.158  19.838  0.00  0.00    +0.000 C 
ATOM      3  C   UNL     1       0.050  10.968  21.067  0.00  0.00    +0.000 C 
ATOM      4  C   UNL     1       1.302   8.933  20.403  0.00  0.00    +0.000 C 
ATOM      5  N   UNL     1       1.731   7.966  19.368  0.00  0.00    +0.000 NA
ATOM      6  C   UNL     1       2.544   8.667  18.352  0.00  0.00    +0.000 C 
ATOM      7  C   UNL     1       1.835   9.897  17.752  0.00  0.00    +0.000 C 
ATOM      8  N   UNL     1       1.366  10.839  18.795  0.00  0.00    +0.000 N 
ATOM      9  C   UNL     1       1.929  12.110  18.735  0.00  0.00    +0.000 C 
ATOM     10  O   UNL     1       2.684  12.425  17.803  0.00  0.00    +0.000 OA
ENDROOT
BRANCH   5  11
ATOM     11  C   UNL     1       2.513   6.860  19.958  0.00  0.00    +0.000 C 
BRANCH  11  12
ATOM     12  C   UNL     1       1.990   5.487  19.579  0.00  0.00    +0.000 A 
ATOM     13  C   UNL     1       2.056   5.043  18.248  0.00  0.00    +0.000 A 
ATOM     14  C   UNL     1       1.507   3.811  17.887  0.00  0.00    +0.000 A 
ATOM     15  C   UNL     1       0.903   3.020  18.856  0.00  0.00    +0.000 A 
ATOM     16  F   UNL     1       0.358   1.848  18.504  0.00  0.00    +0.000 F 
ATOM     17  C   UNL     1       0.846   3.430  20.182  0.00  0.00    +0.000 A 
ATOM     18  C   UNL     1       1.391   4.662  20.545  0.00  0.00    +0.000 A 
ENDBRANCH  11  12
ENDBRANCH   5  11
BRANCH   9  19
ATOM     19  C   UNL     1       1.633  13.186  19.744  0.00  0.00    +0.000 C 
BRANCH  19  20
ATOM     20  N   UNL     1       2.282  14.441  19.447  0.00  0.00    +0.000 N 
ATOM     21  N   UNL     1       1.618  15.426  18.796  0.00  0.00    +0.000 NA
ATOM     22  C   UNL     1       2.512  16.415  18.907  0.00  0.00    +0.000 A 
ATOM     23  N   UNL     1       3.630  16.074  19.605  0.00  0.00    +0.000 NA
ATOM     24  N   UNL     1       3.476  14.805  19.958  0.00  0.00    +0.000 NA
ENDBRANCH  19  20
ENDBRANCH   9  19
TORSDOF 4
ENDMDL
MODEL 8
REMARK VINA RESULT:      -6.5      3.250      5.405
REMARK  Name = 
REMARK  6 active torsions:
REMARK  status: ('A' for Active; 'I' for Inactive)
REMARK    1  A    between atoms: C_1  and  C_2
REMARK    2  A    between atoms: C_2  and  C_3
REMARK    3  A    between atoms: N_5  and  C_6
REMARK    4  A    between atoms: C_6  and  C_7
REMARK    5  A    between atoms: C_17  and  C_19
REMARK    6  A    between atoms: C_19  and  N_20
REMARK                            x       y       z     vdW  Elec       q    Type
REMARK                         _______ _______ _______ _____ _____    ______ ____
ROOT
ATOM      1  C   UNL     1      -0.593   8.186  21.247  0.00  0.00    +0.000 C 
ATOM      2  C   UNL     1       0.225   9.504  21.179  0.00  0.00    +0.000 C 
ATOM      3  C   UNL     1       0.746   9.725  22.610  0.00  0.00    +0.000 C 
ATOM      4  C   UNL     1       1.499   9.308  20.284  0.00  0.00    +0.000 C 
ATOM      5  N   UNL     1       1.199   8.971  18.875  0.00  0.00    +0.000 NA
ATOM      6  C   UNL     1       0.340  10.024  18.294  0.00  0.00    +0.000 C 
ATOM      7  C   UNL     1      -0.934  10.291  19.120  0.00  0.00    +0.000 C 
ATOM      8  N   UNL     1      -0.630  10.582  20.541  0.00  0.00    +0.000 N 
ATOM      9  C   UNL     1      -1.023  11.843  20.980  0.00  0.00    +0.000 C 
ATOM     10  O   UNL     1      -1.668  12.599  20.238  0.00  0.00    +0.000 OA
ENDROOT
BRANCH   5  11
ATOM     11  C   UNL     1       2.437   8.839  18.080  0.00  0.00    +0.000 C 
BRANCH  11  12
ATOM     12  C   UNL     1       2.893   7.402  17.915  0.00  0.00    +0.000 A 
ATOM     13  C   UNL     1       4.144   7.112  17.344  0.00  0.00    +0.000 A 
ATOM     14  C   UNL     1       4.531   5.789  17.124  0.00  0.00    +0.000 A 
ATOM     15  C   UNL     1       3.673   4.757  17.484  0.00  0.00    +0.000 A 
ATOM     16  F   UNL     1       4.037   3.488  17.254  0.00  0.00    +0.000 F 
ATOM     17  C   UNL     1       2.442   5.019  18.070  0.00  0.00    +0.000 A 
ATOM     18  C   UNL     1       2.051   6.341  18.288  0.00  0.00    +0.000 A 
ENDBRANCH  11  12
ENDBRANCH   5  11
BRANCH   9  19
ATOM     19  C   UNL     1      -0.744  12.351  22.367  0.00  0.00    +0.000 C 
BRANCH  19  20
ATOM     20  N   UNL     1      -1.936  12.514  23.166  0.00  0.00    +0.000 N 
ATOM     21  N   UNL     1      -2.416  13.749  23.448  0.00  0.00    +0.000 NA
ATOM     22  C   UNL     1      -3.577  13.416  24.022  0.00  0.00    +0.000 A 
ATOM     23  N   UNL     1      -3.811  12.075  24.060  0.00  0.00    +0.000 NA
ATOM     24  N   UNL     1      -2.757  11.498  23.501  0.00  0.00    +0.000 NA
ENDBRANCH  19  20
ENDBRANCH   9  19
TORSDOF 4
ENDMDL
MODEL 9
REMARK VINA RESULT:      -6.5      2.567      3.190
REMARK  Name = 
REMARK  6 active torsions:
REMARK  status: ('A' for Active; 'I' for Inactive)
REMARK    1  A    between atoms: C_1  and  C_2
REMARK    2  A    between atoms: C_2  and  C_3
REMARK    3  A    between atoms: N_5  and  C_6
REMARK    4  A    between atoms: C_6  and  C_7
REMARK    5  A    between atoms: C_17  and  C_19
REMARK    6  A    between atoms: C_19  and  N_20
REMARK                            x       y       z     vdW  Elec       q    Type
REMARK                         _______ _______ _______ _____ _____    ______ ____
ROOT
ATOM      1  C   UNL     1       1.492   4.022  18.585  0.00  0.00    +0.000 C 
ATOM      2  C   UNL     1       2.440   4.938  19.404  0.00  0.00    +0.000 C 
ATOM      3  C   UNL     1       2.283   4.473  20.862  0.00  0.00    +0.000 C 
ATOM      4  C   UNL     1       3.936   4.651  19.021  0.00  0.00    +0.000 C 
ATOM      5  N   UNL     1       4.260   4.934  17.606  0.00  0.00    +0.000 NA
ATOM      6  C   UNL     1       3.928   6.341  17.300  0.00  0.00    +0.000 C 
ATOM      7  C   UNL     1       2.476   6.713  17.658  0.00  0.00    +0.000 C 
ATOM      8  N   UNL     1       2.143   6.385  19.065  0.00  0.00    +0.000 N 
ATOM      9  C   UNL     1       1.791   7.476  19.855  0.00  0.00    +0.000 C 
ATOM     10  O   UNL     1       1.675   8.607  19.359  0.00  0.00    +0.000 OA
ENDROOT
BRANCH   5  11
ATOM     11  C   UNL     1       5.687   4.682  17.321  0.00  0.00    +0.000 C 
BRANCH  11  12
ATOM     12  C   UNL     1       6.598   5.802  17.786  0.00  0.00    +0.000 A 
ATOM     13  C   UNL     1       6.689   6.997  17.053  0.00  0.00    +0.000 A 
ATOM     14  C   UNL     1       7.583   7.997  17.441  0.00  0.00    +0.000 A 
ATOM     15  C   UNL     1       8.377   7.807  18.565  0.00  0.00    +0.000 A 
ATOM     16  F   UNL     1       9.249   8.758  18.925  0.00  0.00    +0.000 F 
ATOM     17  C   UNL     1       8.287   6.643  19.317  0.00  0.00    +0.000 A 
ATOM     18  C   UNL     1       7.396   5.640  18.930  0.00  0.00    +0.000 A 
ENDBRANCH  11  12
ENDBRANCH   5  11
BRANCH   9  19
ATOM     19  C   UNL     1       1.484   7.359  21.322  0.00  0.00    +0.000 C 
BRANCH  19  20
ATOM     20  N   UNL     1       0.835   8.528  21.865  0.00  0.00    +0.000 N 
ATOM     21  N   UNL     1      -0.505   8.689  21.757  0.00  0.00    +0.000 NA
ATOM     22  C   UNL     1      -0.668   9.768  22.531  0.00  0.00    +0.000 A 
ATOM     23  N   UNL     1       0.482  10.220  23.100  0.00  0.00    +0.000 NA
ATOM     24  N   UNL     1       1.447   9.415  22.676  0.00  0.00    +0.000 NA
ENDBRANCH  19  20
ENDBRANCH   9  19
TORSDOF 4
ENDMDL
