MODEL 1
REMARK VINA RESULT:      -7.3      0.000      0.000
REMARK  Name = 
REMARK  6 active torsions:
REMARK  status: ('A' for Active; 'I' for Inactive)
REMARK    1  A    between atoms: C_1  and  C_2
REMARK    2  A    between atoms: C_2  and  C_3
REMARK    3  A    between atoms: C_3  and  C_4
REMARK    4  A    between atoms: C_4  and  N_5
REMARK    5  A    between atoms: N_5  and  C_6
REMARK    6  A    between atoms: N_5  and  N_12
REMARK                            x       y       z     vdW  Elec       q    Type
REMARK                         _______ _______ _______ _____ _____    ______ ____
ROOT
ATOM      1  N   UNL     1       5.358   5.435  16.773  0.00  0.00    +0.000 N 
ENDROOT
BRANCH   1   2
ATOM      2  N   UNL     1       4.035   5.317  17.340  0.00  0.00    +0.000 N 
ATOM      3  C   UNL     1       3.275   6.392  17.747  0.00  0.00    +0.000 A 
ATOM      4  C   UNL     1       2.070   5.966  18.238  0.00  0.00    +0.000 A 
ATOM      5  C   UNL     1       2.108   4.559  18.261  0.00  0.00    +0.000 A 
ATOM      6  C   UNL     1       1.202   3.596  18.753  0.00  0.00    +0.000 A 
ATOM      7  C   UNL     1       1.525   2.243  18.689  0.00  0.00    +0.000 A 
ATOM      8  C   UNL     1       2.722   1.840  18.114  0.00  0.00    +0.000 A 
ATOM      9  C   UNL     1       3.621   2.775  17.583  0.00  0.00    +0.000 A 
ATOM     10  C   UNL     1       3.323   4.152  17.682  0.00  0.00    +0.000 A 
ENDBRANCH   1   2
BRANCH   1  11
ATOM     11  C   UNL     1       6.440   6.042  17.464  0.00  0.00    +0.000 A 
ATOM     12  C   UNL     1       7.103   5.439  18.541  0.00  0.00    +0.000 A 
ATOM     13  C   UNL     1       8.107   6.131  19.210  0.00  0.00    +0.000 A 
ATOM     14  N   UNL     1       8.523   7.368  18.888  0.00  0.00    +0.000 NA
ATOM     15  C   UNL     1       7.893   7.947  17.852  0.00  0.00    +0.000 A 
ATOM     16  C   UNL     1       6.865   7.339  17.152  0.00  0.00    +0.000 A 
ENDBRANCH   1  11
BRANCH   1  17
ATOM     17  C   UNL     1       5.397   5.353  15.301  0.00  0.00    +0.000 C 
BRANCH  17  18
ATOM     18  C   UNL     1       5.804   3.989  14.738  0.00  0.00    +0.000 C 
BRANCH  18  20
ATOM     19  C   UNL     1       5.854   3.309  12.329  0.00  0.00    +0.000 C 
ATOM     20  C   UNL     1       6.569   4.090  13.421  0.00  0.00    +0.000 C 
ENDBRANCH  18  20
ENDBRANCH  17  18
ENDBRANCH   1  17
TORSDOF 5
ENDMDL
MODEL 2
REMARK VINA RESULT:      -7.1      1.124      2.113
REMARK  Name = 
REMARK  6 active torsions:
REMARK  status: ('A' for Active; 'I' for Inactive)
REMARK    1  A    between atoms: C_1  and  C_2
REMARK    2  A    between atoms: C_2  and  C_3
REMARK    3  A    between atoms: C_3  and  C_4
REMARK    4  A    between atoms: C_4  and  N_5
REMARK    5  A    between atoms: N_5  and  C_6
REMARK    6  A    between atoms: N_5  and  N_12
REMARK                            x       y       z     vdW  Elec       q    Type
REMARK                         _______ _______ _______ _____ _____    ______ ____
ROOT
ATOM      1  N   UNL     1       5.338   4.405  16.943  0.00  0.00    +0.000 N 
ENDROOT
BRANCH   1   2
ATOM      2  N   UNL     1       4.321   3.771  17.750  0.00  0.00    +0.000 N 
ATOM      3  C   UNL     1       3.960   2.446  17.630  0.00  0.00    +0.000 A 
ATOM      4  C   UNL     1       2.975   2.137  18.529  0.00  0.00    +0.000 A 
ATOM      5  C   UNL     1       2.602   3.338  19.163  0.00  0.00    +0.000 A 
ATOM      6  C   UNL     1       1.585   3.640  20.091  0.00  0.00    +0.000 A 
ATOM      7  C   UNL     1       1.407   4.953  20.522  0.00  0.00    +0.000 A 
ATOM      8  C   UNL     1       2.250   5.956  20.064  0.00  0.00    +0.000 A 
ATOM      9  C   UNL     1       3.294   5.672  19.171  0.00  0.00    +0.000 A 
ATOM     10  C   UNL     1       3.454   4.353  18.694  0.00  0.00    +0.000 A 
ENDBRANCH   1   2
BRANCH   1  11
ATOM     11  C   UNL     1       6.310   5.286  17.483  0.00  0.00    +0.000 A 
ATOM     12  C   UNL     1       7.101   4.974  18.596  0.00  0.00    +0.000 A 
ATOM     13  C   UNL     1       7.982   5.922  19.107  0.00  0.00    +0.000 A 
ATOM     14  N   UNL     1       8.158   7.151  18.593  0.00  0.00    +0.000 NA
ATOM     15  C   UNL     1       7.405   7.452  17.522  0.00  0.00    +0.000 A 
ATOM     16  C   UNL     1       6.485   6.577  16.971  0.00  0.00    +0.000 A 
ENDBRANCH   1  11
BRANCH   1  17
ATOM     17  C   UNL     1       5.011   4.482  15.507  0.00  0.00    +0.000 C 
BRANCH  17  18
ATOM     18  C   UNL     1       6.098   3.959  14.565  0.00  0.00    +0.000 C 
BRANCH  18  20
ATOM     19  C   UNL     1       6.737   3.562  12.177  0.00  0.00    +0.000 C 
ATOM     20  C   UNL     1       5.581   3.661  13.161  0.00  0.00    +0.000 C 
ENDBRANCH  18  20
ENDBRANCH  17  18
ENDBRANCH   1  17
TORSDOF 5
ENDMDL
MODEL 3
REMARK VINA RESULT:      -7.1      1.131      2.356
REMARK  Name = 
REMARK  6 active torsions:
REMARK  status: ('A' for Active; 'I' for Inactive)
REMARK    1  A    between atoms: C_1  and  C_2
REMARK    2  A    between atoms: C_2  and  C_3
REMARK    3  A    between atoms: C_3  and  C_4
REMARK    4  A    between atoms: C_4  and  N_5
REMARK    5  A    between atoms: N_5  and  C_6
REMARK    6  A    between atoms: N_5  and  N_12
REMARK                            x       y       z     vdW  Elec       q    Type
REMARK                         _______ _______ _______ _____ _____    ______ ____
ROOT
ATOM      1  N   UNL     1       5.236   4.377  16.976  0.00  0.00    +0.000 N 
ENDROOT
BRANCH   1   2
ATOM      2  N   UNL     1       4.207   3.745  17.769  0.00  0.00    +0.000 N 
ATOM      3  C   UNL     1       3.835   2.424  17.632  0.00  0.00    +0.000 A 
ATOM      4  C   UNL     1       2.840   2.115  18.521  0.00  0.00    +0.000 A 
ATOM      5  C   UNL     1       2.475   3.312  19.164  0.00  0.00    +0.000 A 
ATOM      6  C   UNL     1       1.453   3.615  20.089  0.00  0.00    +0.000 A 
ATOM      7  C   UNL     1       1.285   4.925  20.532  0.00  0.00    +0.000 A 
ATOM      8  C   UNL     1       2.140   5.924  20.090  0.00  0.00    +0.000 A 
ATOM      9  C   UNL     1       3.188   5.640  19.203  0.00  0.00    +0.000 A 
ATOM     10  C   UNL     1       3.339   4.325  18.713  0.00  0.00    +0.000 A 
ENDBRANCH   1   2
BRANCH   1  11
ATOM     11  C   UNL     1       6.162   5.307  17.517  0.00  0.00    +0.000 A 
ATOM     12  C   UNL     1       6.334   6.604  17.019  0.00  0.00    +0.000 A 
ATOM     13  C   UNL     1       7.314   7.430  17.562  0.00  0.00    +0.000 A 
ATOM     14  N   UNL     1       8.127   7.081  18.574  0.00  0.00    +0.000 NA
ATOM     15  C   UNL     1       7.961   5.839  19.058  0.00  0.00    +0.000 A 
ATOM     16  C   UNL     1       7.030   4.946  18.555  0.00  0.00    +0.000 A 
ENDBRANCH   1  11
BRANCH   1  17
ATOM     17  C   UNL     1       4.963   4.389  15.527  0.00  0.00    +0.000 C 
BRANCH  17  18
ATOM     18  C   UNL     1       6.130   3.943  14.643  0.00  0.00    +0.000 C 
BRANCH  18  20
ATOM     19  C   UNL     1       6.902   3.855  12.263  0.00  0.00    +0.000 C 
ATOM     20  C   UNL     1       5.718   3.672  13.199  0.00  0.00    +0.000 C 
ENDBRANCH  18  20
ENDBRANCH  17  18
ENDBRANCH   1  17
TORSDOF 5
ENDMDL
MODEL 4
REMARK VINA RESULT:      -7.1      0.303      1.080
REMARK  Name = 
REMARK  6 active torsions:
REMARK  status: ('A' for Active; 'I' for Inactive)
REMARK    1  A    between atoms: C_1  and  C_2
REMARK    2  A    between atoms: C_2  and  C_3
REMARK    3  A    between atoms: C_3  and  C_4
REMARK    4  A    between atoms: C_4  and  N_5
REMARK    5  A    between atoms: N_5  and  C_6
REMARK    6  A    between atoms: N_5  and  N_12
REMARK                            x       y       z     vdW  Elec       q    Type
REMARK                         _______ _______ _______ _____ _____    ______ ____
ROOT
ATOM      1  N   UNL     1       5.190   5.238  16.885  0.00  0.00    +0.000 N 
ENDROOT
BRANCH   1   2
ATOM      2  N   UNL     1       3.870   5.127  17.462  0.00  0.00    +0.000 N 
ATOM      3  C   UNL     1       3.100   6.209  17.832  0.00  0.00    +0.000 A 
ATOM      4  C   UNL     1       1.902   5.789  18.343  0.00  0.00    +0.000 A 
ATOM      5  C   UNL     1       1.955   4.384  18.419  0.00  0.00    +0.000 A 
ATOM      6  C   UNL     1       1.060   3.432  18.951  0.00  0.00    +0.000 A 
ATOM      7  C   UNL     1       1.398   2.080  18.937  0.00  0.00    +0.000 A 
ATOM      8  C   UNL     1       2.597   1.668  18.372  0.00  0.00    +0.000 A 
ATOM      9  C   UNL     1       3.483   2.593  17.802  0.00  0.00    +0.000 A 
ATOM     10  C   UNL     1       3.172   3.968  17.851  0.00  0.00    +0.000 A 
ENDBRANCH   1   2
BRANCH   1  11
ATOM     11  C   UNL     1       6.238   5.973  17.500  0.00  0.00    +0.000 A 
ATOM     12  C   UNL     1       6.651   7.239  17.066  0.00  0.00    +0.000 A 
ATOM     13  C   UNL     1       7.734   7.861  17.678  0.00  0.00    +0.000 A 
ATOM     14  N   UNL     1       8.433   7.339  18.701  0.00  0.00    +0.000 NA
ATOM     15  C   UNL     1       8.036   6.126  19.123  0.00  0.00    +0.000 A 
ATOM     16  C   UNL     1       6.988   5.428  18.549  0.00  0.00    +0.000 A 
ENDBRANCH   1  11
BRANCH   1  17
ATOM     17  C   UNL     1       5.241   4.981  15.435  0.00  0.00    +0.000 C 
BRANCH  17  18
ATOM     18  C   UNL     1       6.358   4.038  14.982  0.00  0.00    +0.000 C 
BRANCH  18  20
ATOM     19  C   UNL     1       5.870   3.461  12.595  0.00  0.00    +0.000 C 
ATOM     20  C   UNL     1       6.771   4.254  13.528  0.00  0.00    +0.000 C 
ENDBRANCH  18  20
ENDBRANCH  17  18
ENDBRANCH   1  17
TORSDOF 5
ENDMDL
MODEL 5
REMARK VINA RESULT:      -7.1      1.891      5.299
REMARK  Name = 
REMARK  6 active torsions:
REMARK  status: ('A' for Active; 'I' for Inactive)
REMARK    1  A    between atoms: C_1  and  C_2
REMARK    2  A    between atoms: C_2  and  C_3
REMARK    3  A    between atoms: C_3  and  C_4
REMARK    4  A    between atoms: C_4  and  N_5
REMARK    5  A    between atoms: N_5  and  C_6
REMARK    6  A    between atoms: N_5  and  N_12
REMARK                            x       y       z     vdW  Elec       q    Type
REMARK                         _______ _______ _______ _____ _____    ______ ____
ROOT
ATOM      1  N   UNL     1       3.433   5.202  18.915  0.00  0.00    +0.000 N 
ENDROOT
BRANCH   1   2
ATOM      2  N   UNL     1       4.804   5.105  18.472  0.00  0.00    +0.000 N 
ATOM      3  C   UNL     1       5.891   5.406  19.265  0.00  0.00    +0.000 A 
ATOM      4  C   UNL     1       7.055   5.215  18.571  0.00  0.00    +0.000 A 
ATOM      5  C   UNL     1       6.699   4.900  17.246  0.00  0.00    +0.000 A 
ATOM      6  C   UNL     1       7.470   4.703  16.081  0.00  0.00    +0.000 A 
ATOM      7  C   UNL     1       6.838   4.447  14.867  0.00  0.00    +0.000 A 
ATOM      8  C   UNL     1       5.454   4.353  14.808  0.00  0.00    +0.000 A 
ATOM      9  C   UNL     1       4.670   4.506  15.960  0.00  0.00    +0.000 A 
ATOM     10  C   UNL     1       5.297   4.810  17.187  0.00  0.00    +0.000 A 
ENDBRANCH   1   2
BRANCH   1  11
ATOM     11  C   UNL     1       2.750   6.441  19.036  0.00  0.00    +0.000 A 
ATOM     12  C   UNL     1       2.662   7.379  18.000  0.00  0.00    +0.000 A 
ATOM     13  C   UNL     1       2.034   8.600  18.223  0.00  0.00    +0.000 A 
ATOM     14  N   UNL     1       1.469   8.964  19.387  0.00  0.00    +0.000 NA
ATOM     15  C   UNL     1       1.547   8.064  20.382  0.00  0.00    +0.000 A 
ATOM     16  C   UNL     1       2.178   6.839  20.251  0.00  0.00    +0.000 A 
ENDBRANCH   1  11
BRANCH   1  17
ATOM     17  C   UNL     1       2.961   4.039  19.688  0.00  0.00    +0.000 C 
BRANCH  17  18
ATOM     18  C   UNL     1       1.791   3.275  19.063  0.00  0.00    +0.000 C 
BRANCH  18  20
ATOM     19  C   UNL     1       3.506   1.658  18.220  0.00  0.00    +0.000 C 
ATOM     20  C   UNL     1       2.213   2.389  17.894  0.00  0.00    +0.000 C 
ENDBRANCH  18  20
ENDBRANCH  17  18
ENDBRANCH   1  17
TORSDOF 5
ENDMDL
MODEL 6
REMARK VINA RESULT:      -7.1      1.911      5.223
REMARK  Name = 
REMARK  6 active torsions:
REMARK  status: ('A' for Active; 'I' for Inactive)
REMARK    1  A    between atoms: C_1  and  C_2
REMARK    2  A    between atoms: C_2  and  C_3
REMARK    3  A    between atoms: C_3  and  C_4
REMARK    4  A    between atoms: C_4  and  N_5
REMARK    5  A    between atoms: N_5  and  C_6
REMARK    6  A    between atoms: N_5  and  N_12
REMARK                            x       y       z     vdW  Elec       q    Type
REMARK                         _______ _______ _______ _____ _____    ______ ____
ROOT
ATOM      1  N   UNL     1       3.367   5.329  18.906  0.00  0.00    +0.000 N 
ENDROOT
BRANCH   1   2
ATOM      2  N   UNL     1       4.742   5.168  18.491  0.00  0.00    +0.000 N 
ATOM      3  C   UNL     1       5.824   5.405  19.312  0.00  0.00    +0.000 A 
ATOM      4  C   UNL     1       6.993   5.164  18.641  0.00  0.00    +0.000 A 
ATOM      5  C   UNL     1       6.651   4.884  17.304  0.00  0.00    +0.000 A 
ATOM      6  C   UNL     1       7.437   4.663  16.154  0.00  0.00    +0.000 A 
ATOM      7  C   UNL     1       6.820   4.454  14.923  0.00  0.00    +0.000 A 
ATOM      8  C   UNL     1       5.436   4.431  14.833  0.00  0.00    +0.000 A 
ATOM      9  C   UNL     1       4.634   4.608  15.969  0.00  0.00    +0.000 A 
ATOM     10  C   UNL     1       5.248   4.865  17.213  0.00  0.00    +0.000 A 
ENDBRANCH   1   2
BRANCH   1  11
ATOM     11  C   UNL     1       2.750   6.599  19.047  0.00  0.00    +0.000 A 
ATOM     12  C   UNL     1       2.112   7.022  20.219  0.00  0.00    +0.000 A 
ATOM     13  C   UNL     1       1.469   8.256  20.251  0.00  0.00    +0.000 A 
ATOM     14  N   UNL     1       1.422   9.116  19.219  0.00  0.00    +0.000 NA
ATOM     15  C   UNL     1       2.037   8.715  18.094  0.00  0.00    +0.000 A 
ATOM     16  C   UNL     1       2.674   7.492  17.971  0.00  0.00    +0.000 A 
ENDBRANCH   1  11
BRANCH   1  17
ATOM     17  C   UNL     1       2.815   4.173  19.635  0.00  0.00    +0.000 C 
BRANCH  17  18
ATOM     18  C   UNL     1       1.728   3.394  18.889  0.00  0.00    +0.000 C 
BRANCH  18  20
ATOM     19  C   UNL     1       3.471   1.689  18.320  0.00  0.00    +0.000 C 
ATOM     20  C   UNL     1       2.286   2.486  17.797  0.00  0.00    +0.000 C 
ENDBRANCH  18  20
ENDBRANCH  17  18
ENDBRANCH   1  17
TORSDOF 5
ENDMDL
MODEL 7
REMARK VINA RESULT:      -7.1      1.914      4.055
REMARK  Name = 
REMARK  6 active torsions:
REMARK  status: ('A' for Active; 'I' for Inactive)
REMARK    1  A    between atoms: C_1  and  C_2
REMARK    2  A    between atoms: C_2  and  C_3
REMARK    3  A    between atoms: C_3  and  C_4
REMARK    4  A    between atoms: C_4  and  N_5
REMARK    5  A    between atoms: N_5  and  C_6
REMARK    6  A    between atoms: N_5  and  N_12
REMARK                            x       y       z     vdW  Elec       q    Type
REMARK                         _______ _______ _______ _____ _____    ______ ____
ROOT
ATOM      1  N   UNL     1       3.763   6.499  17.762  0.00  0.00    +0.000 N 
ENDROOT
BRANCH   1   2
ATOM      2  N   UNL     1       2.924   5.839  18.735  0.00  0.00    +0.000 N 
ATOM      3  C   UNL     1       2.590   6.383  19.957  0.00  0.00    +0.000 A 
ATOM      4  C   UNL     1       1.783   5.526  20.656  0.00  0.00    +0.000 A 
ATOM      5  C   UNL     1       1.697   4.337  19.908  0.00  0.00    +0.000 A 
ATOM      6  C   UNL     1       1.094   3.091  20.179  0.00  0.00    +0.000 A 
ATOM      7  C   UNL     1       1.211   2.050  19.261  0.00  0.00    +0.000 A 
ATOM      8  C   UNL     1       1.890   2.247  18.067  0.00  0.00    +0.000 A 
ATOM      9  C   UNL     1       2.463   3.489  17.758  0.00  0.00    +0.000 A 
ATOM     10  C   UNL     1       2.390   4.537  18.701  0.00  0.00    +0.000 A 
ENDBRANCH   1   2
BRANCH   1  11
ATOM     11  C   UNL     1       5.012   5.972  17.340  0.00  0.00    +0.000 A 
ATOM     12  C   UNL     1       5.300   5.639  16.011  0.00  0.00    +0.000 A 
ATOM     13  C   UNL     1       6.524   5.061  15.692  0.00  0.00    +0.000 A 
ATOM     14  N   UNL     1       7.498   4.802  16.581  0.00  0.00    +0.000 NA
ATOM     15  C   UNL     1       7.227   5.125  17.857  0.00  0.00    +0.000 A 
ATOM     16  C   UNL     1       6.023   5.677  18.262  0.00  0.00    +0.000 A 
ENDBRANCH   1  11
BRANCH   1  17
ATOM     17  C   UNL     1       3.501   7.942  17.615  0.00  0.00    +0.000 C 
BRANCH  17  18
ATOM     18  C   UNL     1       2.022   8.333  17.578  0.00  0.00    +0.000 C 
BRANCH  18  20
ATOM     19  C   UNL     1       0.266   9.978  18.271  0.00  0.00    +0.000 C 
ATOM     20  C   UNL     1       1.760   9.736  18.119  0.00  0.00    +0.000 C 
ENDBRANCH  18  20
ENDBRANCH  17  18
ENDBRANCH   1  17
TORSDOF 5
ENDMDL
MODEL 8
REMARK VINA RESULT:      -7.1      1.977      3.915
REMARK  Name = 
REMARK  6 active torsions:
REMARK  status: ('A' for Active; 'I' for Inactive)
REMARK    1  A    between atoms: C_1  and  C_2
REMARK    2  A    between atoms: C_2  and  C_3
REMARK    3  A    between atoms: C_3  and  C_4
REMARK    4  A    between atoms: C_4  and  N_5
REMARK    5  A    between atoms: N_5  and  C_6
REMARK    6  A    between atoms: N_5  and  N_12
REMARK                            x       y       z     vdW  Elec       q    Type
REMARK                         _______ _______ _______ _____ _____    ______ ____
ROOT
ATOM      1  N   UNL     1       3.822   6.354  17.776  0.00  0.00    +0.000 N 
ENDROOT
BRANCH   1   2
ATOM      2  N   UNL     1       2.944   5.742  18.747  0.00  0.00    +0.000 N 
ATOM      3  C   UNL     1       2.614   6.318  19.955  0.00  0.00    +0.000 A 
ATOM      4  C   UNL     1       1.764   5.503  20.655  0.00  0.00    +0.000 A 
ATOM      5  C   UNL     1       1.644   4.306  19.924  0.00  0.00    +0.000 A 
ATOM      6  C   UNL     1       0.990   3.088  20.206  0.00  0.00    +0.000 A 
ATOM      7  C   UNL     1       1.080   2.029  19.306  0.00  0.00    +0.000 A 
ATOM      8  C   UNL     1       1.784   2.181  18.119  0.00  0.00    +0.000 A 
ATOM      9  C   UNL     1       2.408   3.395  17.800  0.00  0.00    +0.000 A 
ATOM     10  C   UNL     1       2.361   4.460  18.725  0.00  0.00    +0.000 A 
ENDBRANCH   1   2
BRANCH   1  11
ATOM     11  C   UNL     1       5.062   5.780  17.392  0.00  0.00    +0.000 A 
ATOM     12  C   UNL     1       6.019   5.325  18.307  0.00  0.00    +0.000 A 
ATOM     13  C   UNL     1       7.240   4.841  17.849  0.00  0.00    +0.000 A 
ATOM     14  N   UNL     1       7.586   4.753  16.553  0.00  0.00    +0.000 NA
ATOM     15  C   UNL     1       6.668   5.185  15.671  0.00  0.00    +0.000 A 
ATOM     16  C   UNL     1       5.441   5.706  16.046  0.00  0.00    +0.000 A 
ENDBRANCH   1  11
BRANCH   1  17
ATOM     17  C   UNL     1       3.606   7.800  17.591  0.00  0.00    +0.000 C 
BRANCH  17  18
ATOM     18  C   UNL     1       2.140   8.236  17.535  0.00  0.00    +0.000 C 
BRANCH  18  20
ATOM     19  C   UNL     1       0.467   9.921  18.327  0.00  0.00    +0.000 C 
ATOM     20  C   UNL     1       1.928   9.681  17.979  0.00  0.00    +0.000 C 
ENDBRANCH  18  20
ENDBRANCH  17  18
ENDBRANCH   1  17
TORSDOF 5
ENDMDL
MODEL 9
REMARK VINA RESULT:      -7.0      1.957      5.715
REMARK  Name = 
REMARK  6 active torsions:
REMARK  status: ('A' for Active; 'I' for Inactive)
REMARK    1  A    between atoms: C_1  and  C_2
REMARK    2  A    between atoms: C_2  and  C_3
REMARK    3  A    between atoms: C_3  and  C_4
REMARK    4  A    between atoms: C_4  and  N_5
REMARK    5  A    between atoms: N_5  and  C_6
REMARK    6  A    between atoms: N_5  and  N_12
REMARK                            x       y       z     vdW  Elec       q    Type
REMARK                         _______ _______ _______ _____ _____    ______ ____
ROOT
ATOM      1  N   UNL     1       3.450   5.203  18.754  0.00  0.00    +0.000 N 
ENDROOT
BRANCH   1   2
ATOM      2  N   UNL     1       4.829   5.141  18.328  0.00  0.00    +0.000 N 
ATOM      3  C   UNL     1       5.897   5.476  19.132  0.00  0.00    +0.000 A 
ATOM      4  C   UNL     1       7.075   5.314  18.453  0.00  0.00    +0.000 A 
ATOM      5  C   UNL     1       6.743   4.982  17.125  0.00  0.00    +0.000 A 
ATOM      6  C   UNL     1       7.533   4.800  15.971  0.00  0.00    +0.000 A 
ATOM      7  C   UNL     1       6.923   4.520  14.750  0.00  0.00    +0.000 A 
ATOM      8  C   UNL     1       5.543   4.388  14.676  0.00  0.00    +0.000 A 
ATOM      9  C   UNL     1       4.741   4.525  15.818  0.00  0.00    +0.000 A 
ATOM     10  C   UNL     1       5.345   4.853  17.050  0.00  0.00    +0.000 A 
ENDBRANCH   1   2
BRANCH   1  11
ATOM     11  C   UNL     1       2.767   6.428  18.973  0.00  0.00    +0.000 A 
ATOM     12  C   UNL     1       2.671   7.441  18.011  0.00  0.00    +0.000 A 
ATOM     13  C   UNL     1       2.044   8.641  18.330  0.00  0.00    +0.000 A 
ATOM     14  N   UNL     1       1.486   8.915  19.523  0.00  0.00    +0.000 NA
ATOM     15  C   UNL     1       1.573   7.943  20.447  0.00  0.00    +0.000 A 
ATOM     16  C   UNL     1       2.204   6.732  20.219  0.00  0.00    +0.000 A 
ENDBRANCH   1  11
BRANCH   1  17
ATOM     17  C   UNL     1       2.963   3.977  19.412  0.00  0.00    +0.000 C 
BRANCH  17  18
ATOM     18  C   UNL     1       1.729   3.340  18.768  0.00  0.00    +0.000 C 
BRANCH  18  20
ATOM     19  C   UNL     1       1.280   2.958  21.201  0.00  0.00    +0.000 C 
ATOM     20  C   UNL     1       0.754   2.760  19.788  0.00  0.00    +0.000 C 
ENDBRANCH  18  20
ENDBRANCH  17  18
ENDBRANCH   1  17
TORSDOF 5
ENDMDL
