MODEL 1
REMARK VINA RESULT:      -6.6      0.000      0.000
REMARK  Name = 
REMARK  3 active torsions:
REMARK  status: ('A' for Active; 'I' for Inactive)
REMARK    1  A    between atoms: C_2  and  O_3
REMARK    2  A    between atoms: C_2  and  C_4
REMARK    3  A    between atoms: C_4  and  N_5
REMARK                            x       y       z     vdW  Elec       q    Type
REMARK                         _______ _______ _______ _____ _____    ______ ____
ROOT
ATOM      1  N   UNL     1       5.940   5.372  16.709  0.00  0.00    +0.000 N 
ATOM      2  C   UNL     1       6.962   6.073  17.337  0.00  0.00    +0.000 A 
ATOM      3  O   UNL     1       7.676   6.917  16.815  0.00  0.00    +0.000 OA
ATOM      4  C   UNL     1       7.169   5.791  18.802  0.00  0.00    +0.000 A 
ATOM      5  N   UNL     1       6.419   5.001  19.499  0.00  0.00    +0.000 NA
ATOM      6  C   UNL     1       5.371   4.337  18.842  0.00  0.00    +0.000 A 
ATOM      7  C   UNL     1       4.540   3.523  19.616  0.00  0.00    +0.000 A 
ATOM      8  C   UNL     1       3.482   2.826  19.036  0.00  0.00    +0.000 A 
ATOM      9  C   UNL     1       3.259   2.926  17.667  0.00  0.00    +0.000 A 
ATOM     10  C   UNL     1       4.076   3.742  16.879  0.00  0.00    +0.000 A 
ATOM     11  C   UNL     1       5.128   4.467  17.458  0.00  0.00    +0.000 A 
ENDROOT
BRANCH   1  12
ATOM     12  C   UNL     1       5.725   5.611  15.280  0.00  0.00    +0.000 C 
BRANCH  12  14
ATOM     13  O   UNL     1       6.387   3.733  13.903  0.00  0.00    +0.000 OA
ATOM     14  C   UNL     1       6.667   4.830  14.362  0.00  0.00    +0.000 C 
BRANCH  14  15
ATOM     15  O   UNL     1       7.836   5.448  14.077  0.00  0.00    +0.000 OA
ATOM     16  H   UNL     1       7.711   6.311  13.639  0.00  0.00    +0.000 HD
ENDBRANCH  14  15
ENDBRANCH  12  14
ENDBRANCH   1  12
TORSDOF 3
ENDMDL
MODEL 2
REMARK VINA RESULT:      -6.4      1.697      2.095
REMARK  Name = 
REMARK  3 active torsions:
REMARK  status: ('A' for Active; 'I' for Inactive)
REMARK    1  A    between atoms: C_2  and  O_3
REMARK    2  A    between atoms: C_2  and  C_4
REMARK    3  A    between atoms: C_4  and  N_5
REMARK                            x       y       z     vdW  Elec       q    Type
REMARK                         _______ _______ _______ _____ _____    ______ ____
ROOT
ATOM      1  N   UNL     1       5.297   5.110  17.057  0.00  0.00    +0.000 N 
ATOM      2  C   UNL     1       5.311   6.500  17.066  0.00  0.00    +0.000 A 
ATOM      3  O   UNL     1       6.234   7.208  16.692  0.00  0.00    +0.000 OA
ATOM      4  C   UNL     1       4.054   7.181  17.541  0.00  0.00    +0.000 A 
ATOM      5  N   UNL     1       2.970   6.554  17.866  0.00  0.00    +0.000 NA
ATOM      6  C   UNL     1       2.978   5.151  17.808  0.00  0.00    +0.000 A 
ATOM      7  C   UNL     1       1.787   4.489  18.117  0.00  0.00    +0.000 A 
ATOM      8  C   UNL     1       1.716   3.098  18.089  0.00  0.00    +0.000 A 
ATOM      9  C   UNL     1       2.848   2.356  17.767  0.00  0.00    +0.000 A 
ATOM     10  C   UNL     1       4.046   3.003  17.449  0.00  0.00    +0.000 A 
ATOM     11  C   UNL     1       4.120   4.404  17.450  0.00  0.00    +0.000 A 
ENDROOT
BRANCH   1  12
ATOM     12  C   UNL     1       6.510   4.418  16.618  0.00  0.00    +0.000 C 
BRANCH  12  14
ATOM     13  O   UNL     1       6.151   3.702  14.333  0.00  0.00    +0.000 OA
ATOM     14  C   UNL     1       6.740   4.444  15.106  0.00  0.00    +0.000 C 
BRANCH  14  15
ATOM     15  O   UNL     1       7.636   5.360  14.675  0.00  0.00    +0.000 OA
ATOM     16  H   UNL     1       7.216   6.192  14.386  0.00  0.00    +0.000 HD
ENDBRANCH  14  15
ENDBRANCH  12  14
ENDBRANCH   1  12
TORSDOF 3
ENDMDL
MODEL 3
REMARK VINA RESULT:      -6.2      2.300      2.818
REMARK  Name = 
REMARK  3 active torsions:
REMARK  status: ('A' for Active; 'I' for Inactive)
REMARK    1  A    between atoms: C_2  and  O_3
REMARK    2  A    between atoms: C_2  and  C_4
REMARK    3  A    between atoms: C_4  and  N_5
REMARK                            x       y       z     vdW  Elec       q    Type
REMARK                         _______ _______ _______ _____ _____    ______ ____
ROOT
ATOM      1  N   UNL     1       4.415   4.958  17.031  0.00  0.00    +0.000 N 
ATOM      2  C   UNL     1       4.424   6.344  17.139  0.00  0.00    +0.000 A 
ATOM      3  O   UNL     1       5.198   7.101  16.570  0.00  0.00    +0.000 OA
ATOM      4  C   UNL     1       3.352   6.957  18.002  0.00  0.00    +0.000 A 
ATOM      5  N   UNL     1       2.411   6.282  18.576  0.00  0.00    +0.000 NA
ATOM      6  C   UNL     1       2.408   4.887  18.414  0.00  0.00    +0.000 A 
ATOM      7  C   UNL     1       1.360   4.174  19.000  0.00  0.00    +0.000 A 
ATOM      8  C   UNL     1       1.290   2.787  18.890  0.00  0.00    +0.000 A 
ATOM      9  C   UNL     1       2.286   2.099  18.204  0.00  0.00    +0.000 A 
ATOM     10  C   UNL     1       3.339   2.798  17.606  0.00  0.00    +0.000 A 
ATOM     11  C   UNL     1       3.404   4.196  17.690  0.00  0.00    +0.000 A 
ENDROOT
BRANCH   1  12
ATOM     12  C   UNL     1       5.455   4.330  16.214  0.00  0.00    +0.000 C 
BRANCH  12  14
ATOM     13  O   UNL     1       7.858   4.623  16.194  0.00  0.00    +0.000 OA
ATOM     14  C   UNL     1       6.851   4.362  16.836  0.00  0.00    +0.000 C 
BRANCH  14  15
ATOM     15  O   UNL     1       6.898   4.091  18.161  0.00  0.00    +0.000 OA
ATOM     16  H   UNL     1       7.058   3.147  18.348  0.00  0.00    +0.000 HD
ENDBRANCH  14  15
ENDBRANCH  12  14
ENDBRANCH   1  12
TORSDOF 3
ENDMDL
MODEL 4
REMARK VINA RESULT:      -6.1      3.896      5.280
REMARK  Name = 
REMARK  3 active torsions:
REMARK  status: ('A' for Active; 'I' for Inactive)
REMARK    1  A    between atoms: C_2  and  O_3
REMARK    2  A    between atoms: C_2  and  C_4
REMARK    3  A    between atoms: C_4  and  N_5
REMARK                            x       y       z     vdW  Elec       q    Type
REMARK                         _______ _______ _______ _____ _____    ______ ____
ROOT
ATOM      1  N   UNL     1       2.926   4.321  18.991  0.00  0.00    +0.000 N 
ATOM      2  C   UNL     1       2.313   5.309  19.752  0.00  0.00    +0.000 A 
ATOM      3  O   UNL     1       1.657   5.126  20.767  0.00  0.00    +0.000 OA
ATOM      4  C   UNL     1       2.521   6.731  19.300  0.00  0.00    +0.000 A 
ATOM      5  N   UNL     1       3.276   7.071  18.306  0.00  0.00    +0.000 NA
ATOM      6  C   UNL     1       3.912   6.050  17.582  0.00  0.00    +0.000 A 
ATOM      7  C   UNL     1       4.761   6.434  16.542  0.00  0.00    +0.000 A 
ATOM      8  C   UNL     1       5.423   5.480  15.772  0.00  0.00    +0.000 A 
ATOM      9  C   UNL     1       5.224   4.128  16.030  0.00  0.00    +0.000 A 
ATOM     10  C   UNL     1       4.383   3.726  17.072  0.00  0.00    +0.000 A 
ATOM     11  C   UNL     1       3.732   4.680  17.868  0.00  0.00    +0.000 A 
ENDROOT
BRANCH   1  12
ATOM     12  C   UNL     1       2.729   2.927  19.393  0.00  0.00    +0.000 C 
BRANCH  12  14
ATOM     13  O   UNL     1       4.773   2.120  20.409  0.00  0.00    +0.000 OA
ATOM     14  C   UNL     1       3.612   2.476  20.557  0.00  0.00    +0.000 C 
BRANCH  14  15
ATOM     15  O   UNL     1       3.024   2.508  21.774  0.00  0.00    +0.000 OA
ATOM     16  H   UNL     1       3.665   2.432  22.506  0.00  0.00    +0.000 HD
ENDBRANCH  14  15
ENDBRANCH  12  14
ENDBRANCH   1  12
TORSDOF 3
ENDMDL
MODEL 5
REMARK VINA RESULT:      -6.1      1.618      1.732
REMARK  Name = 
REMARK  3 active torsions:
REMARK  status: ('A' for Active; 'I' for Inactive)
REMARK    1  A    between atoms: C_2  and  O_3
REMARK    2  A    between atoms: C_2  and  C_4
REMARK    3  A    between atoms: C_4  and  N_5
REMARK                            x       y       z     vdW  Elec       q    Type
REMARK                         _______ _______ _______ _____ _____    ______ ____
ROOT
ATOM      1  N   UNL     1       5.808   4.220  17.054  0.00  0.00    +0.000 N 
ATOM      2  C   UNL     1       7.020   4.578  17.631  0.00  0.00    +0.000 A 
ATOM      3  O   UNL     1       8.122   4.452  17.116  0.00  0.00    +0.000 OA
ATOM      4  C   UNL     1       6.953   5.217  18.994  0.00  0.00    +0.000 A 
ATOM      5  N   UNL     1       5.851   5.503  19.605  0.00  0.00    +0.000 NA
ATOM      6  C   UNL     1       4.642   5.162  18.978  0.00  0.00    +0.000 A 
ATOM      7  C   UNL     1       3.458   5.519  19.627  0.00  0.00    +0.000 A 
ATOM      8  C   UNL     1       2.218   5.210  19.072  0.00  0.00    +0.000 A 
ATOM      9  C   UNL     1       2.156   4.523  17.864  0.00  0.00    +0.000 A 
ATOM     10  C   UNL     1       3.331   4.166  17.197  0.00  0.00    +0.000 A 
ATOM     11  C   UNL     1       4.583   4.494  17.736  0.00  0.00    +0.000 A 
ENDROOT
BRANCH   1  12
ATOM     12  C   UNL     1       5.840   3.579  15.738  0.00  0.00    +0.000 C 
BRANCH  12  14
ATOM     13  O   UNL     1       5.879   5.764  14.695  0.00  0.00    +0.000 OA
ATOM     14  C   UNL     1       5.980   4.552  14.567  0.00  0.00    +0.000 C 
BRANCH  14  15
ATOM     15  O   UNL     1       6.241   3.979  13.370  0.00  0.00    +0.000 OA
ATOM     16  H   UNL     1       6.443   3.027  13.443  0.00  0.00    +0.000 HD
ENDBRANCH  14  15
ENDBRANCH  12  14
ENDBRANCH   1  12
TORSDOF 3
ENDMDL
MODEL 6
REMARK VINA RESULT:      -6.1      2.227      3.003
REMARK  Name = 
REMARK  3 active torsions:
REMARK  status: ('A' for Active; 'I' for Inactive)
REMARK    1  A    between atoms: C_2  and  O_3
REMARK    2  A    between atoms: C_2  and  C_4
REMARK    3  A    between atoms: C_4  and  N_5
REMARK                            x       y       z     vdW  Elec       q    Type
REMARK                         _______ _______ _______ _____ _____    ______ ____
ROOT
ATOM      1  N   UNL     1       5.015   5.233  17.227  0.00  0.00    +0.000 N 
ATOM      2  C   UNL     1       4.911   6.619  17.192  0.00  0.00    +0.000 A 
ATOM      3  O   UNL     1       5.782   7.392  16.820  0.00  0.00    +0.000 OA
ATOM      4  C   UNL     1       3.587   7.204  17.609  0.00  0.00    +0.000 A 
ATOM      5  N   UNL     1       2.551   6.497  17.924  0.00  0.00    +0.000 NA
ATOM      6  C   UNL     1       2.679   5.099  17.913  0.00  0.00    +0.000 A 
ATOM      7  C   UNL     1       1.540   4.348  18.209  0.00  0.00    +0.000 A 
ATOM      8  C   UNL     1       1.587   2.955  18.225  0.00  0.00    +0.000 A 
ATOM      9  C   UNL     1       2.786   2.304  17.958  0.00  0.00    +0.000 A 
ATOM     10  C   UNL     1       3.934   3.040  17.652  0.00  0.00    +0.000 A 
ATOM     11  C   UNL     1       3.890   4.441  17.610  0.00  0.00    +0.000 A 
ENDROOT
BRANCH   1  12
ATOM     12  C   UNL     1       6.295   4.634  16.844  0.00  0.00    +0.000 C 
BRANCH  12  14
ATOM     13  O   UNL     1       7.109   5.012  19.093  0.00  0.00    +0.000 OA
ATOM     14  C   UNL     1       7.322   4.565  17.975  0.00  0.00    +0.000 C 
BRANCH  14  15
ATOM     15  O   UNL     1       8.489   3.959  17.658  0.00  0.00    +0.000 OA
ATOM     16  H   UNL     1       8.360   3.115  17.185  0.00  0.00    +0.000 HD
ENDBRANCH  14  15
ENDBRANCH  12  14
ENDBRANCH   1  12
TORSDOF 3
ENDMDL
MODEL 7
REMARK VINA RESULT:      -6.0      2.530      4.013
REMARK  Name = 
REMARK  3 active torsions:
REMARK  status: ('A' for Active; 'I' for Inactive)
REMARK    1  A    between atoms: C_2  and  O_3
REMARK    2  A    between atoms: C_2  and  C_4
REMARK    3  A    between atoms: C_4  and  N_5
REMARK                            x       y       z     vdW  Elec       q    Type
REMARK                         _______ _______ _______ _____ _____    ______ ____
ROOT
ATOM      1  N   UNL     1       4.265   4.750  17.883  0.00  0.00    +0.000 N 
ATOM      2  C   UNL     1       4.330   3.919  16.770  0.00  0.00    +0.000 A 
ATOM      3  O   UNL     1       5.247   3.875  15.963  0.00  0.00    +0.000 OA
ATOM      4  C   UNL     1       3.181   2.963  16.579  0.00  0.00    +0.000 A 
ATOM      5  N   UNL     1       2.201   2.834  17.412  0.00  0.00    +0.000 NA
ATOM      6  C   UNL     1       2.186   3.662  18.546  0.00  0.00    +0.000 A 
ATOM      7  C   UNL     1       1.147   3.480  19.461  0.00  0.00    +0.000 A 
ATOM      8  C   UNL     1       1.059   4.267  20.608  0.00  0.00    +0.000 A 
ATOM      9  C   UNL     1       2.007   5.258  20.837  0.00  0.00    +0.000 A 
ATOM     10  C   UNL     1       3.058   5.449  19.935  0.00  0.00    +0.000 A 
ATOM     11  C   UNL     1       3.169   4.645  18.791  0.00  0.00    +0.000 A 
ENDROOT
BRANCH   1  12
ATOM     12  C   UNL     1       5.357   5.704  18.087  0.00  0.00    +0.000 C 
BRANCH  12  14
ATOM     13  O   UNL     1       6.854   5.378  19.962  0.00  0.00    +0.000 OA
ATOM     14  C   UNL     1       6.579   5.121  18.799  0.00  0.00    +0.000 C 
BRANCH  14  15
ATOM     15  O   UNL     1       7.334   4.283  18.054  0.00  0.00    +0.000 OA
ATOM     16  H   UNL     1       8.292   4.409  18.197  0.00  0.00    +0.000 HD
ENDBRANCH  14  15
ENDBRANCH  12  14
ENDBRANCH   1  12
TORSDOF 3
ENDMDL
MODEL 8
REMARK VINA RESULT:      -6.0      2.248      2.903
REMARK  Name = 
REMARK  3 active torsions:
REMARK  status: ('A' for Active; 'I' for Inactive)
REMARK    1  A    between atoms: C_2  and  O_3
REMARK    2  A    between atoms: C_2  and  C_4
REMARK    3  A    between atoms: C_4  and  N_5
REMARK                            x       y       z     vdW  Elec       q    Type
REMARK                         _______ _______ _______ _____ _____    ______ ____
ROOT
ATOM      1  N   UNL     1       4.634   5.057  17.718  0.00  0.00    +0.000 N 
ATOM      2  C   UNL     1       4.281   6.339  17.314  0.00  0.00    +0.000 A 
ATOM      3  O   UNL     1       4.710   6.922  16.329  0.00  0.00    +0.000 OA
ATOM      4  C   UNL     1       3.242   7.044  18.148  0.00  0.00    +0.000 A 
ATOM      5  N   UNL     1       2.632   6.504  19.152  0.00  0.00    +0.000 NA
ATOM      6  C   UNL     1       2.986   5.193  19.510  0.00  0.00    +0.000 A 
ATOM      7  C   UNL     1       2.287   4.605  20.566  0.00  0.00    +0.000 A 
ATOM      8  C   UNL     1       2.583   3.310  20.986  0.00  0.00    +0.000 A 
ATOM      9  C   UNL     1       3.600   2.598  20.358  0.00  0.00    +0.000 A 
ATOM     10  C   UNL     1       4.305   3.169  19.294  0.00  0.00    +0.000 A 
ATOM     11  C   UNL     1       3.997   4.462  18.849  0.00  0.00    +0.000 A 
ENDROOT
BRANCH   1  12
ATOM     12  C   UNL     1       5.654   4.352  16.939  0.00  0.00    +0.000 C 
BRANCH  12  14
ATOM     13  O   UNL     1       7.789   4.443  18.079  0.00  0.00    +0.000 OA
ATOM     14  C   UNL     1       7.081   4.852  17.170  0.00  0.00    +0.000 C 
BRANCH  14  15
ATOM     15  O   UNL     1       7.518   5.776  16.284  0.00  0.00    +0.000 OA
ATOM     16  H   UNL     1       6.828   6.422  16.040  0.00  0.00    +0.000 HD
ENDBRANCH  14  15
ENDBRANCH  12  14
ENDBRANCH   1  12
TORSDOF 3
ENDMDL
MODEL 9
REMARK VINA RESULT:      -6.0      4.078      5.373
REMARK  Name = 
REMARK  3 active torsions:
REMARK  status: ('A' for Active; 'I' for Inactive)
REMARK    1  A    between atoms: C_2  and  O_3
REMARK    2  A    between atoms: C_2  and  C_4
REMARK    3  A    between atoms: C_4  and  N_5
REMARK                            x       y       z     vdW  Elec       q    Type
REMARK                         _______ _______ _______ _____ _____    ______ ____
ROOT
ATOM      1  N   UNL     1       2.917   4.797  18.961  0.00  0.00    +0.000 N 
ATOM      2  C   UNL     1       2.352   5.897  19.596  0.00  0.00    +0.000 A 
ATOM      3  O   UNL     1       1.687   5.867  20.622  0.00  0.00    +0.000 OA
ATOM      4  C   UNL     1       2.628   7.243  18.979  0.00  0.00    +0.000 A 
ATOM      5  N   UNL     1       3.399   7.426  17.958  0.00  0.00    +0.000 NA
ATOM      6  C   UNL     1       3.985   6.297  17.363  0.00  0.00    +0.000 A 
ATOM      7  C   UNL     1       4.852   6.513  16.290  0.00  0.00    +0.000 A 
ATOM      8  C   UNL     1       5.467   5.444  15.643  0.00  0.00    +0.000 A 
ATOM      9  C   UNL     1       5.203   4.143  16.058  0.00  0.00    +0.000 A 
ATOM     10  C   UNL     1       4.343   3.909  17.135  0.00  0.00    +0.000 A 
ATOM     11  C   UNL     1       3.739   4.980  17.809  0.00  0.00    +0.000 A 
ENDROOT
BRANCH   1  12
ATOM     12  C   UNL     1       2.652   3.472  19.525  0.00  0.00    +0.000 C 
BRANCH  12  14
ATOM     13  O   UNL     1       0.901   2.404  18.238  0.00  0.00    +0.000 OA
ATOM     14  C   UNL     1       1.235   2.953  19.278  0.00  0.00    +0.000 C 
BRANCH  14  15
ATOM     15  O   UNL     1       0.369   3.130  20.302  0.00  0.00    +0.000 OA
ATOM     16  H   UNL     1       0.155   2.297  20.764  0.00  0.00    +0.000 HD
ENDBRANCH  14  15
ENDBRANCH  12  14
ENDBRANCH   1  12
TORSDOF 3
ENDMDL
