MODEL 1
REMARK VINA RESULT:      -6.8      0.000      0.000
REMARK  Name = 
REMARK  4 active torsions:
REMARK  status: ('A' for Active; 'I' for Inactive)
REMARK    1  A    between atoms: C_1  and  O_2
REMARK    2  A    between atoms: O_2  and  C_3
REMARK    3  A    between atoms: C_8  and  C_9
REMARK    4  A    between atoms: C_9  and  O_11
REMARK                            x       y       z     vdW  Elec       q    Type
REMARK                         _______ _______ _______ _____ _____    ______ ____
ROOT
ATOM      1  C   UNL     1       2.150   3.702  19.102  0.00  0.00    +0.000 A 
ATOM      2  C   UNL     1       2.635   2.480  18.643  0.00  0.00    +0.000 A 
ATOM      3  C   UNL     1       3.650   2.444  17.682  0.00  0.00    +0.000 A 
ATOM      4  C   UNL     1       4.196   3.628  17.163  0.00  0.00    +0.000 A 
ATOM      5  C   UNL     1       5.187   3.600  16.170  0.00  0.00    +0.000 A 
ATOM      6  C   UNL     1       5.718   4.786  15.647  0.00  0.00    +0.000 A 
ATOM      7  C   UNL     1       5.253   6.018  16.120  0.00  0.00    +0.000 A 
ATOM      8  C   UNL     1       4.271   6.055  17.116  0.00  0.00    +0.000 A 
ATOM      9  C   UNL     1       3.724   4.870  17.639  0.00  0.00    +0.000 A 
ATOM     10  C   UNL     1       2.706   4.888  18.609  0.00  0.00    +0.000 A 
ENDROOT
BRANCH   1  12
ATOM     11  C   UNL     1       1.232   3.116  21.215  0.00  0.00    +0.000 C 
ATOM     12  O   UNL     1       1.143   3.873  20.013  0.00  0.00    +0.000 OA
ENDBRANCH   1  12
BRANCH   6  13
ATOM     13  C   UNL     1       6.714   4.667  14.549  0.00  0.00    +0.000 C 
ATOM     14  O   UNL     1       7.624   5.465  14.398  0.00  0.00    +0.000 OA
BRANCH  13  15
ATOM     15  O   UNL     1       6.510   3.629  13.714  0.00  0.00    +0.000 OA
ATOM     16  H   UNL     1       7.268   3.028  13.593  0.00  0.00    +0.000 HD
ENDBRANCH  13  15
ENDBRANCH   6  13
TORSDOF 3
ENDMDL
MODEL 2
REMARK VINA RESULT:      -6.8      1.183      1.296
REMARK  Name = 
REMARK  4 active torsions:
REMARK  status: ('A' for Active; 'I' for Inactive)
REMARK    1  A    between atoms: C_1  and  O_2
REMARK    2  A    between atoms: O_2  and  C_3
REMARK    3  A    between atoms: C_8  and  C_9
REMARK    4  A    between atoms: C_9  and  O_11
REMARK                            x       y       z     vdW  Elec       q    Type
REMARK                         _______ _______ _______ _____ _____    ______ ____
ROOT
ATOM      1  C   UNL     1       2.306   3.964  19.670  0.00  0.00    +0.000 A 
ATOM      2  C   UNL     1       1.748   3.633  18.438  0.00  0.00    +0.000 A 
ATOM      3  C   UNL     1       2.539   3.640  17.284  0.00  0.00    +0.000 A 
ATOM      4  C   UNL     1       3.900   3.978  17.344  0.00  0.00    +0.000 A 
ATOM      5  C   UNL     1       4.690   4.025  16.185  0.00  0.00    +0.000 A 
ATOM      6  C   UNL     1       6.045   4.377  16.250  0.00  0.00    +0.000 A 
ATOM      7  C   UNL     1       6.619   4.688  17.487  0.00  0.00    +0.000 A 
ATOM      8  C   UNL     1       5.839   4.635  18.648  0.00  0.00    +0.000 A 
ATOM      9  C   UNL     1       4.477   4.294  18.592  0.00  0.00    +0.000 A 
ATOM     10  C   UNL     1       3.668   4.278  19.743  0.00  0.00    +0.000 A 
ENDROOT
BRANCH   1  12
ATOM     11  C   UNL     1       1.478   2.800  21.570  0.00  0.00    +0.000 C 
ATOM     12  O   UNL     1       1.637   4.025  20.862  0.00  0.00    +0.000 OA
ENDBRANCH   1  12
BRANCH   6  13
ATOM     13  C   UNL     1       6.792   4.469  14.968  0.00  0.00    +0.000 C 
ATOM     14  O   UNL     1       7.653   5.309  14.768  0.00  0.00    +0.000 OA
BRANCH  13  15
ATOM     15  O   UNL     1       6.417   3.574  14.031  0.00  0.00    +0.000 OA
ATOM     16  H   UNL     1       7.123   3.265  13.435  0.00  0.00    +0.000 HD
ENDBRANCH  13  15
ENDBRANCH   6  13
TORSDOF 3
ENDMDL
MODEL 3
REMARK VINA RESULT:      -6.8      1.658      5.613
REMARK  Name = 
REMARK  4 active torsions:
REMARK  status: ('A' for Active; 'I' for Inactive)
REMARK    1  A    between atoms: C_1  and  O_2
REMARK    2  A    between atoms: O_2  and  C_3
REMARK    3  A    between atoms: C_8  and  C_9
REMARK    4  A    between atoms: C_9  and  O_11
REMARK                            x       y       z     vdW  Elec       q    Type
REMARK                         _______ _______ _______ _____ _____    ______ ____
ROOT
ATOM      1  C   UNL     1       6.344   5.899  16.710  0.00  0.00    +0.000 A 
ATOM      2  C   UNL     1       6.169   4.638  16.144  0.00  0.00    +0.000 A 
ATOM      3  C   UNL     1       5.059   3.861  16.489  0.00  0.00    +0.000 A 
ATOM      4  C   UNL     1       4.106   4.331  17.405  0.00  0.00    +0.000 A 
ATOM      5  C   UNL     1       3.010   3.541  17.785  0.00  0.00    +0.000 A 
ATOM      6  C   UNL     1       2.068   4.010  18.710  0.00  0.00    +0.000 A 
ATOM      7  C   UNL     1       2.223   5.285  19.266  0.00  0.00    +0.000 A 
ATOM      8  C   UNL     1       3.308   6.083  18.885  0.00  0.00    +0.000 A 
ATOM      9  C   UNL     1       4.264   5.616  17.966  0.00  0.00    +0.000 A 
ATOM     10  C   UNL     1       5.384   6.386  17.605  0.00  0.00    +0.000 A 
ENDROOT
BRANCH   1  12
ATOM     11  C   UNL     1       7.707   7.675  17.509  0.00  0.00    +0.000 C 
ATOM     12  O   UNL     1       7.397   6.742  16.480  0.00  0.00    +0.000 OA
ENDBRANCH   1  12
BRANCH   6  13
ATOM     13  C   UNL     1       0.976   3.083  19.110  0.00  0.00    +0.000 C 
ATOM     14  O   UNL     1       0.527   2.235  18.359  0.00  0.00    +0.000 OA
BRANCH  13  15
ATOM     15  O   UNL     1       0.500   3.280  20.357  0.00  0.00    +0.000 OA
ATOM     16  H   UNL     1       0.544   2.509  20.952  0.00  0.00    +0.000 HD
ENDBRANCH  13  15
ENDBRANCH   6  13
TORSDOF 3
ENDMDL
MODEL 4
REMARK VINA RESULT:      -6.7      1.895      5.413
REMARK  Name = 
REMARK  4 active torsions:
REMARK  status: ('A' for Active; 'I' for Inactive)
REMARK    1  A    between atoms: C_1  and  O_2
REMARK    2  A    between atoms: O_2  and  C_3
REMARK    3  A    between atoms: C_8  and  C_9
REMARK    4  A    between atoms: C_9  and  O_11
REMARK                            x       y       z     vdW  Elec       q    Type
REMARK                         _______ _______ _______ _____ _____    ______ ____
ROOT
ATOM      1  C   UNL     1       6.775   6.137  16.647  0.00  0.00    +0.000 A 
ATOM      2  C   UNL     1       6.851   4.881  16.050  0.00  0.00    +0.000 A 
ATOM      3  C   UNL     1       5.829   3.947  16.251  0.00  0.00    +0.000 A 
ATOM      4  C   UNL     1       4.717   4.253  17.050  0.00  0.00    +0.000 A 
ATOM      5  C   UNL     1       3.708   3.307  17.286  0.00  0.00    +0.000 A 
ATOM      6  C   UNL     1       2.606   3.614  18.096  0.00  0.00    +0.000 A 
ATOM      7  C   UNL     1       2.511   4.882  18.680  0.00  0.00    +0.000 A 
ATOM      8  C   UNL     1       3.509   5.834  18.441  0.00  0.00    +0.000 A 
ATOM      9  C   UNL     1       4.623   5.531  17.639  0.00  0.00    +0.000 A 
ATOM     10  C   UNL     1       5.657   6.460  17.425  0.00  0.00    +0.000 A 
ENDROOT
BRANCH   1  12
ATOM     11  C   UNL     1       7.799   8.036  17.646  0.00  0.00    +0.000 C 
ATOM     12  O   UNL     1       7.718   7.126  16.555  0.00  0.00    +0.000 OA
ENDBRANCH   1  12
BRANCH   6  13
ATOM     13  C   UNL     1       1.618   2.532  18.351  0.00  0.00    +0.000 C 
ATOM     14  O   UNL     1       0.417   2.736  18.392  0.00  0.00    +0.000 OA
BRANCH  13  15
ATOM     15  O   UNL     1       2.159   1.316  18.568  0.00  0.00    +0.000 OA
ATOM     16  H   UNL     1       3.120   1.304  18.730  0.00  0.00    +0.000 HD
ENDBRANCH  13  15
ENDBRANCH   6  13
TORSDOF 3
ENDMDL
MODEL 5
REMARK VINA RESULT:      -6.7      0.997      6.007
REMARK  Name = 
REMARK  4 active torsions:
REMARK  status: ('A' for Active; 'I' for Inactive)
REMARK    1  A    between atoms: C_1  and  O_2
REMARK    2  A    between atoms: O_2  and  C_3
REMARK    3  A    between atoms: C_8  and  C_9
REMARK    4  A    between atoms: C_9  and  O_11
REMARK                            x       y       z     vdW  Elec       q    Type
REMARK                         _______ _______ _______ _____ _____    ______ ____
ROOT
ATOM      1  C   UNL     1       5.296   5.474  15.932  0.00  0.00    +0.000 A 
ATOM      2  C   UNL     1       4.858   6.544  16.709  0.00  0.00    +0.000 A 
ATOM      3  C   UNL     1       4.096   6.311  17.858  0.00  0.00    +0.000 A 
ATOM      4  C   UNL     1       3.758   5.007  18.249  0.00  0.00    +0.000 A 
ATOM      5  C   UNL     1       2.961   4.769  19.379  0.00  0.00    +0.000 A 
ATOM      6  C   UNL     1       2.617   3.464  19.758  0.00  0.00    +0.000 A 
ATOM      7  C   UNL     1       3.072   2.382  18.996  0.00  0.00    +0.000 A 
ATOM      8  C   UNL     1       3.875   2.611  17.873  0.00  0.00    +0.000 A 
ATOM      9  C   UNL     1       4.217   3.916  17.480  0.00  0.00    +0.000 A 
ATOM     10  C   UNL     1       4.985   4.168  16.329  0.00  0.00    +0.000 A 
ENDROOT
BRANCH   1  12
ATOM     11  C   UNL     1       6.432   4.343  14.177  0.00  0.00    +0.000 C 
ATOM     12  O   UNL     1       6.019   5.567  14.774  0.00  0.00    +0.000 OA
ENDBRANCH   1  12
BRANCH   6  13
ATOM     13  C   UNL     1       1.712   3.304  20.927  0.00  0.00    +0.000 C 
ATOM     14  O   UNL     1       2.115   3.326  22.077  0.00  0.00    +0.000 OA
BRANCH  13  15
ATOM     15  O   UNL     1       0.417   3.097  20.612  0.00  0.00    +0.000 OA
ATOM     16  H   UNL     1       0.168   3.305  19.693  0.00  0.00    +0.000 HD
ENDBRANCH  13  15
ENDBRANCH   6  13
TORSDOF 3
ENDMDL
MODEL 6
REMARK VINA RESULT:      -6.6      1.497      5.967
REMARK  Name = 
REMARK  4 active torsions:
REMARK  status: ('A' for Active; 'I' for Inactive)
REMARK    1  A    between atoms: C_1  and  O_2
REMARK    2  A    between atoms: O_2  and  C_3
REMARK    3  A    between atoms: C_8  and  C_9
REMARK    4  A    between atoms: C_9  and  O_11
REMARK                            x       y       z     vdW  Elec       q    Type
REMARK                         _______ _______ _______ _____ _____    ______ ____
ROOT
ATOM      1  C   UNL     1       6.474   5.268  16.676  0.00  0.00    +0.000 A 
ATOM      2  C   UNL     1       6.860   5.511  17.992  0.00  0.00    +0.000 A 
ATOM      3  C   UNL     1       6.014   5.157  19.048  0.00  0.00    +0.000 A 
ATOM      4  C   UNL     1       4.769   4.557  18.806  0.00  0.00    +0.000 A 
ATOM      5  C   UNL     1       3.899   4.235  19.859  0.00  0.00    +0.000 A 
ATOM      6  C   UNL     1       2.651   3.647  19.610  0.00  0.00    +0.000 A 
ATOM      7  C   UNL     1       2.266   3.378  18.292  0.00  0.00    +0.000 A 
ATOM      8  C   UNL     1       3.132   3.687  17.237  0.00  0.00    +0.000 A 
ATOM      9  C   UNL     1       4.381   4.287  17.477  0.00  0.00    +0.000 A 
ATOM     10  C   UNL     1       5.246   4.645  16.427  0.00  0.00    +0.000 A 
ENDROOT
BRANCH   1  12
ATOM     11  C   UNL     1       6.935   4.825  14.386  0.00  0.00    +0.000 C 
ATOM     12  O   UNL     1       7.193   5.591  15.558  0.00  0.00    +0.000 OA
ENDBRANCH   1  12
BRANCH   6  13
ATOM     13  C   UNL     1       1.762   3.402  20.776  0.00  0.00    +0.000 C 
ATOM     14  O   UNL     1       2.170   3.400  21.925  0.00  0.00    +0.000 OA
BRANCH  13  15
ATOM     15  O   UNL     1       0.476   3.148  20.459  0.00  0.00    +0.000 OA
ATOM     16  H   UNL     1       0.092   3.716  19.767  0.00  0.00    +0.000 HD
ENDBRANCH  13  15
ENDBRANCH   6  13
TORSDOF 3
ENDMDL
MODEL 7
REMARK VINA RESULT:      -6.5      1.048      5.975
REMARK  Name = 
REMARK  4 active torsions:
REMARK  status: ('A' for Active; 'I' for Inactive)
REMARK    1  A    between atoms: C_1  and  O_2
REMARK    2  A    between atoms: O_2  and  C_3
REMARK    3  A    between atoms: C_8  and  C_9
REMARK    4  A    between atoms: C_9  and  O_11
REMARK                            x       y       z     vdW  Elec       q    Type
REMARK                         _______ _______ _______ _____ _____    ______ ____
ROOT
ATOM      1  C   UNL     1       5.779   5.640  16.012  0.00  0.00    +0.000 A 
ATOM      2  C   UNL     1       5.011   6.648  16.590  0.00  0.00    +0.000 A 
ATOM      3  C   UNL     1       3.905   6.321  17.382  0.00  0.00    +0.000 A 
ATOM      4  C   UNL     1       3.549   4.983  17.607  0.00  0.00    +0.000 A 
ATOM      5  C   UNL     1       2.418   4.649  18.368  0.00  0.00    +0.000 A 
ATOM      6  C   UNL     1       2.059   3.311  18.579  0.00  0.00    +0.000 A 
ATOM      7  C   UNL     1       2.839   2.291  18.021  0.00  0.00    +0.000 A 
ATOM      8  C   UNL     1       3.973   2.617  17.269  0.00  0.00    +0.000 A 
ATOM      9  C   UNL     1       4.335   3.956  17.043  0.00  0.00    +0.000 A 
ATOM     10  C   UNL     1       5.446   4.302  16.253  0.00  0.00    +0.000 A 
ENDROOT
BRANCH   1  12
ATOM     11  C   UNL     1       7.083   4.843  14.191  0.00  0.00    +0.000 C 
ATOM     12  O   UNL     1       6.862   5.826  15.197  0.00  0.00    +0.000 OA
ENDBRANCH   1  12
BRANCH   6  13
ATOM     13  C   UNL     1       0.808   3.046  19.338  0.00  0.00    +0.000 C 
ATOM     14  O   UNL     1       0.032   2.156  19.035  0.00  0.00    +0.000 OA
BRANCH  13  15
ATOM     15  O   UNL     1       0.584   3.891  20.365  0.00  0.00    +0.000 OA
ATOM     16  H   UNL     1       1.363   4.381  20.687  0.00  0.00    +0.000 HD
ENDBRANCH  13  15
ENDBRANCH   6  13
TORSDOF 3
ENDMDL
MODEL 8
REMARK VINA RESULT:      -6.5      0.611      1.009
REMARK  Name = 
REMARK  4 active torsions:
REMARK  status: ('A' for Active; 'I' for Inactive)
REMARK    1  A    between atoms: C_1  and  O_2
REMARK    2  A    between atoms: O_2  and  C_3
REMARK    3  A    between atoms: C_8  and  C_9
REMARK    4  A    between atoms: C_9  and  O_11
REMARK                            x       y       z     vdW  Elec       q    Type
REMARK                         _______ _______ _______ _____ _____    ______ ____
ROOT
ATOM      1  C   UNL     1       1.972   2.964  19.168  0.00  0.00    +0.000 A 
ATOM      2  C   UNL     1       2.607   1.865  18.593  0.00  0.00    +0.000 A 
ATOM      3  C   UNL     1       3.634   2.055  17.662  0.00  0.00    +0.000 A 
ATOM      4  C   UNL     1       4.042   3.346  17.291  0.00  0.00    +0.000 A 
ATOM      5  C   UNL     1       5.044   3.544  16.329  0.00  0.00    +0.000 A 
ATOM      6  C   UNL     1       5.438   4.834  15.953  0.00  0.00    +0.000 A 
ATOM      7  C   UNL     1       4.823   5.944  16.543  0.00  0.00    +0.000 A 
ATOM      8  C   UNL     1       3.828   5.754  17.509  0.00  0.00    +0.000 A 
ATOM      9  C   UNL     1       3.419   4.463  17.885  0.00  0.00    +0.000 A 
ATOM     10  C   UNL     1       2.391   4.254  18.822  0.00  0.00    +0.000 A 
ENDROOT
BRANCH   1  12
ATOM     11  C   UNL     1       1.288   2.902  21.443  0.00  0.00    +0.000 C 
ATOM     12  O   UNL     1       0.939   2.914  20.064  0.00  0.00    +0.000 OA
ENDBRANCH   1  12
BRANCH   6  13
ATOM     13  C   UNL     1       6.458   4.956  14.877  0.00  0.00    +0.000 C 
ATOM     14  O   UNL     1       6.381   4.341  13.827  0.00  0.00    +0.000 OA
BRANCH  13  15
ATOM     15  O   UNL     1       7.491   5.771  15.171  0.00  0.00    +0.000 OA
ATOM     16  H   UNL     1       8.372   5.355  15.166  0.00  0.00    +0.000 HD
ENDBRANCH  13  15
ENDBRANCH   6  13
TORSDOF 3
ENDMDL
MODEL 9
REMARK VINA RESULT:      -6.5      1.612      1.973
REMARK  Name = 
REMARK  4 active torsions:
REMARK  status: ('A' for Active; 'I' for Inactive)
REMARK    1  A    between atoms: C_1  and  O_2
REMARK    2  A    between atoms: O_2  and  C_3
REMARK    3  A    between atoms: C_8  and  C_9
REMARK    4  A    between atoms: C_9  and  O_11
REMARK                            x       y       z     vdW  Elec       q    Type
REMARK                         _______ _______ _______ _____ _____    ______ ____
ROOT
ATOM      1  C   UNL     1       2.061   3.020  19.356  0.00  0.00    +0.000 A 
ATOM      2  C   UNL     1       1.830   2.988  17.983  0.00  0.00    +0.000 A 
ATOM      3  C   UNL     1       2.790   3.490  17.098  0.00  0.00    +0.000 A 
ATOM      4  C   UNL     1       3.994   4.032  17.571  0.00  0.00    +0.000 A 
ATOM      5  C   UNL     1       4.944   4.572  16.691  0.00  0.00    +0.000 A 
ATOM      6  C   UNL     1       6.140   5.124  17.170  0.00  0.00    +0.000 A 
ATOM      7  C   UNL     1       6.391   5.138  18.547  0.00  0.00    +0.000 A 
ATOM      8  C   UNL     1       5.452   4.593  19.430  0.00  0.00    +0.000 A 
ATOM      9  C   UNL     1       4.245   4.047  18.960  0.00  0.00    +0.000 A 
ATOM     10  C   UNL     1       3.271   3.534  19.835  0.00  0.00    +0.000 A 
ENDROOT
BRANCH   1  12
ATOM     11  C   UNL     1       1.613   2.751  21.676  0.00  0.00    +0.000 C 
ATOM     12  O   UNL     1       1.195   2.590  20.325  0.00  0.00    +0.000 OA
ENDBRANCH   1  12
BRANCH   6  13
ATOM     13  C   UNL     1       7.061   5.738  16.177  0.00  0.00    +0.000 C 
ATOM     14  O   UNL     1       7.313   5.215  15.105  0.00  0.00    +0.000 OA
BRANCH  13  15
ATOM     15  O   UNL     1       7.621   6.899  16.571  0.00  0.00    +0.000 OA
ATOM     16  H   UNL     1       8.254   7.297  15.946  0.00  0.00    +0.000 HD
ENDBRANCH  13  15
ENDBRANCH   6  13
TORSDOF 3
ENDMDL
