MODEL 1
REMARK VINA RESULT:      -7.6      0.000      0.000
REMARK  Name = 
REMARK  7 active torsions:
REMARK  status: ('A' for Active; 'I' for Inactive)
REMARK    1  A    between atoms: C_1  and  O_2
REMARK    2  A    between atoms: O_2  and  C_3
REMARK    3  A    between atoms: C_6  and  C_7
REMARK    4  A    between atoms: C_10  and  C_11
REMARK    5  A    between atoms: C_12  and  C_13
REMARK    6  A    between atoms: N_14  and  C_15
REMARK    7  A    between atoms: N_16  and  C_17
REMARK                            x       y       z     vdW  Elec       q    Type
REMARK                         _______ _______ _______ _____ _____    ______ ____
ROOT
ATOM      1  C   UNL     1       0.223  10.645  19.465  0.00  0.00    +0.000 A 
ATOM      2  C   UNL     1      -1.075  10.885  19.184  0.00  0.00    +0.000 A 
ATOM      3  C   UNL     1      -1.901  10.327  18.066  0.00  0.00    +0.000 C 
ATOM      4  N   UNL     1      -1.647  11.751  20.121  0.00  0.00    +0.000 N 
ATOM      5  C   UNL     1      -2.826  12.586  19.924  0.00  0.00    +0.000 C 
ATOM      6  N   UNL     1      -0.609  12.175  20.978  0.00  0.00    +0.000 N 
ATOM      7  C   UNL     1       0.582  11.577  20.565  0.00  0.00    +0.000 A 
ATOM      8  O   UNL     1       1.713  11.756  20.995  0.00  0.00    +0.000 OA
ENDROOT
BRANCH   6   9
ATOM      9  C   UNL     1      -0.721  13.304  21.807  0.00  0.00    +0.000 A 
ATOM     10  C   UNL     1      -0.245  14.550  21.393  0.00  0.00    +0.000 A 
ATOM     11  C   UNL     1      -0.361  15.658  22.237  0.00  0.00    +0.000 A 
ATOM     12  C   UNL     1      -0.906  15.509  23.513  0.00  0.00    +0.000 A 
ATOM     13  C   UNL     1      -1.357  14.259  23.937  0.00  0.00    +0.000 A 
ATOM     14  C   UNL     1      -1.283  13.162  23.078  0.00  0.00    +0.000 A 
ENDBRANCH   6   9
BRANCH   1  18
ATOM     15  C   UNL     1       2.283   7.955  18.480  0.00  0.00    +0.000 A 
ATOM     16  N   UNL     1       2.531   8.774  17.483  0.00  0.00    +0.000 NA
ATOM     17  N   UNL     1       1.791   9.910  17.722  0.00  0.00    +0.000 NA
ATOM     18  C   UNL     1       1.127   9.746  18.860  0.00  0.00    +0.000 A 
ATOM     19  O   UNL     1       1.412   8.492  19.383  0.00  0.00    +0.000 OA
BRANCH  15  23
ATOM     20  C   UNL     1       3.737   3.977  19.133  0.00  0.00    +0.000 A 
ATOM     21  C   UNL     1       4.078   4.687  17.981  0.00  0.00    +0.000 A 
ATOM     22  C   UNL     1       3.614   5.992  17.785  0.00  0.00    +0.000 A 
ATOM     23  C   UNL     1       2.783   6.609  18.732  0.00  0.00    +0.000 A 
ATOM     24  C   UNL     1       2.446   5.887  19.887  0.00  0.00    +0.000 A 
ATOM     25  C   UNL     1       2.917   4.580  20.085  0.00  0.00    +0.000 A 
BRANCH  20  27
ATOM     26  C   UNL     1       3.516   1.727  18.429  0.00  0.00    +0.000 C 
ATOM     27  O   UNL     1       4.222   2.701  19.189  0.00  0.00    +0.000 OA
ENDBRANCH  20  27
ENDBRANCH  15  23
ENDBRANCH   1  18
TORSDOF 4
ENDMDL
MODEL 2
REMARK VINA RESULT:      -7.5      0.676      1.196
REMARK  Name = 
REMARK  7 active torsions:
REMARK  status: ('A' for Active; 'I' for Inactive)
REMARK    1  A    between atoms: C_1  and  O_2
REMARK    2  A    between atoms: O_2  and  C_3
REMARK    3  A    between atoms: C_6  and  C_7
REMARK    4  A    between atoms: C_10  and  C_11
REMARK    5  A    between atoms: C_12  and  C_13
REMARK    6  A    between atoms: N_14  and  C_15
REMARK    7  A    between atoms: N_16  and  C_17
REMARK                            x       y       z     vdW  Elec       q    Type
REMARK                         _______ _______ _______ _____ _____    ______ ____
ROOT
ATOM      1  C   UNL     1       0.134  10.412  19.311  0.00  0.00    +0.000 A 
ATOM      2  C   UNL     1      -1.082  10.754  18.836  0.00  0.00    +0.000 A 
ATOM      3  C   UNL     1      -1.670  10.458  17.491  0.00  0.00    +0.000 C 
ATOM      4  N   UNL     1      -1.829  11.443  19.797  0.00  0.00    +0.000 N 
ATOM      5  C   UNL     1      -2.944  12.347  19.545  0.00  0.00    +0.000 C 
ATOM      6  N   UNL     1      -0.981  11.650  20.906  0.00  0.00    +0.000 N 
ATOM      7  C   UNL     1       0.267  11.096  20.623  0.00  0.00    +0.000 A 
ATOM      8  O   UNL     1       1.291  11.142  21.291  0.00  0.00    +0.000 OA
ENDROOT
BRANCH   6   9
ATOM      9  C   UNL     1      -1.254  12.599  21.906  0.00  0.00    +0.000 A 
ATOM     10  C   UNL     1      -0.563  13.811  21.955  0.00  0.00    +0.000 A 
ATOM     11  C   UNL     1      -0.846  14.737  22.962  0.00  0.00    +0.000 A 
ATOM     12  C   UNL     1      -1.785  14.431  23.948  0.00  0.00    +0.000 A 
ATOM     13  C   UNL     1      -2.457  13.209  23.915  0.00  0.00    +0.000 A 
ATOM     14  C   UNL     1      -2.207  12.303  22.884  0.00  0.00    +0.000 A 
ENDBRANCH   6   9
BRANCH   1  18
ATOM     15  C   UNL     1       2.483   7.951  18.374  0.00  0.00    +0.000 A 
ATOM     16  N   UNL     1       2.666   8.793  17.382  0.00  0.00    +0.000 NA
ATOM     17  N   UNL     1       1.807   9.845  17.604  0.00  0.00    +0.000 NA
ATOM     18  C   UNL     1       1.139   9.612  18.727  0.00  0.00    +0.000 A 
ATOM     19  O   UNL     1       1.540   8.393  19.257  0.00  0.00    +0.000 OA
BRANCH  15  23
ATOM     20  C   UNL     1       4.336   4.186  19.240  0.00  0.00    +0.000 A 
ATOM     21  C   UNL     1       3.290   4.669  20.025  0.00  0.00    +0.000 A 
ATOM     22  C   UNL     1       2.678   5.891  19.724  0.00  0.00    +0.000 A 
ATOM     23  C   UNL     1       3.114   6.663  18.638  0.00  0.00    +0.000 A 
ATOM     24  C   UNL     1       4.167   6.169  17.854  0.00  0.00    +0.000 A 
ATOM     25  C   UNL     1       4.775   4.940  18.153  0.00  0.00    +0.000 A 
BRANCH  20  27
ATOM     26  C   UNL     1       4.082   1.839  19.431  0.00  0.00    +0.000 C 
ATOM     27  O   UNL     1       4.872   3.001  19.659  0.00  0.00    +0.000 OA
ENDBRANCH  20  27
ENDBRANCH  15  23
ENDBRANCH   1  18
TORSDOF 4
ENDMDL
MODEL 3
REMARK VINA RESULT:      -7.4      2.731      9.454
REMARK  Name = 
REMARK  7 active torsions:
REMARK  status: ('A' for Active; 'I' for Inactive)
REMARK    1  A    between atoms: C_1  and  O_2
REMARK    2  A    between atoms: O_2  and  C_3
REMARK    3  A    between atoms: C_6  and  C_7
REMARK    4  A    between atoms: C_10  and  C_11
REMARK    5  A    between atoms: C_12  and  C_13
REMARK    6  A    between atoms: N_14  and  C_15
REMARK    7  A    between atoms: N_16  and  C_17
REMARK                            x       y       z     vdW  Elec       q    Type
REMARK                         _______ _______ _______ _____ _____    ______ ____
ROOT
ATOM      1  C   UNL     1       2.607   6.487  19.441  0.00  0.00    +0.000 A 
ATOM      2  C   UNL     1       2.696   5.208  19.863  0.00  0.00    +0.000 A 
ATOM      3  C   UNL     1       2.105   4.594  21.094  0.00  0.00    +0.000 C 
ATOM      4  N   UNL     1       3.426   4.425  18.963  0.00  0.00    +0.000 N 
ATOM      5  C   UNL     1       4.115   3.175  19.261  0.00  0.00    +0.000 C 
ATOM      6  N   UNL     1       3.927   5.296  17.971  0.00  0.00    +0.000 N 
ATOM      7  C   UNL     1       3.509   6.594  18.265  0.00  0.00    +0.000 A 
ATOM      8  O   UNL     1       3.805   7.636  17.698  0.00  0.00    +0.000 OA
ENDROOT
BRANCH   6   9
ATOM      9  C   UNL     1       4.981   4.943  17.112  0.00  0.00    +0.000 A 
ATOM     10  C   UNL     1       6.312   5.123  17.496  0.00  0.00    +0.000 A 
ATOM     11  C   UNL     1       7.345   4.772  16.623  0.00  0.00    +0.000 A 
ATOM     12  C   UNL     1       7.047   4.288  15.348  0.00  0.00    +0.000 A 
ATOM     13  C   UNL     1       5.718   4.134  14.954  0.00  0.00    +0.000 A 
ATOM     14  C   UNL     1       4.686   4.442  15.842  0.00  0.00    +0.000 A 
ENDBRANCH   6   9
BRANCH   1  18
ATOM     15  C   UNL     1       0.888   9.488  20.138  0.00  0.00    +0.000 A 
ATOM     16  N   UNL     1       0.598   8.830  21.237  0.00  0.00    +0.000 NA
ATOM     17  N   UNL     1       1.215   7.605  21.129  0.00  0.00    +0.000 NA
ATOM     18  C   UNL     1       1.867   7.564  19.973  0.00  0.00    +0.000 A 
ATOM     19  O   UNL     1       1.678   8.761  19.295  0.00  0.00    +0.000 OA
BRANCH  15  23
ATOM     20  C   UNL     1      -0.207  13.447  18.915  0.00  0.00    +0.000 A 
ATOM     21  C   UNL     1       1.053  12.927  18.622  0.00  0.00    +0.000 A 
ATOM     22  C   UNL     1       1.396  11.627  19.009  0.00  0.00    +0.000 A 
ATOM     23  C   UNL     1       0.487  10.825  19.714  0.00  0.00    +0.000 A 
ATOM     24  C   UNL     1      -0.778  11.356  20.004  0.00  0.00    +0.000 A 
ATOM     25  C   UNL     1      -1.123  12.658  19.610  0.00  0.00    +0.000 A 
BRANCH  20  27
ATOM     26  C   UNL     1       0.617  15.666  18.860  0.00  0.00    +0.000 C 
ATOM     27  O   UNL     1      -0.406  14.738  18.516  0.00  0.00    +0.000 OA
ENDBRANCH  20  27
ENDBRANCH  15  23
ENDBRANCH   1  18
TORSDOF 4
ENDMDL
MODEL 4
REMARK VINA RESULT:      -7.4      1.418      2.262
REMARK  Name = 
REMARK  7 active torsions:
REMARK  status: ('A' for Active; 'I' for Inactive)
REMARK    1  A    between atoms: C_1  and  O_2
REMARK    2  A    between atoms: O_2  and  C_3
REMARK    3  A    between atoms: C_6  and  C_7
REMARK    4  A    between atoms: C_10  and  C_11
REMARK    5  A    between atoms: C_12  and  C_13
REMARK    6  A    between atoms: N_14  and  C_15
REMARK    7  A    between atoms: N_16  and  C_17
REMARK                            x       y       z     vdW  Elec       q    Type
REMARK                         _______ _______ _______ _____ _____    ______ ____
ROOT
ATOM      1  C   UNL     1       0.754  10.817  19.316  0.00  0.00    +0.000 A 
ATOM      2  C   UNL     1       1.045  12.133  19.376  0.00  0.00    +0.000 A 
ATOM      3  C   UNL     1       2.289  12.830  18.918  0.00  0.00    +0.000 C 
ATOM      4  N   UNL     1      -0.014  12.865  19.921  0.00  0.00    +0.000 N 
ATOM      5  C   UNL     1       0.072  14.173  20.558  0.00  0.00    +0.000 C 
ATOM      6  N   UNL     1      -0.987  11.931  20.340  0.00  0.00    +0.000 N 
ATOM      7  C   UNL     1      -0.523  10.647  20.055  0.00  0.00    +0.000 A 
ATOM      8  O   UNL     1      -1.034   9.572  20.340  0.00  0.00    +0.000 OA
ENDROOT
BRANCH   6   9
ATOM      9  C   UNL     1      -2.015  12.256  21.240  0.00  0.00    +0.000 A 
ATOM     10  C   UNL     1      -1.864  12.041  22.612  0.00  0.00    +0.000 A 
ATOM     11  C   UNL     1      -2.902  12.365  23.489  0.00  0.00    +0.000 A 
ATOM     12  C   UNL     1      -4.109  12.859  22.991  0.00  0.00    +0.000 A 
ATOM     13  C   UNL     1      -4.270  13.049  21.618  0.00  0.00    +0.000 A 
ATOM     14  C   UNL     1      -3.218  12.767  20.746  0.00  0.00    +0.000 A 
ENDBRANCH   6   9
BRANCH   1  18
ATOM     15  C   UNL     1       2.373   7.806  18.442  0.00  0.00    +0.000 A 
ATOM     16  N   UNL     1       2.608   8.488  17.343  0.00  0.00    +0.000 NA
ATOM     17  N   UNL     1       2.035   9.725  17.526  0.00  0.00    +0.000 NA
ATOM     18  C   UNL     1       1.479   9.757  18.731  0.00  0.00    +0.000 A 
ATOM     19  O   UNL     1       1.669   8.532  19.358  0.00  0.00    +0.000 OA
BRANCH  15  23
ATOM     20  C   UNL     1       3.420   3.758  19.380  0.00  0.00    +0.000 A 
ATOM     21  C   UNL     1       3.801   4.336  18.170  0.00  0.00    +0.000 A 
ATOM     22  C   UNL     1       3.471   5.664  17.879  0.00  0.00    +0.000 A 
ATOM     23  C   UNL     1       2.736   6.437  18.790  0.00  0.00    +0.000 A 
ATOM     24  C   UNL     1       2.357   5.847  20.005  0.00  0.00    +0.000 A 
ATOM     25  C   UNL     1       2.695   4.516  20.297  0.00  0.00    +0.000 A 
BRANCH  20  27
ATOM     26  C   UNL     1       3.483   1.591  18.427  0.00  0.00    +0.000 C 
ATOM     27  O   UNL     1       3.771   2.446  19.528  0.00  0.00    +0.000 OA
ENDBRANCH  20  27
ENDBRANCH  15  23
ENDBRANCH   1  18
TORSDOF 4
ENDMDL
MODEL 5
REMARK VINA RESULT:      -7.4      1.906      2.384
REMARK  Name = 
REMARK  7 active torsions:
REMARK  status: ('A' for Active; 'I' for Inactive)
REMARK    1  A    between atoms: C_1  and  O_2
REMARK    2  A    between atoms: O_2  and  C_3
REMARK    3  A    between atoms: C_6  and  C_7
REMARK    4  A    between atoms: C_10  and  C_11
REMARK    5  A    between atoms: C_12  and  C_13
REMARK    6  A    between atoms: N_14  and  C_15
REMARK    7  A    between atoms: N_16  and  C_17
REMARK                            x       y       z     vdW  Elec       q    Type
REMARK                         _______ _______ _______ _____ _____    ______ ____
ROOT
ATOM      1  C   UNL     1       0.522   9.611  20.059  0.00  0.00    +0.000 A 
ATOM      2  C   UNL     1      -0.313  10.225  19.195  0.00  0.00    +0.000 A 
ATOM      3  C   UNL     1      -0.631   9.844  17.782  0.00  0.00    +0.000 C 
ATOM      4  N   UNL     1      -0.936  11.329  19.786  0.00  0.00    +0.000 N 
ATOM      5  C   UNL     1      -1.514  12.474  19.092  0.00  0.00    +0.000 C 
ATOM      6  N   UNL     1      -0.365  11.487  21.067  0.00  0.00    +0.000 N 
ATOM      7  C   UNL     1       0.596  10.493  21.253  0.00  0.00    +0.000 A 
ATOM      8  O   UNL     1       1.366  10.342  22.192  0.00  0.00    +0.000 OA
ENDROOT
BRANCH   6   9
ATOM      9  C   UNL     1      -0.474  12.676  21.807  0.00  0.00    +0.000 A 
ATOM     10  C   UNL     1       0.388  13.750  21.575  0.00  0.00    +0.000 A 
ATOM     11  C   UNL     1       0.265  14.921  22.328  0.00  0.00    +0.000 A 
ATOM     12  C   UNL     1      -0.687  14.999  23.346  0.00  0.00    +0.000 A 
ATOM     13  C   UNL     1      -1.530  13.917  23.597  0.00  0.00    +0.000 A 
ATOM     14  C   UNL     1      -1.438  12.764  22.816  0.00  0.00    +0.000 A 
ENDBRANCH   6   9
BRANCH   1  18
ATOM     15  C   UNL     1       2.523   6.877  19.074  0.00  0.00    +0.000 A 
ATOM     16  N   UNL     1       2.203   6.468  20.281  0.00  0.00    +0.000 NA
ATOM     17  N   UNL     1       1.394   7.443  20.818  0.00  0.00    +0.000 NA
ATOM     18  C   UNL     1       1.242   8.406  19.917  0.00  0.00    +0.000 A 
ATOM     19  O   UNL     1       1.961   8.084  18.773  0.00  0.00    +0.000 OA
BRANCH  15  23
ATOM     20  C   UNL     1       5.024   4.962  16.169  0.00  0.00    +0.000 A 
ATOM     21  C   UNL     1       4.128   4.225  16.943  0.00  0.00    +0.000 A 
ATOM     22  C   UNL     1       3.302   4.861  17.876  0.00  0.00    +0.000 A 
ATOM     23  C   UNL     1       3.369   6.249  18.065  0.00  0.00    +0.000 A 
ATOM     24  C   UNL     1       4.273   6.981  17.282  0.00  0.00    +0.000 A 
ATOM     25  C   UNL     1       5.096   6.343  16.342  0.00  0.00    +0.000 A 
BRANCH  20  27
ATOM     26  C   UNL     1       7.013   4.825  14.890  0.00  0.00    +0.000 C 
ATOM     27  O   UNL     1       5.799   4.221  15.321  0.00  0.00    +0.000 OA
ENDBRANCH  20  27
ENDBRANCH  15  23
ENDBRANCH   1  18
TORSDOF 4
ENDMDL
MODEL 6
REMARK VINA RESULT:      -7.4      2.698      9.482
REMARK  Name = 
REMARK  7 active torsions:
REMARK  status: ('A' for Active; 'I' for Inactive)
REMARK    1  A    between atoms: C_1  and  O_2
REMARK    2  A    between atoms: O_2  and  C_3
REMARK    3  A    between atoms: C_6  and  C_7
REMARK    4  A    between atoms: C_10  and  C_11
REMARK    5  A    between atoms: C_12  and  C_13
REMARK    6  A    between atoms: N_14  and  C_15
REMARK    7  A    between atoms: N_16  and  C_17
REMARK                            x       y       z     vdW  Elec       q    Type
REMARK                         _______ _______ _______ _____ _____    ______ ____
ROOT
ATOM      1  C   UNL     1       2.589   6.513  19.476  0.00  0.00    +0.000 A 
ATOM      2  C   UNL     1       2.685   5.239  19.911  0.00  0.00    +0.000 A 
ATOM      3  C   UNL     1       2.100   4.636  21.151  0.00  0.00    +0.000 C 
ATOM      4  N   UNL     1       3.414   4.449  19.018  0.00  0.00    +0.000 N 
ATOM      5  C   UNL     1       4.109   3.205  19.327  0.00  0.00    +0.000 C 
ATOM      6  N   UNL     1       3.908   5.311  18.015  0.00  0.00    +0.000 N 
ATOM      7  C   UNL     1       3.487   6.610  18.296  0.00  0.00    +0.000 A 
ATOM      8  O   UNL     1       3.776   7.648  17.716  0.00  0.00    +0.000 OA
ENDROOT
BRANCH   6   9
ATOM      9  C   UNL     1       4.961   4.953  17.156  0.00  0.00    +0.000 A 
ATOM     10  C   UNL     1       4.707   4.392  15.903  0.00  0.00    +0.000 A 
ATOM     11  C   UNL     1       5.770   4.038  15.067  0.00  0.00    +0.000 A 
ATOM     12  C   UNL     1       7.085   4.199  15.504  0.00  0.00    +0.000 A 
ATOM     13  C   UNL     1       7.339   4.735  16.767  0.00  0.00    +0.000 A 
ATOM     14  C   UNL     1       6.280   5.130  17.584  0.00  0.00    +0.000 A 
ENDBRANCH   6   9
BRANCH   1  18
ATOM     15  C   UNL     1       0.881   9.524  20.156  0.00  0.00    +0.000 A 
ATOM     16  N   UNL     1       0.561   8.861  21.244  0.00  0.00    +0.000 NA
ATOM     17  N   UNL     1       1.170   7.632  21.141  0.00  0.00    +0.000 NA
ATOM     18  C   UNL     1       1.847   7.593  19.999  0.00  0.00    +0.000 A 
ATOM     19  O   UNL     1       1.683   8.796  19.325  0.00  0.00    +0.000 OA
BRANCH  15  23
ATOM     20  C   UNL     1      -0.231  13.498  18.997  0.00  0.00    +0.000 A 
ATOM     21  C   UNL     1       0.782  13.279  19.931  0.00  0.00    +0.000 A 
ATOM     22  C   UNL     1       1.151  11.977  20.289  0.00  0.00    +0.000 A 
ATOM     23  C   UNL     1       0.501  10.867  19.732  0.00  0.00    +0.000 A 
ATOM     24  C   UNL     1      -0.516  11.097  18.794  0.00  0.00    +0.000 A 
ATOM     25  C   UNL     1      -0.881  12.403  18.430  0.00  0.00    +0.000 A 
BRANCH  20  27
ATOM     26  C   UNL     1       0.565  15.724  18.864  0.00  0.00    +0.000 C 
ATOM     27  O   UNL     1      -0.522  14.811  18.759  0.00  0.00    +0.000 OA
ENDBRANCH  20  27
ENDBRANCH  15  23
ENDBRANCH   1  18
TORSDOF 4
ENDMDL
MODEL 7
REMARK VINA RESULT:      -7.3      1.951      2.514
REMARK  Name = 
REMARK  7 active torsions:
REMARK  status: ('A' for Active; 'I' for Inactive)
REMARK    1  A    between atoms: C_1  and  O_2
REMARK    2  A    between atoms: O_2  and  C_3
REMARK    3  A    between atoms: C_6  and  C_7
REMARK    4  A    between atoms: C_10  and  C_11
REMARK    5  A    between atoms: C_12  and  C_13
REMARK    6  A    between atoms: N_14  and  C_15
REMARK    7  A    between atoms: N_16  and  C_17
REMARK                            x       y       z     vdW  Elec       q    Type
REMARK                         _______ _______ _______ _____ _____    ______ ____
ROOT
ATOM      1  C   UNL     1       0.536   9.589  20.107  0.00  0.00    +0.000 A 
ATOM      2  C   UNL     1      -0.289  10.220  19.246  0.00  0.00    +0.000 A 
ATOM      3  C   UNL     1      -0.602   9.858  17.826  0.00  0.00    +0.000 C 
ATOM      4  N   UNL     1      -0.906  11.322  19.846  0.00  0.00    +0.000 N 
ATOM      5  C   UNL     1      -1.471  12.479  19.163  0.00  0.00    +0.000 C 
ATOM      6  N   UNL     1      -0.341  11.459  21.132  0.00  0.00    +0.000 N 
ATOM      7  C   UNL     1       0.610  10.455  21.312  0.00  0.00    +0.000 A 
ATOM      8  O   UNL     1       1.373  10.287  22.253  0.00  0.00    +0.000 OA
ENDROOT
BRANCH   6   9
ATOM      9  C   UNL     1      -0.446  12.640  21.886  0.00  0.00    +0.000 A 
ATOM     10  C   UNL     1      -1.412  12.773  22.885  0.00  0.00    +0.000 A 
ATOM     11  C   UNL     1      -1.503  13.959  23.618  0.00  0.00    +0.000 A 
ATOM     12  C   UNL     1      -0.659  15.030  23.320  0.00  0.00    +0.000 A 
ATOM     13  C   UNL     1       0.289  14.908  22.304  0.00  0.00    +0.000 A 
ATOM     14  C   UNL     1       0.409  13.708  21.602  0.00  0.00    +0.000 A 
ENDBRANCH   6   9
BRANCH   1  18
ATOM     15  C   UNL     1       2.525   6.853  19.103  0.00  0.00    +0.000 A 
ATOM     16  N   UNL     1       2.187   6.428  20.299  0.00  0.00    +0.000 NA
ATOM     17  N   UNL     1       1.380   7.401  20.842  0.00  0.00    +0.000 NA
ATOM     18  C   UNL     1       1.247   8.380  19.955  0.00  0.00    +0.000 A 
ATOM     19  O   UNL     1       1.977   8.070  18.815  0.00  0.00    +0.000 OA
BRANCH  15  23
ATOM     20  C   UNL     1       5.007   5.098  16.082  0.00  0.00    +0.000 A 
ATOM     21  C   UNL     1       5.004   6.476  16.298  0.00  0.00    +0.000 A 
ATOM     22  C   UNL     1       4.204   7.038  17.299  0.00  0.00    +0.000 A 
ATOM     23  C   UNL     1       3.377   6.233  18.094  0.00  0.00    +0.000 A 
ATOM     24  C   UNL     1       3.387   4.848  17.870  0.00  0.00    +0.000 A 
ATOM     25  C   UNL     1       4.195   4.285  16.870  0.00  0.00    +0.000 A 
BRANCH  20  27
ATOM     26  C   UNL     1       7.205   4.798  15.254  0.00  0.00    +0.000 C 
ATOM     27  O   UNL     1       5.802   4.678  15.053  0.00  0.00    +0.000 OA
ENDBRANCH  20  27
ENDBRANCH  15  23
ENDBRANCH   1  18
TORSDOF 4
ENDMDL
MODEL 8
REMARK VINA RESULT:      -7.3      2.323      9.244
REMARK  Name = 
REMARK  7 active torsions:
REMARK  status: ('A' for Active; 'I' for Inactive)
REMARK    1  A    between atoms: C_1  and  O_2
REMARK    2  A    between atoms: O_2  and  C_3
REMARK    3  A    between atoms: C_6  and  C_7
REMARK    4  A    between atoms: C_10  and  C_11
REMARK    5  A    between atoms: C_12  and  C_13
REMARK    6  A    between atoms: N_14  and  C_15
REMARK    7  A    between atoms: N_16  and  C_17
REMARK                            x       y       z     vdW  Elec       q    Type
REMARK                         _______ _______ _______ _____ _____    ______ ____
ROOT
ATOM      1  C   UNL     1       2.320   7.460  18.753  0.00  0.00    +0.000 A 
ATOM      2  C   UNL     1       2.345   6.343  19.509  0.00  0.00    +0.000 A 
ATOM      3  C   UNL     1       1.614   6.071  20.788  0.00  0.00    +0.000 C 
ATOM      4  N   UNL     1       3.158   5.359  18.937  0.00  0.00    +0.000 N 
ATOM      5  C   UNL     1       3.793   4.245  19.632  0.00  0.00    +0.000 C 
ATOM      6  N   UNL     1       3.776   5.940  17.809  0.00  0.00    +0.000 N 
ATOM      7  C   UNL     1       3.347   7.263  17.698  0.00  0.00    +0.000 A 
ATOM      8  O   UNL     1       3.717   8.120  16.907  0.00  0.00    +0.000 OA
ENDROOT
BRANCH   6   9
ATOM      9  C   UNL     1       4.913   5.388  17.196  0.00  0.00    +0.000 A 
ATOM     10  C   UNL     1       4.791   4.452  16.167  0.00  0.00    +0.000 A 
ATOM     11  C   UNL     1       5.936   3.910  15.575  0.00  0.00    +0.000 A 
ATOM     12  C   UNL     1       7.200   4.267  16.046  0.00  0.00    +0.000 A 
ATOM     13  C   UNL     1       7.322   5.181  17.092  0.00  0.00    +0.000 A 
ATOM     14  C   UNL     1       6.181   5.756  17.653  0.00  0.00    +0.000 A 
ENDBRANCH   6   9
BRANCH   1  18
ATOM     15  C   UNL     1       0.310  10.169  19.787  0.00  0.00    +0.000 A 
ATOM     16  N   UNL     1       0.550  10.556  18.555  0.00  0.00    +0.000 NA
ATOM     17  N   UNL     1       1.338   9.579  17.990  0.00  0.00    +0.000 NA
ATOM     18  C   UNL     1       1.542   8.629  18.894  0.00  0.00    +0.000 A 
ATOM     19  O   UNL     1       0.899   8.972  20.076  0.00  0.00    +0.000 OA
BRANCH  15  23
ATOM     20  C   UNL     1      -1.912  12.174  22.855  0.00  0.00    +0.000 A 
ATOM     21  C   UNL     1      -1.878  12.670  21.552  0.00  0.00    +0.000 A 
ATOM     22  C   UNL     1      -1.165  11.998  20.552  0.00  0.00    +0.000 A 
ATOM     23  C   UNL     1      -0.457  10.823  20.841  0.00  0.00    +0.000 A 
ATOM     24  C   UNL     1      -0.497  10.332  22.155  0.00  0.00    +0.000 A 
ATOM     25  C   UNL     1      -1.217  11.003  23.155  0.00  0.00    +0.000 A 
BRANCH  20  27
ATOM     26  C   UNL     1      -3.899  12.458  24.110  0.00  0.00    +0.000 C 
ATOM     27  O   UNL     1      -2.611  12.939  23.745  0.00  0.00    +0.000 OA
ENDBRANCH  20  27
ENDBRANCH  15  23
ENDBRANCH   1  18
TORSDOF 4
ENDMDL
MODEL 9
REMARK VINA RESULT:      -7.2      2.558      9.525
REMARK  Name = 
REMARK  7 active torsions:
REMARK  status: ('A' for Active; 'I' for Inactive)
REMARK    1  A    between atoms: C_1  and  O_2
REMARK    2  A    between atoms: O_2  and  C_3
REMARK    3  A    between atoms: C_6  and  C_7
REMARK    4  A    between atoms: C_10  and  C_11
REMARK    5  A    between atoms: C_12  and  C_13
REMARK    6  A    between atoms: N_14  and  C_15
REMARK    7  A    between atoms: N_16  and  C_17
REMARK                            x       y       z     vdW  Elec       q    Type
REMARK                         _______ _______ _______ _____ _____    ______ ____
ROOT
ATOM      1  C   UNL     1       2.611   6.387  19.523  0.00  0.00    +0.000 A 
ATOM      2  C   UNL     1       2.738   5.112  19.948  0.00  0.00    +0.000 A 
ATOM      3  C   UNL     1       2.196   4.492  21.198  0.00  0.00    +0.000 C 
ATOM      4  N   UNL     1       3.457   4.339  19.030  0.00  0.00    +0.000 N 
ATOM      5  C   UNL     1       4.180   3.105  19.312  0.00  0.00    +0.000 C 
ATOM      6  N   UNL     1       3.910   5.216  18.020  0.00  0.00    +0.000 N 
ATOM      7  C   UNL     1       3.476   6.506  18.321  0.00  0.00    +0.000 A 
ATOM      8  O   UNL     1       3.733   7.552  17.741  0.00  0.00    +0.000 OA
ENDROOT
BRANCH   6   9
ATOM      9  C   UNL     1       4.946   4.880  17.131  0.00  0.00    +0.000 A 
ATOM     10  C   UNL     1       6.284   5.072  17.481  0.00  0.00    +0.000 A 
ATOM     11  C   UNL     1       7.297   4.738  16.579  0.00  0.00    +0.000 A 
ATOM     12  C   UNL     1       6.972   4.259  15.309  0.00  0.00    +0.000 A 
ATOM     13  C   UNL     1       5.634   4.092  14.949  0.00  0.00    +0.000 A 
ATOM     14  C   UNL     1       4.623   4.383  15.866  0.00  0.00    +0.000 A 
ENDBRANCH   6   9
BRANCH   1  18
ATOM     15  C   UNL     1       0.947   9.399  20.305  0.00  0.00    +0.000 A 
ATOM     16  N   UNL     1       0.534   8.671  21.318  0.00  0.00    +0.000 NA
ATOM     17  N   UNL     1       1.113   7.432  21.167  0.00  0.00    +0.000 NA
ATOM     18  C   UNL     1       1.866   7.452  20.073  0.00  0.00    +0.000 A 
ATOM     19  O   UNL     1       1.783   8.704  19.479  0.00  0.00    +0.000 OA
BRANCH  15  23
ATOM     20  C   UNL     1      -0.056  13.438  19.283  0.00  0.00    +0.000 A 
ATOM     21  C   UNL     1      -0.749  12.757  20.283  0.00  0.00    +0.000 A 
ATOM     22  C   UNL     1      -0.403  11.444  20.623  0.00  0.00    +0.000 A 
ATOM     23  C   UNL     1       0.636  10.780  19.955  0.00  0.00    +0.000 A 
ATOM     24  C   UNL     1       1.328  11.473  18.951  0.00  0.00    +0.000 A 
ATOM     25  C   UNL     1       0.983  12.792  18.615  0.00  0.00    +0.000 A 
BRANCH  20  27
ATOM     26  C   UNL     1      -1.145  15.375  20.101  0.00  0.00    +0.000 C 
ATOM     27  O   UNL     1      -0.513  14.698  19.020  0.00  0.00    +0.000 OA
ENDBRANCH  20  27
ENDBRANCH  15  23
ENDBRANCH   1  18
TORSDOF 4
ENDMDL
