MODEL 1
REMARK VINA RESULT:      -8.4      0.000      0.000
REMARK  Name = 
REMARK  4 active torsions:
REMARK  status: ('A' for Active; 'I' for Inactive)
REMARK    1  A    between atoms: C_2  and  O_3
REMARK    2  A    between atoms: C_2  and  C_4
REMARK    3  A    between atoms: C_8  and  C_9
REMARK    4  A    between atoms: C_12  and  C_13
REMARK                            x       y       z     vdW  Elec       q    Type
REMARK                         _______ _______ _______ _____ _____    ______ ____
ROOT
ATOM      1  C   UNL     1       6.184   4.712  16.005  0.00  0.00    +0.000 A 
ATOM      2  C   UNL     1       6.926   5.456  16.901  0.00  0.00    +0.000 A 
ATOM      3  S   UNL     1       6.188   5.425  18.444  0.00  0.00    +0.000 S 
ATOM      4  C   UNL     1       4.906   4.459  17.811  0.00  0.00    +0.000 A 
ATOM      5  N   UNL     1       5.039   4.137  16.537  0.00  0.00    +0.000 NA
ENDROOT
BRANCH   4   6
ATOM      6  C   UNL     1       3.797   4.015  18.674  0.00  0.00    +0.000 A 
ATOM      7  C   UNL     1       2.468   4.430  18.466  0.00  0.00    +0.000 A 
ATOM      8  C   UNL     1       1.441   3.997  19.311  0.00  0.00    +0.000 A 
ATOM      9  C   UNL     1       1.735   3.141  20.363  0.00  0.00    +0.000 A 
ATOM     10  F   UNL     1       0.751   2.733  21.175  0.00  0.00    +0.000 F 
ATOM     11  C   UNL     1       3.035   2.701  20.582  0.00  0.00    +0.000 A 
ATOM     12  C   UNL     1       4.060   3.133  19.737  0.00  0.00    +0.000 A 
ENDBRANCH   4   6
BRANCH   1  17
ATOM     13  C   UNL     1       6.110   3.506  12.442  0.00  0.00    +0.000 A 
ATOM     14  C   UNL     1       7.113   4.289  11.858  0.00  0.00    +0.000 A 
ATOM     15  C   UNL     1       7.844   5.178  12.643  0.00  0.00    +0.000 A 
ATOM     16  C   UNL     1       7.557   5.307  14.005  0.00  0.00    +0.000 A 
ATOM     17  C   UNL     1       6.531   4.556  14.596  0.00  0.00    +0.000 A 
ATOM     18  C   UNL     1       5.816   3.646  13.804  0.00  0.00    +0.000 A 
BRANCH  13  20
ATOM     19  O   UNL     1       4.206   2.841  11.180  0.00  0.00    +0.000 OA
ATOM     20  C   UNL     1       5.298   2.557  11.640  0.00  0.00    +0.000 C 
BRANCH  20  21
ATOM     21  O   UNL     1       5.867   1.343  11.494  0.00  0.00    +0.000 OA
ATOM     22  H   UNL     1       6.551   1.127  12.155  0.00  0.00    +0.000 HD
ENDBRANCH  20  21
ENDBRANCH  13  20
ENDBRANCH   1  17
TORSDOF 4
ENDMDL
MODEL 2
REMARK VINA RESULT:      -8.4      0.112      1.056
REMARK  Name = 
REMARK  4 active torsions:
REMARK  status: ('A' for Active; 'I' for Inactive)
REMARK    1  A    between atoms: C_2  and  O_3
REMARK    2  A    between atoms: C_2  and  C_4
REMARK    3  A    between atoms: C_8  and  C_9
REMARK    4  A    between atoms: C_12  and  C_13
REMARK                            x       y       z     vdW  Elec       q    Type
REMARK                         _______ _______ _______ _____ _____    ______ ____
ROOT
ATOM      1  C   UNL     1       6.268   4.705  16.044  0.00  0.00    +0.000 A 
ATOM      2  C   UNL     1       7.031   5.435  16.934  0.00  0.00    +0.000 A 
ATOM      3  S   UNL     1       6.321   5.394  18.488  0.00  0.00    +0.000 S 
ATOM      4  C   UNL     1       5.020   4.444  17.870  0.00  0.00    +0.000 A 
ATOM      5  N   UNL     1       5.129   4.133  16.591  0.00  0.00    +0.000 NA
ENDROOT
BRANCH   4   6
ATOM      6  C   UNL     1       3.924   3.999  18.749  0.00  0.00    +0.000 A 
ATOM      7  C   UNL     1       4.110   3.034  19.755  0.00  0.00    +0.000 A 
ATOM      8  C   UNL     1       3.045   2.629  20.566  0.00  0.00    +0.000 A 
ATOM      9  C   UNL     1       1.790   3.191  20.379  0.00  0.00    +0.000 A 
ATOM     10  F   UNL     1       0.769   2.797  21.152  0.00  0.00    +0.000 F 
ATOM     11  C   UNL     1       1.580   4.159  19.405  0.00  0.00    +0.000 A 
ATOM     12  C   UNL     1       2.646   4.565  18.597  0.00  0.00    +0.000 A 
ENDBRANCH   4   6
BRANCH   1  17
ATOM     13  C   UNL     1       6.127   3.527  12.473  0.00  0.00    +0.000 A 
ATOM     14  C   UNL     1       7.119   4.315  11.877  0.00  0.00    +0.000 A 
ATOM     15  C   UNL     1       7.865   5.197  12.655  0.00  0.00    +0.000 A 
ATOM     16  C   UNL     1       7.604   5.315  14.023  0.00  0.00    +0.000 A 
ATOM     17  C   UNL     1       6.588   4.560  14.628  0.00  0.00    +0.000 A 
ATOM     18  C   UNL     1       5.858   3.657  13.842  0.00  0.00    +0.000 A 
BRANCH  13  20
ATOM     19  O   UNL     1       4.204   2.877  11.233  0.00  0.00    +0.000 OA
ATOM     20  C   UNL     1       5.299   2.585  11.679  0.00  0.00    +0.000 C 
BRANCH  20  21
ATOM     21  O   UNL     1       5.858   1.368  11.525  0.00  0.00    +0.000 OA
ATOM     22  H   UNL     1       6.556   1.318  10.846  0.00  0.00    +0.000 HD
ENDBRANCH  20  21
ENDBRANCH  13  20
ENDBRANCH   1  17
TORSDOF 4
ENDMDL
MODEL 3
REMARK VINA RESULT:      -8.3      1.087      1.194
REMARK  Name = 
REMARK  4 active torsions:
REMARK  status: ('A' for Active; 'I' for Inactive)
REMARK    1  A    between atoms: C_2  and  O_3
REMARK    2  A    between atoms: C_2  and  C_4
REMARK    3  A    between atoms: C_8  and  C_9
REMARK    4  A    between atoms: C_12  and  C_13
REMARK                            x       y       z     vdW  Elec       q    Type
REMARK                         _______ _______ _______ _____ _____    ______ ____
ROOT
ATOM      1  C   UNL     1       5.190   5.256  15.802  0.00  0.00    +0.000 A 
ATOM      2  C   UNL     1       5.100   6.573  16.206  0.00  0.00    +0.000 A 
ATOM      3  S   UNL     1       4.178   6.686  17.642  0.00  0.00    +0.000 S 
ATOM      4  C   UNL     1       3.922   4.980  17.611  0.00  0.00    +0.000 A 
ATOM      5  N   UNL     1       4.525   4.353  16.618  0.00  0.00    +0.000 NA
ENDROOT
BRANCH   4   6
ATOM      6  C   UNL     1       3.125   4.316  18.659  0.00  0.00    +0.000 A 
ATOM      7  C   UNL     1       2.587   3.027  18.493  0.00  0.00    +0.000 A 
ATOM      8  C   UNL     1       1.828   2.431  19.505  0.00  0.00    +0.000 A 
ATOM      9  C   UNL     1       1.608   3.117  20.691  0.00  0.00    +0.000 A 
ATOM     10  F   UNL     1       0.875   2.547  21.656  0.00  0.00    +0.000 F 
ATOM     11  C   UNL     1       2.142   4.384  20.890  0.00  0.00    +0.000 A 
ATOM     12  C   UNL     1       2.902   4.979  19.879  0.00  0.00    +0.000 A 
ENDBRANCH   4   6
BRANCH   1  17
ATOM     13  C   UNL     1       5.916   3.501  12.553  0.00  0.00    +0.000 A 
ATOM     14  C   UNL     1       7.172   4.026  12.224  0.00  0.00    +0.000 A 
ATOM     15  C   UNL     1       7.800   4.918  13.091  0.00  0.00    +0.000 A 
ATOM     16  C   UNL     1       7.164   5.310  14.272  0.00  0.00    +0.000 A 
ATOM     17  C   UNL     1       5.890   4.821  14.598  0.00  0.00    +0.000 A 
ATOM     18  C   UNL     1       5.276   3.905  13.732  0.00  0.00    +0.000 A 
BRANCH  13  20
ATOM     19  O   UNL     1       4.133   2.816  11.137  0.00  0.00    +0.000 OA
ATOM     20  C   UNL     1       5.206   2.559  11.653  0.00  0.00    +0.000 C 
BRANCH  20  21
ATOM     21  O   UNL     1       5.844   1.382  11.486  0.00  0.00    +0.000 OA
ATOM     22  H   UNL     1       5.435   0.782  10.836  0.00  0.00    +0.000 HD
ENDBRANCH  20  21
ENDBRANCH  13  20
ENDBRANCH   1  17
TORSDOF 4
ENDMDL
MODEL 4
REMARK VINA RESULT:      -7.8      4.488      7.771
REMARK  Name = 
REMARK  4 active torsions:
REMARK  status: ('A' for Active; 'I' for Inactive)
REMARK    1  A    between atoms: C_2  and  O_3
REMARK    2  A    between atoms: C_2  and  C_4
REMARK    3  A    between atoms: C_8  and  C_9
REMARK    4  A    between atoms: C_12  and  C_13
REMARK                            x       y       z     vdW  Elec       q    Type
REMARK                         _______ _______ _______ _____ _____    ______ ____
ROOT
ATOM      1  C   UNL     1       5.062   5.212  18.213  0.00  0.00    +0.000 A 
ATOM      2  C   UNL     1       6.334   5.106  18.741  0.00  0.00    +0.000 A 
ATOM      3  S   UNL     1       7.468   4.827  17.492  0.00  0.00    +0.000 S 
ATOM      4  C   UNL     1       6.190   4.821  16.333  0.00  0.00    +0.000 A 
ATOM      5  N   UNL     1       4.993   5.059  16.836  0.00  0.00    +0.000 NA
ENDROOT
BRANCH   4   6
ATOM      6  C   UNL     1       6.469   4.609  14.901  0.00  0.00    +0.000 A 
ATOM      7  C   UNL     1       5.699   3.741  14.104  0.00  0.00    +0.000 A 
ATOM      8  C   UNL     1       5.998   3.556  12.751  0.00  0.00    +0.000 A 
ATOM      9  C   UNL     1       7.063   4.242  12.184  0.00  0.00    +0.000 A 
ATOM     10  F   UNL     1       7.351   4.059  10.889  0.00  0.00    +0.000 F 
ATOM     11  C   UNL     1       7.830   5.118  12.942  0.00  0.00    +0.000 A 
ATOM     12  C   UNL     1       7.529   5.305  14.294  0.00  0.00    +0.000 A 
ENDBRANCH   4   6
BRANCH   1  17
ATOM     13  C   UNL     1       2.209   4.565  20.579  0.00  0.00    +0.000 A 
ATOM     14  C   UNL     1       1.606   5.827  20.645  0.00  0.00    +0.000 A 
ATOM     15  C   UNL     1       2.107   6.876  19.877  0.00  0.00    +0.000 A 
ATOM     16  C   UNL     1       3.227   6.676  19.065  0.00  0.00    +0.000 A 
ATOM     17  C   UNL     1       3.864   5.427  19.017  0.00  0.00    +0.000 A 
ATOM     18  C   UNL     1       3.339   4.370  19.775  0.00  0.00    +0.000 A 
BRANCH  13  20
ATOM     19  O   UNL     1       2.290   3.023  22.388  0.00  0.00    +0.000 OA
ATOM     20  C   UNL     1       1.717   3.424  21.391  0.00  0.00    +0.000 C 
BRANCH  20  21
ATOM     21  O   UNL     1       0.596   2.855  20.903  0.00  0.00    +0.000 OA
ATOM     22  H   UNL     1       0.460   2.968  19.945  0.00  0.00    +0.000 HD
ENDBRANCH  20  21
ENDBRANCH  13  20
ENDBRANCH   1  17
TORSDOF 4
ENDMDL
MODEL 5
REMARK VINA RESULT:      -7.8      2.255      2.572
REMARK  Name = 
REMARK  4 active torsions:
REMARK  status: ('A' for Active; 'I' for Inactive)
REMARK    1  A    between atoms: C_2  and  O_3
REMARK    2  A    between atoms: C_2  and  C_4
REMARK    3  A    between atoms: C_8  and  C_9
REMARK    4  A    between atoms: C_12  and  C_13
REMARK                            x       y       z     vdW  Elec       q    Type
REMARK                         _______ _______ _______ _____ _____    ______ ____
ROOT
ATOM      1  C   UNL     1       6.063   4.942  15.912  0.00  0.00    +0.000 A 
ATOM      2  C   UNL     1       6.750   4.473  17.014  0.00  0.00    +0.000 A 
ATOM      3  S   UNL     1       5.991   5.004  18.451  0.00  0.00    +0.000 S 
ATOM      4  C   UNL     1       4.821   5.861  17.516  0.00  0.00    +0.000 A 
ATOM      5  N   UNL     1       4.956   5.723  16.209  0.00  0.00    +0.000 NA
ENDROOT
BRANCH   4   6
ATOM      6  C   UNL     1       3.748   6.631  18.169  0.00  0.00    +0.000 A 
ATOM      7  C   UNL     1       3.230   7.818  17.618  0.00  0.00    +0.000 A 
ATOM      8  C   UNL     1       2.218   8.529  18.270  0.00  0.00    +0.000 A 
ATOM      9  C   UNL     1       1.713   8.056  19.473  0.00  0.00    +0.000 A 
ATOM     10  F   UNL     1       0.748   8.742  20.099  0.00  0.00    +0.000 F 
ATOM     11  C   UNL     1       2.193   6.878  20.032  0.00  0.00    +0.000 A 
ATOM     12  C   UNL     1       3.203   6.166  19.379  0.00  0.00    +0.000 A 
ENDBRANCH   4   6
BRANCH   1  17
ATOM     13  C   UNL     1       6.101   3.522  12.428  0.00  0.00    +0.000 A 
ATOM     14  C   UNL     1       7.162   4.227  11.847  0.00  0.00    +0.000 A 
ATOM     15  C   UNL     1       7.893   5.134  12.612  0.00  0.00    +0.000 A 
ATOM     16  C   UNL     1       7.550   5.358  13.948  0.00  0.00    +0.000 A 
ATOM     17  C   UNL     1       6.466   4.686  14.533  0.00  0.00    +0.000 A 
ATOM     18  C   UNL     1       5.751   3.758  13.764  0.00  0.00    +0.000 A 
BRANCH  13  20
ATOM     19  O   UNL     1       4.183   2.825  11.205  0.00  0.00    +0.000 OA
ATOM     20  C   UNL     1       5.287   2.558  11.646  0.00  0.00    +0.000 C 
BRANCH  20  21
ATOM     21  O   UNL     1       5.869   1.350  11.498  0.00  0.00    +0.000 OA
ATOM     22  H   UNL     1       5.748   0.740  12.248  0.00  0.00    +0.000 HD
ENDBRANCH  20  21
ENDBRANCH  13  20
ENDBRANCH   1  17
TORSDOF 4
ENDMDL
MODEL 6
REMARK VINA RESULT:      -7.7      2.215      2.689
REMARK  Name = 
REMARK  4 active torsions:
REMARK  status: ('A' for Active; 'I' for Inactive)
REMARK    1  A    between atoms: C_2  and  O_3
REMARK    2  A    between atoms: C_2  and  C_4
REMARK    3  A    between atoms: C_8  and  C_9
REMARK    4  A    between atoms: C_12  and  C_13
REMARK                            x       y       z     vdW  Elec       q    Type
REMARK                         _______ _______ _______ _____ _____    ______ ____
ROOT
ATOM      1  C   UNL     1       6.146   4.932  15.886  0.00  0.00    +0.000 A 
ATOM      2  C   UNL     1       6.881   4.496  16.971  0.00  0.00    +0.000 A 
ATOM      3  S   UNL     1       6.142   5.008  18.426  0.00  0.00    +0.000 S 
ATOM      4  C   UNL     1       4.914   5.813  17.519  0.00  0.00    +0.000 A 
ATOM      5  N   UNL     1       5.018   5.672  16.211  0.00  0.00    +0.000 NA
ENDROOT
BRANCH   4   6
ATOM      6  C   UNL     1       3.831   6.546  18.199  0.00  0.00    +0.000 A 
ATOM      7  C   UNL     1       3.284   6.117  19.422  0.00  0.00    +0.000 A 
ATOM      8  C   UNL     1       2.250   6.833  20.035  0.00  0.00    +0.000 A 
ATOM      9  C   UNL     1       1.762   7.984  19.432  0.00  0.00    +0.000 A 
ATOM     10  F   UNL     1       0.768   8.664  20.017  0.00  0.00    +0.000 F 
ATOM     11  C   UNL     1       2.295   8.440  18.233  0.00  0.00    +0.000 A 
ATOM     12  C   UNL     1       3.330   7.726  17.622  0.00  0.00    +0.000 A 
ENDBRANCH   4   6
BRANCH   1  17
ATOM     13  C   UNL     1       6.117   3.516  12.400  0.00  0.00    +0.000 A 
ATOM     14  C   UNL     1       7.157   4.234  11.796  0.00  0.00    +0.000 A 
ATOM     15  C   UNL     1       7.896   5.147  12.545  0.00  0.00    +0.000 A 
ATOM     16  C   UNL     1       7.582   5.366  13.889  0.00  0.00    +0.000 A 
ATOM     17  C   UNL     1       6.520   4.682  14.499  0.00  0.00    +0.000 A 
ATOM     18  C   UNL     1       5.796   3.747  13.744  0.00  0.00    +0.000 A 
BRANCH  13  20
ATOM     19  O   UNL     1       4.206   2.822  11.166  0.00  0.00    +0.000 OA
ATOM     20  C   UNL     1       5.296   2.545  11.636  0.00  0.00    +0.000 C 
BRANCH  20  21
ATOM     21  O   UNL     1       5.853   1.321  11.538  0.00  0.00    +0.000 OA
ATOM     22  H   UNL     1       6.682   1.205  12.037  0.00  0.00    +0.000 HD
ENDBRANCH  20  21
ENDBRANCH  13  20
ENDBRANCH   1  17
TORSDOF 4
ENDMDL
MODEL 7
REMARK VINA RESULT:      -7.7      1.335      1.721
REMARK  Name = 
REMARK  4 active torsions:
REMARK  status: ('A' for Active; 'I' for Inactive)
REMARK    1  A    between atoms: C_2  and  O_3
REMARK    2  A    between atoms: C_2  and  C_4
REMARK    3  A    between atoms: C_8  and  C_9
REMARK    4  A    between atoms: C_12  and  C_13
REMARK                            x       y       z     vdW  Elec       q    Type
REMARK                         _______ _______ _______ _____ _____    ______ ____
ROOT
ATOM      1  C   UNL     1       6.537   4.739  15.972  0.00  0.00    +0.000 A 
ATOM      2  C   UNL     1       7.547   4.717  16.913  0.00  0.00    +0.000 A 
ATOM      3  S   UNL     1       6.899   4.948  18.478  0.00  0.00    +0.000 S 
ATOM      4  C   UNL     1       5.319   5.106  17.800  0.00  0.00    +0.000 A 
ATOM      5  N   UNL     1       5.267   4.949  16.490  0.00  0.00    +0.000 NA
ENDROOT
BRANCH   4   6
ATOM      6  C   UNL     1       4.148   5.348  18.661  0.00  0.00    +0.000 A 
ATOM      7  C   UNL     1       3.669   4.386  19.569  0.00  0.00    +0.000 A 
ATOM      8  C   UNL     1       2.548   4.646  20.364  0.00  0.00    +0.000 A 
ATOM      9  C   UNL     1       1.905   5.871  20.262  0.00  0.00    +0.000 A 
ATOM     10  F   UNL     1       0.828   6.116  21.020  0.00  0.00    +0.000 F 
ATOM     11  C   UNL     1       2.366   6.847  19.387  0.00  0.00    +0.000 A 
ATOM     12  C   UNL     1       3.487   6.587  18.594  0.00  0.00    +0.000 A 
ENDBRANCH   4   6
BRANCH   1  17
ATOM     13  C   UNL     1       6.163   3.548  12.422  0.00  0.00    +0.000 A 
ATOM     14  C   UNL     1       7.102   4.346  11.756  0.00  0.00    +0.000 A 
ATOM     15  C   UNL     1       7.889   5.239  12.479  0.00  0.00    +0.000 A 
ATOM     16  C   UNL     1       7.722   5.359  13.862  0.00  0.00    +0.000 A 
ATOM     17  C   UNL     1       6.760   4.594  14.537  0.00  0.00    +0.000 A 
ATOM     18  C   UNL     1       5.988   3.679  13.806  0.00  0.00    +0.000 A 
BRANCH  13  20
ATOM     19  O   UNL     1       4.177   2.880  11.295  0.00  0.00    +0.000 OA
ATOM     20  C   UNL     1       5.294   2.594  11.690  0.00  0.00    +0.000 C 
BRANCH  20  21
ATOM     21  O   UNL     1       5.843   1.372  11.529  0.00  0.00    +0.000 OA
ATOM     22  H   UNL     1       5.481   0.679  12.110  0.00  0.00    +0.000 HD
ENDBRANCH  20  21
ENDBRANCH  13  20
ENDBRANCH   1  17
TORSDOF 4
ENDMDL
MODEL 8
REMARK VINA RESULT:      -7.7      5.497      6.912
REMARK  Name = 
REMARK  4 active torsions:
REMARK  status: ('A' for Active; 'I' for Inactive)
REMARK    1  A    between atoms: C_2  and  O_3
REMARK    2  A    between atoms: C_2  and  C_4
REMARK    3  A    between atoms: C_8  and  C_9
REMARK    4  A    between atoms: C_12  and  C_13
REMARK                            x       y       z     vdW  Elec       q    Type
REMARK                         _______ _______ _______ _____ _____    ______ ____
ROOT
ATOM      1  C   UNL     1       2.473   7.454  18.445  0.00  0.00    +0.000 A 
ATOM      2  C   UNL     1       2.488   8.492  17.534  0.00  0.00    +0.000 A 
ATOM      3  S   UNL     1       1.672   9.850  18.176  0.00  0.00    +0.000 S 
ATOM      4  C   UNL     1       1.312   8.958  19.608  0.00  0.00    +0.000 A 
ATOM      5  N   UNL     1       1.810   7.735  19.631  0.00  0.00    +0.000 NA
ENDROOT
BRANCH   4   6
ATOM      6  C   UNL     1       0.549   9.572  20.709  0.00  0.00    +0.000 A 
ATOM      7  C   UNL     1       0.325   8.909  21.931  0.00  0.00    +0.000 A 
ATOM      8  C   UNL     1      -0.413   9.518  22.951  0.00  0.00    +0.000 A 
ATOM      9  C   UNL     1      -0.924  10.794  22.760  0.00  0.00    +0.000 A 
ATOM     10  F   UNL     1      -1.635  11.372  23.736  0.00  0.00    +0.000 F 
ATOM     11  C   UNL     1      -0.704  11.479  21.571  0.00  0.00    +0.000 A 
ATOM     12  C   UNL     1       0.035  10.871  20.552  0.00  0.00    +0.000 A 
ENDBRANCH   4   6
BRANCH   1  17
ATOM     13  C   UNL     1       2.827   3.724  18.102  0.00  0.00    +0.000 A 
ATOM     14  C   UNL     1       4.144   3.607  17.641  0.00  0.00    +0.000 A 
ATOM     15  C   UNL     1       4.929   4.748  17.489  0.00  0.00    +0.000 A 
ATOM     16  C   UNL     1       4.393   6.008  17.768  0.00  0.00    +0.000 A 
ATOM     17  C   UNL     1       3.064   6.144  18.195  0.00  0.00    +0.000 A 
ATOM     18  C   UNL     1       2.288   4.989  18.369  0.00  0.00    +0.000 A 
BRANCH  13  20
ATOM     19  O   UNL     1       0.737   2.612  18.337  0.00  0.00    +0.000 OA
ATOM     20  C   UNL     1       1.951   2.537  18.265  0.00  0.00    +0.000 C 
BRANCH  20  21
ATOM     21  O   UNL     1       2.625   1.373  18.356  0.00  0.00    +0.000 OA
ATOM     22  H   UNL     1       3.416   1.309  17.790  0.00  0.00    +0.000 HD
ENDBRANCH  20  21
ENDBRANCH  13  20
ENDBRANCH   1  17
TORSDOF 4
ENDMDL
MODEL 9
REMARK VINA RESULT:      -7.6      6.419      8.253
REMARK  Name = 
REMARK  4 active torsions:
REMARK  status: ('A' for Active; 'I' for Inactive)
REMARK    1  A    between atoms: C_2  and  O_3
REMARK    2  A    between atoms: C_2  and  C_4
REMARK    3  A    between atoms: C_8  and  C_9
REMARK    4  A    between atoms: C_12  and  C_13
REMARK                            x       y       z     vdW  Elec       q    Type
REMARK                         _______ _______ _______ _____ _____    ______ ____
ROOT
ATOM      1  C   UNL     1       2.140   7.572  19.341  0.00  0.00    +0.000 A 
ATOM      2  C   UNL     1       2.197   8.401  18.238  0.00  0.00    +0.000 A 
ATOM      3  S   UNL     1       1.393   9.874  18.567  0.00  0.00    +0.000 S 
ATOM      4  C   UNL     1       0.983   9.298  20.142  0.00  0.00    +0.000 A 
ATOM      5  N   UNL     1       1.456   8.098  20.426  0.00  0.00    +0.000 NA
ENDROOT
BRANCH   4   6
ATOM      6  C   UNL     1       0.205  10.134  21.074  0.00  0.00    +0.000 A 
ATOM      7  C   UNL     1      -0.215   9.667  22.333  0.00  0.00    +0.000 A 
ATOM      8  C   UNL     1      -0.959  10.484  23.189  0.00  0.00    +0.000 A 
ATOM      9  C   UNL     1      -1.282  11.775  22.795  0.00  0.00    +0.000 A 
ATOM     10  F   UNL     1      -2.001  12.554  23.613  0.00  0.00    +0.000 F 
ATOM     11  C   UNL     1      -0.866  12.269  21.564  0.00  0.00    +0.000 A 
ATOM     12  C   UNL     1      -0.120  11.452  20.710  0.00  0.00    +0.000 A 
ENDBRANCH   4   6
BRANCH   1  17
ATOM     13  C   UNL     1       2.714   3.981  20.309  0.00  0.00    +0.000 A 
ATOM     14  C   UNL     1       3.732   3.609  19.422  0.00  0.00    +0.000 A 
ATOM     15  C   UNL     1       4.261   4.549  18.540  0.00  0.00    +0.000 A 
ATOM     16  C   UNL     1       3.757   5.853  18.522  0.00  0.00    +0.000 A 
ATOM     17  C   UNL     1       2.712   6.230  19.378  0.00  0.00    +0.000 A 
ATOM     18  C   UNL     1       2.201   5.285  20.280  0.00  0.00    +0.000 A 
BRANCH  13  20
ATOM     19  O   UNL     1       2.761   2.408  22.092  0.00  0.00    +0.000 OA
ATOM     20  C   UNL     1       2.112   3.009  21.255  0.00  0.00    +0.000 C 
BRANCH  20  21
ATOM     21  O   UNL     1       0.786   2.830  21.079  0.00  0.00    +0.000 OA
ATOM     22  H   UNL     1       0.431   2.001  21.447  0.00  0.00    +0.000 HD
ENDBRANCH  20  21
ENDBRANCH  13  20
ENDBRANCH   1  17
TORSDOF 4
ENDMDL
