MODEL 1
REMARK VINA RESULT:      -6.4      0.000      0.000
REMARK  Name = 
REMARK  24 active torsions:
REMARK  status: ('A' for Active; 'I' for Inactive)
REMARK    1  A    between atoms: C_1  and  C_2
REMARK    2  A    between atoms: C_2  and  C_3
REMARK    3  A    between atoms: C_2  and  C_4
REMARK    4  A    between atoms: C_4  and  C_5
REMARK    5  A    between atoms: C_5  and  C_6
REMARK    6  A    between atoms: C_6  and  C_7
REMARK    7  A    between atoms: C_7  and  C_8
REMARK    8  A    between atoms: C_8  and  C_9
REMARK    9  A    between atoms: C_9  and  C_10
REMARK   10  A    between atoms: C_10  and  O_11
REMARK   11  A    between atoms: O_11  and  P_12
REMARK   12  A    between atoms: P_12  and  O_13
REMARK   13  A    between atoms: P_12  and  O_24
REMARK   14  A    between atoms: O_13  and  C_14
REMARK   15  A    between atoms: C_14  and  C_15
REMARK   16  A    between atoms: C_15  and  C_16
REMARK   17  A    between atoms: C_16  and  C_17
REMARK   18  A    between atoms: C_17  and  C_18
REMARK   19  A    between atoms: C_18  and  C_19
REMARK   20  A    between atoms: C_19  and  C_20
REMARK   21  A    between atoms: C_20  and  C_21
REMARK   22  A    between atoms: C_21  and  C_22
REMARK   23  A    between atoms: C_21  and  C_23
REMARK   24  A    between atoms: O_24  and  C_25
REMARK                            x       y       z     vdW  Elec       q    Type
REMARK                         _______ _______ _______ _____ _____    ______ ____
ROOT
ATOM      1  P   UNL     1       5.330   4.346  16.688  0.00  0.00    +0.000 P 
ENDROOT
BRANCH   1   2
ATOM      2  O   UNL     1       4.305   5.396  17.372  0.00  0.00    +0.000 OA
BRANCH   2   3
ATOM      3  C   UNL     1       4.388   6.713  16.868  0.00  0.00    +0.000 C 
BRANCH   3   4
ATOM      4  C   UNL     1       3.597   7.726  17.715  0.00  0.00    +0.000 C 
BRANCH   4   5
ATOM      5  C   UNL     1       2.383   7.019  18.281  0.00  0.00    +0.000 C 
BRANCH   5   6
ATOM      6  C   UNL     1       2.300   7.085  19.790  0.00  0.00    +0.000 C 
BRANCH   6   7
ATOM      7  C   UNL     1       1.559   5.863  20.330  0.00  0.00    +0.000 C 
BRANCH   7   8
ATOM      8  C   UNL     1       2.571   4.858  20.853  0.00  0.00    +0.000 C 
BRANCH   8   9
ATOM      9  C   UNL     1       2.822   3.719  19.871  0.00  0.00    +0.000 C 
BRANCH   9  10
ATOM     10  C   UNL     1       1.926   2.502  20.162  0.00  0.00    +0.000 C 
ATOM     11  C   UNL     1       1.340   2.532  21.577  0.00  0.00    +0.000 C 
ATOM     12  C   UNL     1       0.795   2.433  19.138  0.00  0.00    +0.000 C 
ENDBRANCH   9  10
ENDBRANCH   8   9
ENDBRANCH   7   8
ENDBRANCH   6   7
ENDBRANCH   5   6
ENDBRANCH   4   5
ENDBRANCH   3   4
ENDBRANCH   2   3
ENDBRANCH   1   2
BRANCH   1  13
ATOM     13  O   UNL     1       6.038   5.338  15.603  0.00  0.00    +0.000 OA
BRANCH  13  14
ATOM     14  C   UNL     1       6.405   4.912  14.349  0.00  0.00    +0.000 A 
ATOM     15  C   UNL     1       5.651   3.895  13.745  0.00  0.00    +0.000 A 
ATOM     16  C   UNL     1       6.010   3.434  12.469  0.00  0.00    +0.000 A 
ATOM     17  C   UNL     1       7.092   3.992  11.794  0.00  0.00    +0.000 A 
ATOM     18  C   UNL     1       7.830   5.016  12.384  0.00  0.00    +0.000 A 
ATOM     19  C   UNL     1       7.476   5.466  13.658  0.00  0.00    +0.000 A 
ENDBRANCH  13  14
ENDBRANCH   1  13
BRANCH   1  20
ATOM     20  O   UNL     1       6.502   4.308  17.837  0.00  0.00    +0.000 OA
BRANCH  20  21
ATOM     21  C   UNL     1       7.519   5.280  17.623  0.00  0.00    +0.000 C 
BRANCH  21  22
ATOM     22  C   UNL     1       7.543   6.488  18.558  0.00  0.00    +0.000 C 
BRANCH  22  23
ATOM     23  C   UNL     1       7.932   7.694  17.679  0.00  0.00    +0.000 C 
BRANCH  23  24
ATOM     24  C   UNL     1       8.613   8.802  18.458  0.00  0.00    +0.000 C 
BRANCH  24  25
ATOM     25  C   UNL     1       8.145  10.184  17.989  0.00  0.00    +0.000 C 
BRANCH  25  26
ATOM     26  C   UNL     1       9.238  11.204  18.283  0.00  0.00    +0.000 C 
BRANCH  26  27
ATOM     27  C   UNL     1      10.154  10.781  19.429  0.00  0.00    +0.000 C 
BRANCH  27  29
ATOM     28  C   UNL     1      10.631  13.244  19.576  0.00  0.00    +0.000 C 
ATOM     29  C   UNL     1      10.478  11.951  20.376  0.00  0.00    +0.000 C 
ATOM     30  C   UNL     1       9.414  12.140  21.461  0.00  0.00    +0.000 C 
ENDBRANCH  27  29
ENDBRANCH  26  27
ENDBRANCH  25  26
ENDBRANCH  24  25
ENDBRANCH  23  24
ENDBRANCH  22  23
ENDBRANCH  21  22
ENDBRANCH  20  21
ENDBRANCH   1  20
TORSDOF 20
ENDMDL
MODEL 2
REMARK VINA RESULT:      -6.3      1.681      8.864
REMARK  Name = 
REMARK  24 active torsions:
REMARK  status: ('A' for Active; 'I' for Inactive)
REMARK    1  A    between atoms: C_1  and  C_2
REMARK    2  A    between atoms: C_2  and  C_3
REMARK    3  A    between atoms: C_2  and  C_4
REMARK    4  A    between atoms: C_4  and  C_5
REMARK    5  A    between atoms: C_5  and  C_6
REMARK    6  A    between atoms: C_6  and  C_7
REMARK    7  A    between atoms: C_7  and  C_8
REMARK    8  A    between atoms: C_8  and  C_9
REMARK    9  A    between atoms: C_9  and  C_10
REMARK   10  A    between atoms: C_10  and  O_11
REMARK   11  A    between atoms: O_11  and  P_12
REMARK   12  A    between atoms: P_12  and  O_13
REMARK   13  A    between atoms: P_12  and  O_24
REMARK   14  A    between atoms: O_13  and  C_14
REMARK   15  A    between atoms: C_14  and  C_15
REMARK   16  A    between atoms: C_15  and  C_16
REMARK   17  A    between atoms: C_16  and  C_17
REMARK   18  A    between atoms: C_17  and  C_18
REMARK   19  A    between atoms: C_18  and  C_19
REMARK   20  A    between atoms: C_19  and  C_20
REMARK   21  A    between atoms: C_20  and  C_21
REMARK   22  A    between atoms: C_21  and  C_22
REMARK   23  A    between atoms: C_21  and  C_23
REMARK   24  A    between atoms: O_24  and  C_25
REMARK                            x       y       z     vdW  Elec       q    Type
REMARK                         _______ _______ _______ _____ _____    ______ ____
ROOT
ATOM      1  P   UNL     1       6.864   6.083  16.356  0.00  0.00    +0.000 P 
ENDROOT
BRANCH   1   2
ATOM      2  O   UNL     1       8.009   6.979  17.069  0.00  0.00    +0.000 OA
BRANCH   2   3
ATOM      3  C   UNL     1       7.550   8.205  17.602  0.00  0.00    +0.000 C 
BRANCH   3   4
ATOM      4  C   UNL     1       8.582   8.878  18.524  0.00  0.00    +0.000 C 
BRANCH   4   5
ATOM      5  C   UNL     1       8.581  10.363  18.226  0.00  0.00    +0.000 C 
BRANCH   5   6
ATOM      6  C   UNL     1       9.961  10.982  18.254  0.00  0.00    +0.000 C 
BRANCH   6   7
ATOM      7  C   UNL     1       9.908  12.358  18.914  0.00  0.00    +0.000 C 
BRANCH   7   8
ATOM      8  C   UNL     1       9.856  13.426  17.834  0.00  0.00    +0.000 C 
BRANCH   8   9
ATOM      9  C   UNL     1      11.149  13.504  17.030  0.00  0.00    +0.000 C 
BRANCH   9  10
ATOM     10  C   UNL     1      11.839  14.872  17.182  0.00  0.00    +0.000 C 
ATOM     11  C   UNL     1      10.965  16.026  16.683  0.00  0.00    +0.000 C 
ATOM     12  C   UNL     1      12.212  15.104  18.645  0.00  0.00    +0.000 C 
ENDBRANCH   9  10
ENDBRANCH   8   9
ENDBRANCH   7   8
ENDBRANCH   6   7
ENDBRANCH   5   6
ENDBRANCH   4   5
ENDBRANCH   3   4
ENDBRANCH   2   3
ENDBRANCH   1   2
BRANCH   1  13
ATOM     13  O   UNL     1       7.694   5.596  15.038  0.00  0.00    +0.000 OA
BRANCH  13  14
ATOM     14  C   UNL     1       7.101   4.896  14.015  0.00  0.00    +0.000 A 
ATOM     15  C   UNL     1       7.747   4.865  12.769  0.00  0.00    +0.000 A 
ATOM     16  C   UNL     1       7.159   4.166  11.704  0.00  0.00    +0.000 A 
ATOM     17  C   UNL     1       5.957   3.488  11.881  0.00  0.00    +0.000 A 
ATOM     18  C   UNL     1       5.324   3.500  13.123  0.00  0.00    +0.000 A 
ATOM     19  C   UNL     1       5.906   4.206  14.178  0.00  0.00    +0.000 A 
ENDBRANCH  13  14
ENDBRANCH   1  13
BRANCH   1  20
ATOM     20  O   UNL     1       6.965   4.721  17.267  0.00  0.00    +0.000 OA
BRANCH  20  21
ATOM     21  C   UNL     1       5.785   4.471  18.022  0.00  0.00    +0.000 C 
BRANCH  21  22
ATOM     22  C   UNL     1       4.902   5.671  18.360  0.00  0.00    +0.000 C 
BRANCH  22  23
ATOM     23  C   UNL     1       3.638   5.524  17.487  0.00  0.00    +0.000 C 
BRANCH  23  24
ATOM     24  C   UNL     1       2.351   5.639  18.281  0.00  0.00    +0.000 C 
BRANCH  24  25
ATOM     25  C   UNL     1       2.627   6.005  19.743  0.00  0.00    +0.000 C 
BRANCH  25  26
ATOM     26  C   UNL     1       1.442   5.572  20.595  0.00  0.00    +0.000 C 
BRANCH  26  27
ATOM     27  C   UNL     1       0.952   4.164  20.262  0.00  0.00    +0.000 C 
BRANCH  27  29
ATOM     28  C   UNL     1       1.943   2.444  21.804  0.00  0.00    +0.000 C 
ATOM     29  C   UNL     1       2.060   3.108  20.432  0.00  0.00    +0.000 C 
ATOM     30  C   UNL     1       2.023   2.037  19.338  0.00  0.00    +0.000 C 
ENDBRANCH  27  29
ENDBRANCH  26  27
ENDBRANCH  25  26
ENDBRANCH  24  25
ENDBRANCH  23  24
ENDBRANCH  22  23
ENDBRANCH  21  22
ENDBRANCH  20  21
ENDBRANCH   1  20
TORSDOF 20
ENDMDL
MODEL 3
REMARK VINA RESULT:      -6.2      1.446      2.879
REMARK  Name = 
REMARK  24 active torsions:
REMARK  status: ('A' for Active; 'I' for Inactive)
REMARK    1  A    between atoms: C_1  and  C_2
REMARK    2  A    between atoms: C_2  and  C_3
REMARK    3  A    between atoms: C_2  and  C_4
REMARK    4  A    between atoms: C_4  and  C_5
REMARK    5  A    between atoms: C_5  and  C_6
REMARK    6  A    between atoms: C_6  and  C_7
REMARK    7  A    between atoms: C_7  and  C_8
REMARK    8  A    between atoms: C_8  and  C_9
REMARK    9  A    between atoms: C_9  and  C_10
REMARK   10  A    between atoms: C_10  and  O_11
REMARK   11  A    between atoms: O_11  and  P_12
REMARK   12  A    between atoms: P_12  and  O_13
REMARK   13  A    between atoms: P_12  and  O_24
REMARK   14  A    between atoms: O_13  and  C_14
REMARK   15  A    between atoms: C_14  and  C_15
REMARK   16  A    between atoms: C_15  and  C_16
REMARK   17  A    between atoms: C_16  and  C_17
REMARK   18  A    between atoms: C_17  and  C_18
REMARK   19  A    between atoms: C_18  and  C_19
REMARK   20  A    between atoms: C_19  and  C_20
REMARK   21  A    between atoms: C_20  and  C_21
REMARK   22  A    between atoms: C_21  and  C_22
REMARK   23  A    between atoms: C_21  and  C_23
REMARK   24  A    between atoms: O_24  and  C_25
REMARK                            x       y       z     vdW  Elec       q    Type
REMARK                         _______ _______ _______ _____ _____    ______ ____
ROOT
ATOM      1  P   UNL     1       6.329   4.185  16.802  0.00  0.00    +0.000 P 
ENDROOT
BRANCH   1   2
ATOM      2  O   UNL     1       5.231   4.686  17.880  0.00  0.00    +0.000 OA
BRANCH   2   3
ATOM      3  C   UNL     1       4.497   3.648  18.498  0.00  0.00    +0.000 C 
BRANCH   3   4
ATOM      4  C   UNL     1       3.682   2.814  17.494  0.00  0.00    +0.000 C 
BRANCH   4   5
ATOM      5  C   UNL     1       2.469   2.262  18.216  0.00  0.00    +0.000 C 
BRANCH   5   6
ATOM      6  C   UNL     1       2.476   2.545  19.702  0.00  0.00    +0.000 C 
BRANCH   6   7
ATOM      7  C   UNL     1       1.061   2.860  20.184  0.00  0.00    +0.000 C 
BRANCH   7   8
ATOM      8  C   UNL     1       0.894   4.366  20.288  0.00  0.00    +0.000 C 
BRANCH   8   9
ATOM      9  C   UNL     1       2.180   5.066  20.715  0.00  0.00    +0.000 C 
BRANCH   9  10
ATOM     10  C   UNL     1       2.473   6.306  19.851  0.00  0.00    +0.000 C 
ATOM     11  C   UNL     1       2.067   6.107  18.387  0.00  0.00    +0.000 C 
ATOM     12  C   UNL     1       1.748   7.522  20.426  0.00  0.00    +0.000 C 
ENDBRANCH   9  10
ENDBRANCH   8   9
ENDBRANCH   7   8
ENDBRANCH   6   7
ENDBRANCH   5   6
ENDBRANCH   4   5
ENDBRANCH   3   4
ENDBRANCH   2   3
ENDBRANCH   1   2
BRANCH   1  13
ATOM     13  O   UNL     1       5.739   4.914  15.467  0.00  0.00    +0.000 OA
BRANCH  13  14
ATOM     14  C   UNL     1       6.079   4.510  14.198  0.00  0.00    +0.000 A 
ATOM     15  C   UNL     1       7.251   5.029  13.627  0.00  0.00    +0.000 A 
ATOM     16  C   UNL     1       7.616   4.641  12.328  0.00  0.00    +0.000 A 
ATOM     17  C   UNL     1       6.839   3.733  11.616  0.00  0.00    +0.000 A 
ATOM     18  C   UNL     1       5.685   3.201  12.190  0.00  0.00    +0.000 A 
ATOM     19  C   UNL     1       5.318   3.597  13.478  0.00  0.00    +0.000 A 
ENDBRANCH  13  14
ENDBRANCH   1  13
BRANCH   1  20
ATOM     20  O   UNL     1       7.561   5.210  17.158  0.00  0.00    +0.000 OA
BRANCH  20  21
ATOM     21  C   UNL     1       7.336   6.532  16.682  0.00  0.00    +0.000 C 
BRANCH  21  22
ATOM     22  C   UNL     1       6.955   7.593  17.713  0.00  0.00    +0.000 C 
BRANCH  22  23
ATOM     23  C   UNL     1       8.287   8.142  18.266  0.00  0.00    +0.000 C 
BRANCH  23  24
ATOM     24  C   UNL     1       8.431   9.641  18.090  0.00  0.00    +0.000 C 
BRANCH  24  25
ATOM     25  C   UNL     1       9.307  10.251  19.189  0.00  0.00    +0.000 C 
BRANCH  25  26
ATOM     26  C   UNL     1       9.791  11.621  18.734  0.00  0.00    +0.000 C 
BRANCH  26  27
ATOM     27  C   UNL     1       8.781  12.345  17.847  0.00  0.00    +0.000 C 
BRANCH  27  29
ATOM     28  C   UNL     1       9.651  14.674  18.214  0.00  0.00    +0.000 C 
ATOM     29  C   UNL     1       8.444  13.751  18.378  0.00  0.00    +0.000 C 
ATOM     30  C   UNL     1       7.228  14.367  17.680  0.00  0.00    +0.000 C 
ENDBRANCH  27  29
ENDBRANCH  26  27
ENDBRANCH  25  26
ENDBRANCH  24  25
ENDBRANCH  23  24
ENDBRANCH  22  23
ENDBRANCH  21  22
ENDBRANCH  20  21
ENDBRANCH   1  20
TORSDOF 20
ENDMDL
MODEL 4
REMARK VINA RESULT:      -6.1      2.495      5.400
REMARK  Name = 
REMARK  24 active torsions:
REMARK  status: ('A' for Active; 'I' for Inactive)
REMARK    1  A    between atoms: C_1  and  C_2
REMARK    2  A    between atoms: C_2  and  C_3
REMARK    3  A    between atoms: C_2  and  C_4
REMARK    4  A    between atoms: C_4  and  C_5
REMARK    5  A    between atoms: C_5  and  C_6
REMARK    6  A    between atoms: C_6  and  C_7
REMARK    7  A    between atoms: C_7  and  C_8
REMARK    8  A    between atoms: C_8  and  C_9
REMARK    9  A    between atoms: C_9  and  C_10
REMARK   10  A    between atoms: C_10  and  O_11
REMARK   11  A    between atoms: O_11  and  P_12
REMARK   12  A    between atoms: P_12  and  O_13
REMARK   13  A    between atoms: P_12  and  O_24
REMARK   14  A    between atoms: O_13  and  C_14
REMARK   15  A    between atoms: C_14  and  C_15
REMARK   16  A    between atoms: C_15  and  C_16
REMARK   17  A    between atoms: C_16  and  C_17
REMARK   18  A    between atoms: C_17  and  C_18
REMARK   19  A    between atoms: C_18  and  C_19
REMARK   20  A    between atoms: C_19  and  C_20
REMARK   21  A    between atoms: C_20  and  C_21
REMARK   22  A    between atoms: C_21  and  C_22
REMARK   23  A    between atoms: C_21  and  C_23
REMARK   24  A    between atoms: O_24  and  C_25
REMARK                            x       y       z     vdW  Elec       q    Type
REMARK                         _______ _______ _______ _____ _____    ______ ____
ROOT
ATOM      1  P   UNL     1       5.036   5.404  18.580  0.00  0.00    +0.000 P 
ENDROOT
BRANCH   1   2
ATOM      2  O   UNL     1       3.804   5.906  17.657  0.00  0.00    +0.000 OA
BRANCH   2   3
ATOM      3  C   UNL     1       3.636   7.308  17.611  0.00  0.00    +0.000 C 
BRANCH   3   4
ATOM      4  C   UNL     1       2.224   7.755  18.030  0.00  0.00    +0.000 C 
BRANCH   4   5
ATOM      5  C   UNL     1       2.142   7.693  19.542  0.00  0.00    +0.000 C 
BRANCH   5   6
ATOM      6  C   UNL     1       1.261   8.769  20.138  0.00  0.00    +0.000 C 
BRANCH   6   7
ATOM      7  C   UNL     1       1.228   8.639  21.660  0.00  0.00    +0.000 C 
BRANCH   7   8
ATOM      8  C   UNL     1       0.106   9.503  22.209  0.00  0.00    +0.000 C 
BRANCH   8   9
ATOM      9  C   UNL     1      -0.650  10.244  21.112  0.00  0.00    +0.000 C 
BRANCH   9  10
ATOM     10  C   UNL     1      -0.821  11.738  21.439  0.00  0.00    +0.000 C 
ATOM     11  C   UNL     1      -1.196  11.977  22.905  0.00  0.00    +0.000 C 
ATOM     12  C   UNL     1       0.467  12.491  21.109  0.00  0.00    +0.000 C 
ENDBRANCH   9  10
ENDBRANCH   8   9
ENDBRANCH   7   8
ENDBRANCH   6   7
ENDBRANCH   5   6
ENDBRANCH   4   5
ENDBRANCH   3   4
ENDBRANCH   2   3
ENDBRANCH   1   2
BRANCH   1  13
ATOM     13  O   UNL     1       4.526   3.887  18.896  0.00  0.00    +0.000 OA
BRANCH  13  14
ATOM     14  C   UNL     1       3.218   3.601  19.206  0.00  0.00    +0.000 A 
ATOM     15  C   UNL     1       2.656   4.208  20.340  0.00  0.00    +0.000 A 
ATOM     16  C   UNL     1       1.325   3.925  20.685  0.00  0.00    +0.000 A 
ATOM     17  C   UNL     1       0.557   3.069  19.901  0.00  0.00    +0.000 A 
ATOM     18  C   UNL     1       1.108   2.481  18.764  0.00  0.00    +0.000 A 
ATOM     19  C   UNL     1       2.436   2.755  18.429  0.00  0.00    +0.000 A 
ENDBRANCH  13  14
ENDBRANCH   1  13
BRANCH   1  20
ATOM     20  O   UNL     1       6.149   5.087  17.415  0.00  0.00    +0.000 OA
BRANCH  20  21
ATOM     21  C   UNL     1       7.461   4.910  17.936  0.00  0.00    +0.000 C 
BRANCH  21  22
ATOM     22  C   UNL     1       8.018   6.022  18.824  0.00  0.00    +0.000 C 
BRANCH  22  23
ATOM     23  C   UNL     1       7.980   7.304  17.967  0.00  0.00    +0.000 C 
BRANCH  23  24
ATOM     24  C   UNL     1       8.455   8.534  18.717  0.00  0.00    +0.000 C 
BRANCH  24  25
ATOM     25  C   UNL     1       8.418   9.780  17.825  0.00  0.00    +0.000 C 
BRANCH  25  26
ATOM     26  C   UNL     1       9.372  10.823  18.391  0.00  0.00    +0.000 C 
BRANCH  26  27
ATOM     27  C   UNL     1       9.438  10.804  19.917  0.00  0.00    +0.000 C 
BRANCH  27  29
ATOM     28  C   UNL     1       9.138  12.163  22.009  0.00  0.00    +0.000 C 
ATOM     29  C   UNL     1       9.459  12.222  20.516  0.00  0.00    +0.000 C 
ATOM     30  C   UNL     1      10.802  12.928  20.307  0.00  0.00    +0.000 C 
ENDBRANCH  27  29
ENDBRANCH  26  27
ENDBRANCH  25  26
ENDBRANCH  24  25
ENDBRANCH  23  24
ENDBRANCH  22  23
ENDBRANCH  21  22
ENDBRANCH  20  21
ENDBRANCH   1  20
TORSDOF 20
ENDMDL
MODEL 5
REMARK VINA RESULT:      -6.1      3.330      8.014
REMARK  Name = 
REMARK  24 active torsions:
REMARK  status: ('A' for Active; 'I' for Inactive)
REMARK    1  A    between atoms: C_1  and  C_2
REMARK    2  A    between atoms: C_2  and  C_3
REMARK    3  A    between atoms: C_2  and  C_4
REMARK    4  A    between atoms: C_4  and  C_5
REMARK    5  A    between atoms: C_5  and  C_6
REMARK    6  A    between atoms: C_6  and  C_7
REMARK    7  A    between atoms: C_7  and  C_8
REMARK    8  A    between atoms: C_8  and  C_9
REMARK    9  A    between atoms: C_9  and  C_10
REMARK   10  A    between atoms: C_10  and  O_11
REMARK   11  A    between atoms: O_11  and  P_12
REMARK   12  A    between atoms: P_12  and  O_13
REMARK   13  A    between atoms: P_12  and  O_24
REMARK   14  A    between atoms: O_13  and  C_14
REMARK   15  A    between atoms: C_14  and  C_15
REMARK   16  A    between atoms: C_15  and  C_16
REMARK   17  A    between atoms: C_16  and  C_17
REMARK   18  A    between atoms: C_17  and  C_18
REMARK   19  A    between atoms: C_18  and  C_19
REMARK   20  A    between atoms: C_19  and  C_20
REMARK   21  A    between atoms: C_20  and  C_21
REMARK   22  A    between atoms: C_21  and  C_22
REMARK   23  A    between atoms: C_21  and  C_23
REMARK   24  A    between atoms: O_24  and  C_25
REMARK                            x       y       z     vdW  Elec       q    Type
REMARK                         _______ _______ _______ _____ _____    ______ ____
ROOT
ATOM      1  P   UNL     1       4.401   6.200  18.729  0.00  0.00    +0.000 P 
ENDROOT
BRANCH   1   2
ATOM      2  O   UNL     1       2.932   6.560  18.150  0.00  0.00    +0.000 OA
BRANCH   2   3
ATOM      3  C   UNL     1       2.324   7.687  18.748  0.00  0.00    +0.000 C 
BRANCH   3   4
ATOM      4  C   UNL     1       1.874   8.738  17.718  0.00  0.00    +0.000 C 
BRANCH   4   5
ATOM      5  C   UNL     1       0.821   9.612  18.369  0.00  0.00    +0.000 C 
BRANCH   5   6
ATOM      6  C   UNL     1       1.320  10.999  18.709  0.00  0.00    +0.000 C 
BRANCH   6   7
ATOM      7  C   UNL     1       0.238  11.780  19.453  0.00  0.00    +0.000 C 
BRANCH   7   8
ATOM      8  C   UNL     1       0.406  11.563  20.947  0.00  0.00    +0.000 C 
BRANCH   8   9
ATOM      9  C   UNL     1      -0.311  12.625  21.774  0.00  0.00    +0.000 C 
BRANCH   9  10
ATOM     10  C   UNL     1      -1.145  12.003  22.908  0.00  0.00    +0.000 C 
ATOM     11  C   UNL     1      -2.652  12.139  22.668  0.00  0.00    +0.000 C 
ATOM     12  C   UNL     1      -0.781  10.529  23.071  0.00  0.00    +0.000 C 
ENDBRANCH   9  10
ENDBRANCH   8   9
ENDBRANCH   7   8
ENDBRANCH   6   7
ENDBRANCH   5   6
ENDBRANCH   4   5
ENDBRANCH   3   4
ENDBRANCH   2   3
ENDBRANCH   1   2
BRANCH   1  13
ATOM     13  O   UNL     1       4.222   4.589  18.916  0.00  0.00    +0.000 OA
BRANCH  13  14
ATOM     14  C   UNL     1       3.007   4.013  19.204  0.00  0.00    +0.000 A 
ATOM     15  C   UNL     1       2.500   4.147  20.506  0.00  0.00    +0.000 A 
ATOM     16  C   UNL     1       1.267   3.560  20.829  0.00  0.00    +0.000 A 
ATOM     17  C   UNL     1       0.538   2.869  19.866  0.00  0.00    +0.000 A 
ATOM     18  C   UNL     1       1.031   2.752  18.568  0.00  0.00    +0.000 A 
ATOM     19  C   UNL     1       2.263   3.328  18.251  0.00  0.00    +0.000 A 
ENDBRANCH  13  14
ENDBRANCH   1  13
BRANCH   1  20
ATOM     20  O   UNL     1       5.267   6.224  17.334  0.00  0.00    +0.000 OA
BRANCH  20  21
ATOM     21  C   UNL     1       6.673   6.238  17.556  0.00  0.00    +0.000 C 
BRANCH  21  22
ATOM     22  C   UNL     1       7.398   4.894  17.540  0.00  0.00    +0.000 C 
BRANCH  22  23
ATOM     23  C   UNL     1       7.151   4.298  16.139  0.00  0.00    +0.000 C 
BRANCH  23  24
ATOM     24  C   UNL     1       5.685   4.030  15.857  0.00  0.00    +0.000 C 
BRANCH  24  25
ATOM     25  C   UNL     1       5.379   4.125  14.358  0.00  0.00    +0.000 C 
BRANCH  25  26
ATOM     26  C   UNL     1       6.690   4.138  13.584  0.00  0.00    +0.000 C 
BRANCH  26  27
ATOM     27  C   UNL     1       6.520   3.750  12.117  0.00  0.00    +0.000 C 
BRANCH  27  29
ATOM     28  C   UNL     1       4.270   3.077  11.222  0.00  0.00    +0.000 C 
ATOM     29  C   UNL     1       5.529   2.586  11.935  0.00  0.00    +0.000 C 
ATOM     30  C   UNL     1       6.136   1.414  11.158  0.00  0.00    +0.000 C 
ENDBRANCH  27  29
ENDBRANCH  26  27
ENDBRANCH  25  26
ENDBRANCH  24  25
ENDBRANCH  23  24
ENDBRANCH  22  23
ENDBRANCH  21  22
ENDBRANCH  20  21
ENDBRANCH   1  20
TORSDOF 20
ENDMDL
MODEL 6
REMARK VINA RESULT:      -6.0      3.524      8.491
REMARK  Name = 
REMARK  24 active torsions:
REMARK  status: ('A' for Active; 'I' for Inactive)
REMARK    1  A    between atoms: C_1  and  C_2
REMARK    2  A    between atoms: C_2  and  C_3
REMARK    3  A    between atoms: C_2  and  C_4
REMARK    4  A    between atoms: C_4  and  C_5
REMARK    5  A    between atoms: C_5  and  C_6
REMARK    6  A    between atoms: C_6  and  C_7
REMARK    7  A    between atoms: C_7  and  C_8
REMARK    8  A    between atoms: C_8  and  C_9
REMARK    9  A    between atoms: C_9  and  C_10
REMARK   10  A    between atoms: C_10  and  O_11
REMARK   11  A    between atoms: O_11  and  P_12
REMARK   12  A    between atoms: P_12  and  O_13
REMARK   13  A    between atoms: P_12  and  O_24
REMARK   14  A    between atoms: O_13  and  C_14
REMARK   15  A    between atoms: C_14  and  C_15
REMARK   16  A    between atoms: C_15  and  C_16
REMARK   17  A    between atoms: C_16  and  C_17
REMARK   18  A    between atoms: C_17  and  C_18
REMARK   19  A    between atoms: C_18  and  C_19
REMARK   20  A    between atoms: C_19  and  C_20
REMARK   21  A    between atoms: C_20  and  C_21
REMARK   22  A    between atoms: C_21  and  C_22
REMARK   23  A    between atoms: C_21  and  C_23
REMARK   24  A    between atoms: O_24  and  C_25
REMARK                            x       y       z     vdW  Elec       q    Type
REMARK                         _______ _______ _______ _____ _____    ______ ____
ROOT
ATOM      1  P   UNL     1       4.982   4.602  18.437  0.00  0.00    +0.000 P 
ENDROOT
BRANCH   1   2
ATOM      2  O   UNL     1       6.281   4.686  19.400  0.00  0.00    +0.000 OA
BRANCH   2   3
ATOM      3  C   UNL     1       7.486   5.006  18.736  0.00  0.00    +0.000 C 
BRANCH   3   4
ATOM      4  C   UNL     1       7.439   4.692  17.230  0.00  0.00    +0.000 C 
BRANCH   4   5
ATOM      5  C   UNL     1       7.046   5.959  16.498  0.00  0.00    +0.000 C 
BRANCH   5   6
ATOM      6  C   UNL     1       6.911   5.770  15.003  0.00  0.00    +0.000 C 
BRANCH   6   7
ATOM      7  C   UNL     1       5.842   4.721  14.700  0.00  0.00    +0.000 C 
BRANCH   7   8
ATOM      8  C   UNL     1       6.456   3.613  13.861  0.00  0.00    +0.000 C 
BRANCH   8   9
ATOM      9  C   UNL     1       6.136   3.761  12.377  0.00  0.00    +0.000 C 
BRANCH   9  10
ATOM     10  C   UNL     1       5.006   2.814  11.937  0.00  0.00    +0.000 C 
ATOM     11  C   UNL     1       3.999   3.498  11.006  0.00  0.00    +0.000 C 
ATOM     12  C   UNL     1       5.597   1.589  11.242  0.00  0.00    +0.000 C 
ENDBRANCH   9  10
ENDBRANCH   8   9
ENDBRANCH   7   8
ENDBRANCH   6   7
ENDBRANCH   5   6
ENDBRANCH   4   5
ENDBRANCH   3   4
ENDBRANCH   2   3
ENDBRANCH   1   2
BRANCH   1  13
ATOM     13  O   UNL     1       4.393   3.157  18.915  0.00  0.00    +0.000 OA
BRANCH  13  14
ATOM     14  C   UNL     1       3.227   3.041  19.634  0.00  0.00    +0.000 A 
ATOM     15  C   UNL     1       3.319   2.827  21.018  0.00  0.00    +0.000 A 
ATOM     16  C   UNL     1       2.145   2.694  21.775  0.00  0.00    +0.000 A 
ATOM     17  C   UNL     1       0.897   2.795  21.168  0.00  0.00    +0.000 A 
ATOM     18  C   UNL     1       0.803   3.028  19.797  0.00  0.00    +0.000 A 
ATOM     19  C   UNL     1       1.973   3.149  19.045  0.00  0.00    +0.000 A 
ENDBRANCH  13  14
ENDBRANCH   1  13
BRANCH   1  20
ATOM     20  O   UNL     1       3.964   5.601  19.250  0.00  0.00    +0.000 OA
BRANCH  20  21
ATOM     21  C   UNL     1       3.138   6.372  18.385  0.00  0.00    +0.000 C 
BRANCH  21  22
ATOM     22  C   UNL     1       2.332   7.508  19.014  0.00  0.00    +0.000 C 
BRANCH  22  23
ATOM     23  C   UNL     1       2.112   8.541  17.890  0.00  0.00    +0.000 C 
BRANCH  23  24
ATOM     24  C   UNL     1       1.462   9.822  18.379  0.00  0.00    +0.000 C 
BRANCH  24  25
ATOM     25  C   UNL     1      -0.037   9.844  18.057  0.00  0.00    +0.000 C 
BRANCH  25  26
ATOM     26  C   UNL     1      -0.577  11.245  18.312  0.00  0.00    +0.000 C 
BRANCH  26  27
ATOM     27  C   UNL     1      -1.966  11.466  17.717  0.00  0.00    +0.000 C 
BRANCH  27  29
ATOM     28  C   UNL     1      -3.607   9.577  17.484  0.00  0.00    +0.000 C 
ATOM     29  C   UNL     1      -2.416  10.284  16.839  0.00  0.00    +0.000 C 
ATOM     30  C   UNL     1      -2.784  10.716  15.416  0.00  0.00    +0.000 C 
ENDBRANCH  27  29
ENDBRANCH  26  27
ENDBRANCH  25  26
ENDBRANCH  24  25
ENDBRANCH  23  24
ENDBRANCH  22  23
ENDBRANCH  21  22
ENDBRANCH  20  21
ENDBRANCH   1  20
TORSDOF 20
ENDMDL
MODEL 7
REMARK VINA RESULT:      -6.0      2.672      8.581
REMARK  Name = 
REMARK  24 active torsions:
REMARK  status: ('A' for Active; 'I' for Inactive)
REMARK    1  A    between atoms: C_1  and  C_2
REMARK    2  A    between atoms: C_2  and  C_3
REMARK    3  A    between atoms: C_2  and  C_4
REMARK    4  A    between atoms: C_4  and  C_5
REMARK    5  A    between atoms: C_5  and  C_6
REMARK    6  A    between atoms: C_6  and  C_7
REMARK    7  A    between atoms: C_7  and  C_8
REMARK    8  A    between atoms: C_8  and  C_9
REMARK    9  A    between atoms: C_9  and  C_10
REMARK   10  A    between atoms: C_10  and  O_11
REMARK   11  A    between atoms: O_11  and  P_12
REMARK   12  A    between atoms: P_12  and  O_13
REMARK   13  A    between atoms: P_12  and  O_24
REMARK   14  A    between atoms: O_13  and  C_14
REMARK   15  A    between atoms: C_14  and  C_15
REMARK   16  A    between atoms: C_15  and  C_16
REMARK   17  A    between atoms: C_16  and  C_17
REMARK   18  A    between atoms: C_17  and  C_18
REMARK   19  A    between atoms: C_18  and  C_19
REMARK   20  A    between atoms: C_19  and  C_20
REMARK   21  A    between atoms: C_20  and  C_21
REMARK   22  A    between atoms: C_21  and  C_22
REMARK   23  A    between atoms: C_21  and  C_23
REMARK   24  A    between atoms: O_24  and  C_25
REMARK                            x       y       z     vdW  Elec       q    Type
REMARK                         _______ _______ _______ _____ _____    ______ ____
ROOT
ATOM      1  P   UNL     1       3.991   4.568  17.442  0.00  0.00    +0.000 P 
ENDROOT
BRANCH   1   2
ATOM      2  O   UNL     1       5.578   4.251  17.394  0.00  0.00    +0.000 OA
BRANCH   2   3
ATOM      3  C   UNL     1       6.295   4.981  16.419  0.00  0.00    +0.000 C 
BRANCH   3   4
ATOM      4  C   UNL     1       6.248   6.501  16.658  0.00  0.00    +0.000 C 
BRANCH   4   5
ATOM      5  C   UNL     1       7.365   6.861  17.616  0.00  0.00    +0.000 C 
BRANCH   5   6
ATOM      6  C   UNL     1       8.050   8.166  17.274  0.00  0.00    +0.000 C 
BRANCH   6   7
ATOM      7  C   UNL     1       8.272   8.991  18.541  0.00  0.00    +0.000 C 
BRANCH   7   8
ATOM      8  C   UNL     1       9.029  10.259  18.183  0.00  0.00    +0.000 C 
BRANCH   8   9
ATOM      9  C   UNL     1       9.933  10.736  19.314  0.00  0.00    +0.000 C 
BRANCH   9  10
ATOM     10  C   UNL     1      11.105  11.586  18.792  0.00  0.00    +0.000 C 
ATOM     11  C   UNL     1      10.678  12.551  17.681  0.00  0.00    +0.000 C 
ATOM     12  C   UNL     1      11.729  12.372  19.944  0.00  0.00    +0.000 C 
ENDBRANCH   9  10
ENDBRANCH   8   9
ENDBRANCH   7   8
ENDBRANCH   6   7
ENDBRANCH   5   6
ENDBRANCH   4   5
ENDBRANCH   3   4
ENDBRANCH   2   3
ENDBRANCH   1   2
BRANCH   1  13
ATOM     13  O   UNL     1       3.451   3.127  17.984  0.00  0.00    +0.000 OA
BRANCH  13  14
ATOM     14  C   UNL     1       2.710   3.006  19.135  0.00  0.00    +0.000 A 
ATOM     15  C   UNL     1       3.381   2.700  20.328  0.00  0.00    +0.000 A 
ATOM     16  C   UNL     1       2.648   2.560  21.516  0.00  0.00    +0.000 A 
ATOM     17  C   UNL     1       1.268   2.745  21.522  0.00  0.00    +0.000 A 
ATOM     18  C   UNL     1       0.602   3.069  20.342  0.00  0.00    +0.000 A 
ATOM     19  C   UNL     1       1.333   3.197  19.159  0.00  0.00    +0.000 A 
ENDBRANCH  13  14
ENDBRANCH   1  13
BRANCH   1  20
ATOM     20  O   UNL     1       3.920   5.434  18.835  0.00  0.00    +0.000 OA
BRANCH  20  21
ATOM     21  C   UNL     1       2.920   6.447  18.806  0.00  0.00    +0.000 C 
BRANCH  21  22
ATOM     22  C   UNL     1       3.186   7.669  17.928  0.00  0.00    +0.000 C 
BRANCH  22  23
ATOM     23  C   UNL     1       1.858   8.452  17.883  0.00  0.00    +0.000 C 
BRANCH  23  24
ATOM     24  C   UNL     1       2.055   9.955  17.836  0.00  0.00    +0.000 C 
BRANCH  24  25
ATOM     25  C   UNL     1       0.966  10.686  18.630  0.00  0.00    +0.000 C 
BRANCH  25  26
ATOM     26  C   UNL     1       0.545   9.819  19.808  0.00  0.00    +0.000 C 
BRANCH  26  27
ATOM     27  C   UNL     1      -0.691  10.353  20.529  0.00  0.00    +0.000 C 
BRANCH  27  29
ATOM     28  C   UNL     1      -2.173  12.368  20.293  0.00  0.00    +0.000 C 
ATOM     29  C   UNL     1      -0.741  11.892  20.535  0.00  0.00    +0.000 C 
ATOM     30  C   UNL     1      -0.213  12.492  21.841  0.00  0.00    +0.000 C 
ENDBRANCH  27  29
ENDBRANCH  26  27
ENDBRANCH  25  26
ENDBRANCH  24  25
ENDBRANCH  23  24
ENDBRANCH  22  23
ENDBRANCH  21  22
ENDBRANCH  20  21
ENDBRANCH   1  20
TORSDOF 20
ENDMDL
MODEL 8
REMARK VINA RESULT:      -6.0      2.360      5.509
REMARK  Name = 
REMARK  24 active torsions:
REMARK  status: ('A' for Active; 'I' for Inactive)
REMARK    1  A    between atoms: C_1  and  C_2
REMARK    2  A    between atoms: C_2  and  C_3
REMARK    3  A    between atoms: C_2  and  C_4
REMARK    4  A    between atoms: C_4  and  C_5
REMARK    5  A    between atoms: C_5  and  C_6
REMARK    6  A    between atoms: C_6  and  C_7
REMARK    7  A    between atoms: C_7  and  C_8
REMARK    8  A    between atoms: C_8  and  C_9
REMARK    9  A    between atoms: C_9  and  C_10
REMARK   10  A    between atoms: C_10  and  O_11
REMARK   11  A    between atoms: O_11  and  P_12
REMARK   12  A    between atoms: P_12  and  O_13
REMARK   13  A    between atoms: P_12  and  O_24
REMARK   14  A    between atoms: O_13  and  C_14
REMARK   15  A    between atoms: C_14  and  C_15
REMARK   16  A    between atoms: C_15  and  C_16
REMARK   17  A    between atoms: C_16  and  C_17
REMARK   18  A    between atoms: C_17  and  C_18
REMARK   19  A    between atoms: C_18  and  C_19
REMARK   20  A    between atoms: C_19  and  C_20
REMARK   21  A    between atoms: C_20  and  C_21
REMARK   22  A    between atoms: C_21  and  C_22
REMARK   23  A    between atoms: C_21  and  C_23
REMARK   24  A    between atoms: O_24  and  C_25
REMARK                            x       y       z     vdW  Elec       q    Type
REMARK                         _______ _______ _______ _____ _____    ______ ____
ROOT
ATOM      1  P   UNL     1       5.013   4.922  18.825  0.00  0.00    +0.000 P 
ENDROOT
BRANCH   1   2
ATOM      2  O   UNL     1       3.899   5.798  19.609  0.00  0.00    +0.000 OA
BRANCH   2   3
ATOM      3  C   UNL     1       2.957   6.437  18.772  0.00  0.00    +0.000 C 
BRANCH   3   4
ATOM      4  C   UNL     1       2.194   7.566  19.487  0.00  0.00    +0.000 C 
BRANCH   4   5
ATOM      5  C   UNL     1       1.528   6.980  20.715  0.00  0.00    +0.000 C 
BRANCH   5   6
ATOM      6  C   UNL     1       0.549   7.925  21.376  0.00  0.00    +0.000 C 
BRANCH   6   7
ATOM      7  C   UNL     1       1.276   9.176  21.867  0.00  0.00    +0.000 C 
BRANCH   7   8
ATOM      8  C   UNL     1       0.302  10.341  21.888  0.00  0.00    +0.000 C 
BRANCH   8   9
ATOM      9  C   UNL     1      -0.580  10.387  20.645  0.00  0.00    +0.000 C 
BRANCH   9  10
ATOM     10  C   UNL     1       0.185  10.914  19.417  0.00  0.00    +0.000 C 
ATOM     11  C   UNL     1      -0.141  10.129  18.143  0.00  0.00    +0.000 C 
ATOM     12  C   UNL     1      -0.133  12.393  19.205  0.00  0.00    +0.000 C 
ENDBRANCH   9  10
ENDBRANCH   8   9
ENDBRANCH   7   8
ENDBRANCH   6   7
ENDBRANCH   5   6
ENDBRANCH   4   5
ENDBRANCH   3   4
ENDBRANCH   2   3
ENDBRANCH   1   2
BRANCH   1  13
ATOM     13  O   UNL     1       4.432   3.428  19.126  0.00  0.00    +0.000 OA
BRANCH  13  14
ATOM     14  C   UNL     1       3.118   3.204  19.460  0.00  0.00    +0.000 A 
ATOM     15  C   UNL     1       2.206   2.940  18.427  0.00  0.00    +0.000 A 
ATOM     16  C   UNL     1       0.855   2.718  18.738  0.00  0.00    +0.000 A 
ATOM     17  C   UNL     1       0.422   2.736  20.061  0.00  0.00    +0.000 A 
ATOM     18  C   UNL     1       1.330   2.978  21.090  0.00  0.00    +0.000 A 
ATOM     19  C   UNL     1       2.671   3.209  20.776  0.00  0.00    +0.000 A 
ENDBRANCH  13  14
ENDBRANCH   1  13
BRANCH   1  20
ATOM     20  O   UNL     1       4.490   5.119  17.282  0.00  0.00    +0.000 OA
BRANCH  20  21
ATOM     21  C   UNL     1       5.408   5.848  16.475  0.00  0.00    +0.000 C 
BRANCH  21  22
ATOM     22  C   UNL     1       6.117   7.038  17.121  0.00  0.00    +0.000 C 
BRANCH  22  23
ATOM     23  C   UNL     1       7.516   6.526  17.524  0.00  0.00    +0.000 C 
BRANCH  23  24
ATOM     24  C   UNL     1       8.268   7.495  18.417  0.00  0.00    +0.000 C 
BRANCH  24  25
ATOM     25  C   UNL     1       8.066   8.944  17.963  0.00  0.00    +0.000 C 
BRANCH  25  26
ATOM     26  C   UNL     1       8.967   9.852  18.789  0.00  0.00    +0.000 C 
BRANCH  26  27
ATOM     27  C   UNL     1       9.083  11.261  18.212  0.00  0.00    +0.000 C 
BRANCH  27  29
ATOM     28  C   UNL     1      10.623  11.563  20.174  0.00  0.00    +0.000 C 
ATOM     29  C   UNL     1      10.321  12.007  18.744  0.00  0.00    +0.000 C 
ATOM     30  C   UNL     1      11.558  11.792  17.867  0.00  0.00    +0.000 C 
ENDBRANCH  27  29
ENDBRANCH  26  27
ENDBRANCH  25  26
ENDBRANCH  24  25
ENDBRANCH  23  24
ENDBRANCH  22  23
ENDBRANCH  21  22
ENDBRANCH  20  21
ENDBRANCH   1  20
TORSDOF 20
ENDMDL
MODEL 9
REMARK VINA RESULT:      -6.0      1.636      3.261
REMARK  Name = 
REMARK  24 active torsions:
REMARK  status: ('A' for Active; 'I' for Inactive)
REMARK    1  A    between atoms: C_1  and  C_2
REMARK    2  A    between atoms: C_2  and  C_3
REMARK    3  A    between atoms: C_2  and  C_4
REMARK    4  A    between atoms: C_4  and  C_5
REMARK    5  A    between atoms: C_5  and  C_6
REMARK    6  A    between atoms: C_6  and  C_7
REMARK    7  A    between atoms: C_7  and  C_8
REMARK    8  A    between atoms: C_8  and  C_9
REMARK    9  A    between atoms: C_9  and  C_10
REMARK   10  A    between atoms: C_10  and  O_11
REMARK   11  A    between atoms: O_11  and  P_12
REMARK   12  A    between atoms: P_12  and  O_13
REMARK   13  A    between atoms: P_12  and  O_24
REMARK   14  A    between atoms: O_13  and  C_14
REMARK   15  A    between atoms: C_14  and  C_15
REMARK   16  A    between atoms: C_15  and  C_16
REMARK   17  A    between atoms: C_16  and  C_17
REMARK   18  A    between atoms: C_17  and  C_18
REMARK   19  A    between atoms: C_18  and  C_19
REMARK   20  A    between atoms: C_19  and  C_20
REMARK   21  A    between atoms: C_20  and  C_21
REMARK   22  A    between atoms: C_21  and  C_22
REMARK   23  A    between atoms: C_21  and  C_23
REMARK   24  A    between atoms: O_24  and  C_25
REMARK                            x       y       z     vdW  Elec       q    Type
REMARK                         _______ _______ _______ _____ _____    ______ ____
ROOT
ATOM      1  P   UNL     1       7.316   4.921  17.476  0.00  0.00    +0.000 P 
ENDROOT
BRANCH   1   2
ATOM      2  O   UNL     1       5.725   4.711  17.696  0.00  0.00    +0.000 OA
BRANCH   2   3
ATOM      3  C   UNL     1       5.350   4.402  19.022  0.00  0.00    +0.000 C 
BRANCH   3   4
ATOM      4  C   UNL     1       4.200   3.382  19.095  0.00  0.00    +0.000 C 
BRANCH   4   5
ATOM      5  C   UNL     1       3.788   3.036  17.678  0.00  0.00    +0.000 C 
BRANCH   5   6
ATOM      6  C   UNL     1       2.413   3.550  17.311  0.00  0.00    +0.000 C 
BRANCH   6   7
ATOM      7  C   UNL     1       1.952   4.592  18.327  0.00  0.00    +0.000 C 
BRANCH   7   8
ATOM      8  C   UNL     1       1.920   5.957  17.661  0.00  0.00    +0.000 C 
BRANCH   8   9
ATOM      9  C   UNL     1       2.988   6.898  18.209  0.00  0.00    +0.000 C 
BRANCH   9  10
ATOM     10  C   UNL     1       2.379   8.202  18.754  0.00  0.00    +0.000 C 
ATOM     11  C   UNL     1       1.279   8.759  17.844  0.00  0.00    +0.000 C 
ATOM     12  C   UNL     1       1.817   7.966  20.155  0.00  0.00    +0.000 C 
ENDBRANCH   9  10
ENDBRANCH   8   9
ENDBRANCH   7   8
ENDBRANCH   6   7
ENDBRANCH   5   6
ENDBRANCH   4   5
ENDBRANCH   3   4
ENDBRANCH   2   3
ENDBRANCH   1   2
BRANCH   1  13
ATOM     13  O   UNL     1       7.283   5.705  16.046  0.00  0.00    +0.000 OA
BRANCH  13  14
ATOM     14  C   UNL     1       7.025   5.060  14.860  0.00  0.00    +0.000 A 
ATOM     15  C   UNL     1       7.778   5.417  13.731  0.00  0.00    +0.000 A 
ATOM     16  C   UNL     1       7.529   4.781  12.505  0.00  0.00    +0.000 A 
ATOM     17  C   UNL     1       6.559   3.788  12.408  0.00  0.00    +0.000 A 
ATOM     18  C   UNL     1       5.824   3.417  13.532  0.00  0.00    +0.000 A 
ATOM     19  C   UNL     1       6.067   4.059  14.749  0.00  0.00    +0.000 A 
ENDBRANCH  13  14
ENDBRANCH   1  13
BRANCH   1  20
ATOM     20  O   UNL     1       7.573   6.191  18.484  0.00  0.00    +0.000 OA
BRANCH  20  21
ATOM     21  C   UNL     1       8.176   7.302  17.831  0.00  0.00    +0.000 C 
BRANCH  21  22
ATOM     22  C   UNL     1       7.353   8.585  17.727  0.00  0.00    +0.000 C 
BRANCH  22  23
ATOM     23  C   UNL     1       8.369   9.744  17.788  0.00  0.00    +0.000 C 
BRANCH  23  24
ATOM     24  C   UNL     1       9.147   9.785  19.089  0.00  0.00    +0.000 C 
BRANCH  24  25
ATOM     25  C   UNL     1       9.434  11.226  19.524  0.00  0.00    +0.000 C 
BRANCH  25  26
ATOM     26  C   UNL     1      10.940  11.423  19.626  0.00  0.00    +0.000 C 
BRANCH  26  27
ATOM     27  C   UNL     1      11.596  11.706  18.276  0.00  0.00    +0.000 C 
BRANCH  27  29
ATOM     28  C   UNL     1      11.310  13.904  17.091  0.00  0.00    +0.000 C 
ATOM     29  C   UNL     1      12.098  13.158  18.167  0.00  0.00    +0.000 C 
ATOM     30  C   UNL     1      12.000  13.914  19.495  0.00  0.00    +0.000 C 
ENDBRANCH  27  29
ENDBRANCH  26  27
ENDBRANCH  25  26
ENDBRANCH  24  25
ENDBRANCH  23  24
ENDBRANCH  22  23
ENDBRANCH  21  22
ENDBRANCH  20  21
ENDBRANCH   1  20
TORSDOF 20
ENDMDL
