MODEL 1
REMARK VINA RESULT:      -7.7      0.000      0.000
REMARK  Name = 
REMARK  2 active torsions:
REMARK  status: ('A' for Active; 'I' for Inactive)
REMARK    1  A    between atoms: C_1  and  N_2
REMARK    2  A    between atoms: N_5  and  C_6
REMARK                            x       y       z     vdW  Elec       q    Type
REMARK                         _______ _______ _______ _____ _____    ______ ____
ROOT
ATOM      1  C   UNL     1       2.787   5.879  17.989  0.00  0.00    +0.000 A 
ATOM      2  C   UNL     1       1.875   4.824  18.171  0.00  0.00    +0.000 A 
ATOM      3  C   UNL     1       2.110   3.551  17.672  0.00  0.00    +0.000 A 
ATOM      4  C   UNL     1       3.305   3.299  17.017  0.00  0.00    +0.000 A 
ATOM      5  C   UNL     1       4.268   4.312  16.864  0.00  0.00    +0.000 A 
ATOM      6  C   UNL     1       4.011   5.633  17.287  0.00  0.00    +0.000 A 
ATOM      7  N   UNL     1       4.850   6.733  17.114  0.00  0.00    +0.000 NA
ATOM      8  C   UNL     1       6.133   6.658  17.041  0.00  0.00    +0.000 C 
ATOM      9  S   UNL     1       7.130   8.058  17.595  0.00  0.00    +0.000 S 
ATOM     10  C   UNL     1       8.049   6.909  18.592  0.00  0.00    +0.000 C 
ATOM     11  C   UNL     1       7.607   5.656  18.385  0.00  0.00    +0.000 C 
ATOM     12  C   UNL     1       7.078   5.533  16.997  0.00  0.00    +0.000 C 
ATOM     13  N   UNL     1       6.738   4.245  16.497  0.00  0.00    +0.000 NA
ATOM     14  C   UNL     1       5.530   3.782  16.361  0.00  0.00    +0.000 C 
ENDROOT
BRANCH   1  19
ATOM     15  C   UNL     1       0.220  10.467  19.869  0.00  0.00    +0.000 C 
ATOM     16  N   UNL     1       1.349   9.603  19.541  0.00  0.00    +0.000 NA
ATOM     17  C   UNL     1       1.369   9.313  18.090  0.00  0.00    +0.000 C 
ATOM     18  C   UNL     1       2.512   8.360  17.688  0.00  0.00    +0.000 C 
ATOM     19  N   UNL     1       2.417   7.129  18.490  0.00  0.00    +0.000 N 
ATOM     20  C   UNL     1       2.432   7.377  19.942  0.00  0.00    +0.000 C 
ATOM     21  C   UNL     1       1.265   8.327  20.288  0.00  0.00    +0.000 C 
ENDBRANCH   1  19
TORSDOF 1
ENDMDL
MODEL 2
REMARK VINA RESULT:      -6.8      1.664      1.935
REMARK  Name = 
REMARK  2 active torsions:
REMARK  status: ('A' for Active; 'I' for Inactive)
REMARK    1  A    between atoms: C_1  and  N_2
REMARK    2  A    between atoms: N_5  and  C_6
REMARK                            x       y       z     vdW  Elec       q    Type
REMARK                         _______ _______ _______ _____ _____    ______ ____
ROOT
ATOM      1  C   UNL     1       2.299   6.118  19.776  0.00  0.00    +0.000 A 
ATOM      2  C   UNL     1       1.499   5.476  20.738  0.00  0.00    +0.000 A 
ATOM      3  C   UNL     1       1.641   4.129  21.035  0.00  0.00    +0.000 A 
ATOM      4  C   UNL     1       2.635   3.404  20.398  0.00  0.00    +0.000 A 
ATOM      5  C   UNL     1       3.493   4.022  19.472  0.00  0.00    +0.000 A 
ATOM      6  C   UNL     1       3.311   5.368  19.093  0.00  0.00    +0.000 A 
ATOM      7  N   UNL     1       4.041   6.061  18.128  0.00  0.00    +0.000 NA
ATOM      8  C   UNL     1       5.264   5.800  17.824  0.00  0.00    +0.000 C 
ATOM      9  S   UNL     1       6.323   7.130  17.216  0.00  0.00    +0.000 S 
ATOM     10  C   UNL     1       7.504   6.651  18.455  0.00  0.00    +0.000 C 
ATOM     11  C   UNL     1       7.065   5.569  19.122  0.00  0.00    +0.000 C 
ATOM     12  C   UNL     1       6.203   4.744  18.229  0.00  0.00    +0.000 C 
ATOM     13  N   UNL     1       5.788   3.454  18.664  0.00  0.00    +0.000 NA
ATOM     14  C   UNL     1       4.601   3.149  19.101  0.00  0.00    +0.000 C 
ENDROOT
BRANCH   1  19
ATOM     15  C   UNL     1       0.127  11.125  18.599  0.00  0.00    +0.000 C 
ATOM     16  N   UNL     1       1.157  10.173  18.997  0.00  0.00    +0.000 NA
ATOM     17  C   UNL     1       1.413   9.206  17.907  0.00  0.00    +0.000 C 
ATOM     18  C   UNL     1       2.458   8.139  18.287  0.00  0.00    +0.000 C 
ATOM     19  N   UNL     1       2.029   7.465  19.525  0.00  0.00    +0.000 N 
ATOM     20  C   UNL     1       1.801   8.394  20.645  0.00  0.00    +0.000 C 
ATOM     21  C   UNL     1       0.743   9.432  20.212  0.00  0.00    +0.000 C 
ENDBRANCH   1  19
TORSDOF 1
ENDMDL
MODEL 3
REMARK VINA RESULT:      -6.6      1.647      2.175
REMARK  Name = 
REMARK  2 active torsions:
REMARK  status: ('A' for Active; 'I' for Inactive)
REMARK    1  A    between atoms: C_1  and  N_2
REMARK    2  A    between atoms: N_5  and  C_6
REMARK                            x       y       z     vdW  Elec       q    Type
REMARK                         _______ _______ _______ _____ _____    ______ ____
ROOT
ATOM      1  C   UNL     1       2.060   5.800  19.634  0.00  0.00    +0.000 A 
ATOM      2  C   UNL     1       1.474   5.207  20.766  0.00  0.00    +0.000 A 
ATOM      3  C   UNL     1       1.489   3.835  20.971  0.00  0.00    +0.000 A 
ATOM      4  C   UNL     1       2.144   3.028  20.055  0.00  0.00    +0.000 A 
ATOM      5  C   UNL     1       2.791   3.587  18.939  0.00  0.00    +0.000 A 
ATOM      6  C   UNL     1       2.714   4.969  18.667  0.00  0.00    +0.000 A 
ATOM      7  N   UNL     1       3.241   5.622  17.553  0.00  0.00    +0.000 NA
ATOM      8  C   UNL     1       4.275   5.220  16.903  0.00  0.00    +0.000 C 
ATOM      9  S   UNL     1       5.309   6.432  16.055  0.00  0.00    +0.000 S 
ATOM     10  C   UNL     1       6.704   5.710  16.887  0.00  0.00    +0.000 C 
ATOM     11  C   UNL     1       6.312   4.654  17.621  0.00  0.00    +0.000 C 
ATOM     12  C   UNL     1       5.120   4.020  16.991  0.00  0.00    +0.000 C 
ATOM     13  N   UNL     1       4.654   2.771  17.489  0.00  0.00    +0.000 NA
ATOM     14  C   UNL     1       3.605   2.600  18.240  0.00  0.00    +0.000 C 
ENDROOT
BRANCH   1  19
ATOM     15  C   UNL     1       0.468  11.090  18.821  0.00  0.00    +0.000 C 
ATOM     16  N   UNL     1       1.364  10.005  19.207  0.00  0.00    +0.000 NA
ATOM     17  C   UNL     1       1.647   9.134  18.044  0.00  0.00    +0.000 C 
ATOM     18  C   UNL     1       2.549   7.937  18.401  0.00  0.00    +0.000 C 
ATOM     19  N   UNL     1       1.936   7.185  19.509  0.00  0.00    +0.000 N 
ATOM     20  C   UNL     1       1.674   8.013  20.699  0.00  0.00    +0.000 C 
ATOM     21  C   UNL     1       0.762   9.189  20.286  0.00  0.00    +0.000 C 
ENDBRANCH   1  19
TORSDOF 1
ENDMDL
MODEL 4
REMARK VINA RESULT:      -6.5      2.542      4.086
REMARK  Name = 
REMARK  2 active torsions:
REMARK  status: ('A' for Active; 'I' for Inactive)
REMARK    1  A    between atoms: C_1  and  N_2
REMARK    2  A    between atoms: N_5  and  C_6
REMARK                            x       y       z     vdW  Elec       q    Type
REMARK                         _______ _______ _______ _____ _____    ______ ____
ROOT
ATOM      1  C   UNL     1       3.335   6.925  18.067  0.00  0.00    +0.000 A 
ATOM      2  C   UNL     1       4.037   7.499  16.992  0.00  0.00    +0.000 A 
ATOM      3  C   UNL     1       5.015   6.804  16.295  0.00  0.00    +0.000 A 
ATOM      4  C   UNL     1       5.274   5.487  16.638  0.00  0.00    +0.000 A 
ATOM      5  C   UNL     1       4.555   4.859  17.670  0.00  0.00    +0.000 A 
ATOM      6  C   UNL     1       3.618   5.573  18.447  0.00  0.00    +0.000 A 
ATOM      7  N   UNL     1       2.910   5.083  19.543  0.00  0.00    +0.000 NA
ATOM      8  C   UNL     1       2.589   3.847  19.701  0.00  0.00    +0.000 C 
ATOM      9  S   UNL     1       1.100   3.436  20.636  0.00  0.00    +0.000 S 
ATOM     10  C   UNL     1       0.609   2.424  19.260  0.00  0.00    +0.000 C 
ATOM     11  C   UNL     1       1.567   2.425  18.317  0.00  0.00    +0.000 C 
ATOM     12  C   UNL     1       2.899   2.619  18.955  0.00  0.00    +0.000 C 
ATOM     13  N   UNL     1       4.075   2.459  18.168  0.00  0.00    +0.000 NA
ATOM     14  C   UNL     1       4.816   3.425  17.711  0.00  0.00    +0.000 C 
ENDROOT
BRANCH   1  19
ATOM     15  C   UNL     1       0.567  10.863  20.897  0.00  0.00    +0.000 C 
ATOM     16  N   UNL     1       0.733   9.644  20.113  0.00  0.00    +0.000 NA
ATOM     17  C   UNL     1       1.588   8.678  20.839  0.00  0.00    +0.000 C 
ATOM     18  C   UNL     1       1.844   7.387  20.039  0.00  0.00    +0.000 C 
ATOM     19  N   UNL     1       2.411   7.739  18.726  0.00  0.00    +0.000 N 
ATOM     20  C   UNL     1       1.567   8.670  17.957  0.00  0.00    +0.000 C 
ATOM     21  C   UNL     1       1.352   9.945  18.802  0.00  0.00    +0.000 C 
ENDBRANCH   1  19
TORSDOF 1
ENDMDL
MODEL 5
REMARK VINA RESULT:      -6.2      6.223      8.611
REMARK  Name = 
REMARK  2 active torsions:
REMARK  status: ('A' for Active; 'I' for Inactive)
REMARK    1  A    between atoms: C_1  and  N_2
REMARK    2  A    between atoms: N_5  and  C_6
REMARK                            x       y       z     vdW  Elec       q    Type
REMARK                         _______ _______ _______ _____ _____    ______ ____
ROOT
ATOM      1  C   UNL     1      -1.125  11.466  22.365  0.00  0.00    +0.000 A 
ATOM      2  C   UNL     1      -0.927  10.350  23.197  0.00  0.00    +0.000 A 
ATOM      3  C   UNL     1      -0.269   9.210  22.759  0.00  0.00    +0.000 A 
ATOM      4  C   UNL     1       0.252   9.190  21.475  0.00  0.00    +0.000 A 
ATOM      5  C   UNL     1       0.125  10.307  20.631  0.00  0.00    +0.000 A 
ATOM      6  C   UNL     1      -0.613  11.441  21.027  0.00  0.00    +0.000 A 
ATOM      7  N   UNL     1      -0.877  12.568  20.249  0.00  0.00    +0.000 NA
ATOM      8  C   UNL     1      -0.108  12.993  19.310  0.00  0.00    +0.000 C 
ATOM      9  S   UNL     1      -0.082  14.756  18.922  0.00  0.00    +0.000 S 
ATOM     10  C   UNL     1       1.688  14.684  19.070  0.00  0.00    +0.000 C 
ATOM     11  C   UNL     1       2.083  13.421  19.311  0.00  0.00    +0.000 C 
ATOM     12  C   UNL     1       1.119  12.467  18.693  0.00  0.00    +0.000 C 
ATOM     13  N   UNL     1       1.443  11.082  18.655  0.00  0.00    +0.000 NA
ATOM     14  C   UNL     1       0.937  10.165  19.428  0.00  0.00    +0.000 C 
ENDROOT
BRANCH   1  19
ATOM     15  C   UNL     1      -4.294  15.947  23.389  0.00  0.00    +0.000 C 
ATOM     16  N   UNL     1      -3.465  14.791  23.712  0.00  0.00    +0.000 NA
ATOM     17  C   UNL     1      -2.105  14.962  23.157  0.00  0.00    +0.000 C 
ATOM     18  C   UNL     1      -1.194  13.748  23.421  0.00  0.00    +0.000 C 
ATOM     19  N   UNL     1      -1.847  12.535  22.900  0.00  0.00    +0.000 N 
ATOM     20  C   UNL     1      -3.191  12.311  23.460  0.00  0.00    +0.000 C 
ATOM     21  C   UNL     1      -4.060  13.552  23.160  0.00  0.00    +0.000 C 
ENDBRANCH   1  19
TORSDOF 1
ENDMDL
MODEL 6
REMARK VINA RESULT:      -6.1      7.244      9.627
REMARK  Name = 
REMARK  2 active torsions:
REMARK  status: ('A' for Active; 'I' for Inactive)
REMARK    1  A    between atoms: C_1  and  N_2
REMARK    2  A    between atoms: N_5  and  C_6
REMARK                            x       y       z     vdW  Elec       q    Type
REMARK                         _______ _______ _______ _____ _____    ______ ____
ROOT
ATOM      1  C   UNL     1      -4.034  11.343  18.397  0.00  0.00    +0.000 A 
ATOM      2  C   UNL     1      -4.205  10.496  17.288  0.00  0.00    +0.000 A 
ATOM      3  C   UNL     1      -3.129   9.944  16.608  0.00  0.00    +0.000 A 
ATOM      4  C   UNL     1      -1.846  10.197  17.067  0.00  0.00    +0.000 A 
ATOM      5  C   UNL     1      -1.635  10.993  18.206  0.00  0.00    +0.000 A 
ATOM      6  C   UNL     1      -2.709  11.633  18.860  0.00  0.00    +0.000 A 
ATOM      7  N   UNL     1      -2.615  12.508  19.941  0.00  0.00    +0.000 NA
ATOM      8  C   UNL     1      -1.676  12.471  20.820  0.00  0.00    +0.000 C 
ATOM      9  S   UNL     1      -2.018  13.039  22.499  0.00  0.00    +0.000 S 
ATOM     10  C   UNL     1      -1.347  11.497  23.074  0.00  0.00    +0.000 C 
ATOM     11  C   UNL     1      -0.893  10.772  22.037  0.00  0.00    +0.000 C 
ATOM     12  C   UNL     1      -0.442  11.682  20.947  0.00  0.00    +0.000 C 
ATOM     13  N   UNL     1       0.256  11.137  19.833  0.00  0.00    +0.000 NA
ATOM     14  C   UNL     1      -0.246  10.940  18.649  0.00  0.00    +0.000 C 
ENDROOT
BRANCH   1  19
ATOM     15  C   UNL     1      -7.915  13.928  21.468  0.00  0.00    +0.000 C 
ATOM     16  N   UNL     1      -7.388  13.158  20.347  0.00  0.00    +0.000 NA
ATOM     17  C   UNL     1      -6.791  11.892  20.828  0.00  0.00    +0.000 C 
ATOM     18  C   UNL     1      -6.170  11.055  19.693  0.00  0.00    +0.000 C 
ATOM     19  N   UNL     1      -5.190  11.881  18.967  0.00  0.00    +0.000 N 
ATOM     20  C   UNL     1      -5.760  13.133  18.440  0.00  0.00    +0.000 C 
ATOM     21  C   UNL     1      -6.358  13.932  19.618  0.00  0.00    +0.000 C 
ENDBRANCH   1  19
TORSDOF 1
ENDMDL
MODEL 7
REMARK VINA RESULT:      -6.1      7.231      9.717
REMARK  Name = 
REMARK  2 active torsions:
REMARK  status: ('A' for Active; 'I' for Inactive)
REMARK    1  A    between atoms: C_1  and  N_2
REMARK    2  A    between atoms: N_5  and  C_6
REMARK                            x       y       z     vdW  Elec       q    Type
REMARK                         _______ _______ _______ _____ _____    ______ ____
ROOT
ATOM      1  C   UNL     1      -3.627  11.373  18.211  0.00  0.00    +0.000 A 
ATOM      2  C   UNL     1      -3.597  10.359  17.237  0.00  0.00    +0.000 A 
ATOM      3  C   UNL     1      -2.422   9.713  16.882  0.00  0.00    +0.000 A 
ATOM      4  C   UNL     1      -1.250  10.043  17.542  0.00  0.00    +0.000 A 
ATOM      5  C   UNL     1      -1.249  11.011  18.562  0.00  0.00    +0.000 A 
ATOM      6  C   UNL     1      -2.414  11.740  18.878  0.00  0.00    +0.000 A 
ATOM      7  N   UNL     1      -2.513  12.777  19.806  0.00  0.00    +0.000 NA
ATOM      8  C   UNL     1      -1.768  12.885  20.849  0.00  0.00    +0.000 C 
ATOM      9  S   UNL     1      -2.422  13.711  22.316  0.00  0.00    +0.000 S 
ATOM     10  C   UNL     1      -1.919  12.284  23.248  0.00  0.00    +0.000 C 
ATOM     11  C   UNL     1      -1.287  11.405  22.450  0.00  0.00    +0.000 C 
ATOM     12  C   UNL     1      -0.606  12.134  21.343  0.00  0.00    +0.000 C 
ATOM     13  N   UNL     1       0.285  11.422  20.491  0.00  0.00    +0.000 NA
ATOM     14  C   UNL     1       0.023  11.037  19.276  0.00  0.00    +0.000 C 
ENDROOT
BRANCH   1  19
ATOM     15  C   UNL     1      -7.916  14.810  19.196  0.00  0.00    +0.000 C 
ATOM     16  N   UNL     1      -7.255  13.543  18.904  0.00  0.00    +0.000 NA
ATOM     17  C   UNL     1      -6.336  13.177  20.005  0.00  0.00    +0.000 C 
ATOM     18  C   UNL     1      -5.567  11.870  19.733  0.00  0.00    +0.000 C 
ATOM     19  N   UNL     1      -4.859  11.988  18.447  0.00  0.00    +0.000 N 
ATOM     20  C   UNL     1      -5.749  12.314  17.319  0.00  0.00    +0.000 C 
ATOM     21  C   UNL     1      -6.485  13.632  17.642  0.00  0.00    +0.000 C 
ENDBRANCH   1  19
TORSDOF 1
ENDMDL
MODEL 8
REMARK VINA RESULT:      -6.1      6.436      9.054
REMARK  Name = 
REMARK  2 active torsions:
REMARK  status: ('A' for Active; 'I' for Inactive)
REMARK    1  A    between atoms: C_1  and  N_2
REMARK    2  A    between atoms: N_5  and  C_6
REMARK                            x       y       z     vdW  Elec       q    Type
REMARK                         _______ _______ _______ _____ _____    ______ ____
ROOT
ATOM      1  C   UNL     1       0.892  12.009  19.578  0.00  0.00    +0.000 A 
ATOM      2  C   UNL     1       1.198  10.961  18.693  0.00  0.00    +0.000 A 
ATOM      3  C   UNL     1       1.116   9.628  19.071  0.00  0.00    +0.000 A 
ATOM      4  C   UNL     1       0.672   9.321  20.347  0.00  0.00    +0.000 A 
ATOM      5  C   UNL     1       0.302  10.338  21.243  0.00  0.00    +0.000 A 
ATOM      6  C   UNL     1       0.459  11.699  20.909  0.00  0.00    +0.000 A 
ATOM      7  N   UNL     1       0.208  12.789  21.741  0.00  0.00    +0.000 NA
ATOM      8  C   UNL     1      -0.660  12.786  22.691  0.00  0.00    +0.000 C 
ATOM      9  S   UNL     1      -1.457  14.337  23.161  0.00  0.00    +0.000 S 
ATOM     10  C   UNL     1      -3.015  13.497  22.991  0.00  0.00    +0.000 C 
ATOM     11  C   UNL     1      -2.815  12.202  22.688  0.00  0.00    +0.000 C 
ATOM     12  C   UNL     1      -1.521  11.745  23.270  0.00  0.00    +0.000 C 
ATOM     13  N   UNL     1      -1.200  10.359  23.240  0.00  0.00    +0.000 NA
ATOM     14  C   UNL     1      -0.350   9.797  22.431  0.00  0.00    +0.000 C 
ENDROOT
BRANCH   1  19
ATOM     15  C   UNL     1       1.645  17.487  18.804  0.00  0.00    +0.000 C 
ATOM     16  N   UNL     1       1.481  16.090  18.418  0.00  0.00    +0.000 NA
ATOM     17  C   UNL     1       0.165  15.584  18.866  0.00  0.00    +0.000 C 
ATOM     18  C   UNL     1      -0.047  14.095  18.532  0.00  0.00    +0.000 C 
ATOM     19  N   UNL     1       1.062  13.311  19.101  0.00  0.00    +0.000 N 
ATOM     20  C   UNL     1       2.389  13.763  18.646  0.00  0.00    +0.000 C 
ATOM     21  C   UNL     1       2.549  15.254  19.013  0.00  0.00    +0.000 C 
ENDBRANCH   1  19
TORSDOF 1
ENDMDL
MODEL 9
REMARK VINA RESULT:      -6.1      6.336      8.790
REMARK  Name = 
REMARK  2 active torsions:
REMARK  status: ('A' for Active; 'I' for Inactive)
REMARK    1  A    between atoms: C_1  and  N_2
REMARK    2  A    between atoms: N_5  and  C_6
REMARK                            x       y       z     vdW  Elec       q    Type
REMARK                         _______ _______ _______ _____ _____    ______ ____
ROOT
ATOM      1  C   UNL     1      -3.560  11.393  18.668  0.00  0.00    +0.000 A 
ATOM      2  C   UNL     1      -4.062  10.978  17.422  0.00  0.00    +0.000 A 
ATOM      3  C   UNL     1      -3.251  10.400  16.456  0.00  0.00    +0.000 A 
ATOM      4  C   UNL     1      -1.915  10.180  16.747  0.00  0.00    +0.000 A 
ATOM      5  C   UNL     1      -1.387  10.528  18.002  0.00  0.00    +0.000 A 
ATOM      6  C   UNL     1      -2.172  11.195  18.966  0.00  0.00    +0.000 A 
ATOM      7  N   UNL     1      -1.737  11.663  20.205  0.00  0.00    +0.000 NA
ATOM      8  C   UNL     1      -0.775  11.137  20.878  0.00  0.00    +0.000 C 
ATOM      9  S   UNL     1      -0.792  11.255  22.679  0.00  0.00    +0.000 S 
ATOM     10  C   UNL     1      -0.541   9.496  22.719  0.00  0.00    +0.000 C 
ATOM     11  C   UNL     1      -0.405   9.017  21.470  0.00  0.00    +0.000 C 
ATOM     12  C   UNL     1       0.189  10.065  20.593  0.00  0.00    +0.000 C 
ATOM     13  N   UNL     1       0.602   9.714  19.277  0.00  0.00    +0.000 NA
ATOM     14  C   UNL     1      -0.037  10.004  18.181  0.00  0.00    +0.000 C 
ENDROOT
BRANCH   1  19
ATOM     15  C   UNL     1      -6.774  13.064  22.916  0.00  0.00    +0.000 C 
ATOM     16  N   UNL     1      -6.195  13.105  21.578  0.00  0.00    +0.000 NA
ATOM     17  C   UNL     1      -6.544  11.878  20.829  0.00  0.00    +0.000 C 
ATOM     18  C   UNL     1      -5.917  11.838  19.422  0.00  0.00    +0.000 C 
ATOM     19  N   UNL     1      -4.459  12.010  19.540  0.00  0.00    +0.000 N 
ATOM     20  C   UNL     1      -4.074  13.243  20.248  0.00  0.00    +0.000 C 
ATOM     21  C   UNL     1      -4.721  13.225  21.650  0.00  0.00    +0.000 C 
ENDBRANCH   1  19
TORSDOF 1
ENDMDL
