MODEL 1
REMARK VINA RESULT:      -7.4      0.000      0.000
REMARK  Name = 
REMARK  6 active torsions:
REMARK  status: ('A' for Active; 'I' for Inactive)
REMARK    1  A    between atoms: C_1  and  C_2
REMARK    2  A    between atoms: C_2  and  N_3
REMARK    3  A    between atoms: C_2  and  C_19
REMARK    4  A    between atoms: C_7  and  C_8
REMARK    5  A    between atoms: C_12  and  S_13
REMARK    6  A    between atoms: S_13  and  C_14
REMARK                            x       y       z     vdW  Elec       q    Type
REMARK                         _______ _______ _______ _____ _____    ______ ____
ROOT
ATOM      1  N   UNL     1       1.432  10.527  17.962  0.00  0.00    +0.000 N 
ATOM      2  C   UNL     1       1.693   9.269  18.390  0.00  0.00    +0.000 A 
ATOM      3  N   UNL     1       1.613   8.729  19.581  0.00  0.00    +0.000 NA
ATOM      4  N   UNL     1       2.159   7.469  19.507  0.00  0.00    +0.000 NA
ATOM      5  C   UNL     1       2.604   7.274  18.277  0.00  0.00    +0.000 A 
ATOM      6  N   UNL     1       2.232   8.360  17.524  0.00  0.00    +0.000 N 
ATOM      7  H   UNL     1       0.596  10.593  17.386  0.00  0.00    +0.000 HD
ATOM      8  H   UNL     1       2.446   8.542  16.560  0.00  0.00    +0.000 HD
ENDROOT
BRANCH   5   9
ATOM      9  C   UNL     1       3.409   6.139  17.823  0.00  0.00    +0.000 A 
ATOM     10  C   UNL     1       2.880   4.842  17.945  0.00  0.00    +0.000 A 
ATOM     11  C   UNL     1       3.617   3.712  17.579  0.00  0.00    +0.000 A 
ATOM     12  C   UNL     1       4.910   3.858  17.089  0.00  0.00    +0.000 A 
ATOM     13  C   UNL     1       5.452   5.142  16.974  0.00  0.00    +0.000 A 
ATOM     14  C   UNL     1       4.712   6.280  17.321  0.00  0.00    +0.000 A 
BRANCH  13  15
ATOM     15  S   UNL     1       7.116   5.315  16.372  0.00  0.00    +0.000 S 
ATOM     16  C   UNL     1       7.011   4.826  14.666  0.00  0.00    +0.000 C 
ATOM     17  O   UNL     1       7.444   6.728  16.427  0.00  0.00    +0.000 OA
ATOM     18  O   UNL     1       7.931   4.330  17.060  0.00  0.00    +0.000 OA
ENDBRANCH  13  15
ENDBRANCH   5   9
BRANCH   1  20
ATOM     19  C   UNL     1       2.355  12.727  18.586  0.00  0.00    +0.000 C 
ATOM     20  C   UNL     1       1.411  11.585  18.984  0.00  0.00    +0.000 C 
BRANCH  20  21
ATOM     21  C   UNL     1      -0.007  12.108  19.059  0.00  0.00    +0.000 C 
ATOM     22  C   UNL     1      -1.122  11.253  19.614  0.00  0.00    +0.000 C 
ATOM     23  C   UNL     1      -0.646  12.451  20.386  0.00  0.00    +0.000 C 
ENDBRANCH  20  21
ENDBRANCH   1  20
TORSDOF 4
ENDMDL
MODEL 2
REMARK VINA RESULT:      -7.3      0.797      1.184
REMARK  Name = 
REMARK  6 active torsions:
REMARK  status: ('A' for Active; 'I' for Inactive)
REMARK    1  A    between atoms: C_1  and  C_2
REMARK    2  A    between atoms: C_2  and  N_3
REMARK    3  A    between atoms: C_2  and  C_19
REMARK    4  A    between atoms: C_7  and  C_8
REMARK    5  A    between atoms: C_12  and  S_13
REMARK    6  A    between atoms: S_13  and  C_14
REMARK                            x       y       z     vdW  Elec       q    Type
REMARK                         _______ _______ _______ _____ _____    ______ ____
ROOT
ATOM      1  N   UNL     1       1.199  10.696  17.943  0.00  0.00    +0.000 N 
ATOM      2  C   UNL     1       1.505   9.461  18.406  0.00  0.00    +0.000 A 
ATOM      3  N   UNL     1       1.449   8.953  19.612  0.00  0.00    +0.000 NA
ATOM      4  N   UNL     1       2.040   7.712  19.572  0.00  0.00    +0.000 NA
ATOM      5  C   UNL     1       2.486   7.497  18.346  0.00  0.00    +0.000 A 
ATOM      6  N   UNL     1       2.073   8.547  17.564  0.00  0.00    +0.000 N 
ATOM      7  H   UNL     1       0.358  10.716  17.369  0.00  0.00    +0.000 HD
ATOM      8  H   UNL     1       2.277   8.708  16.594  0.00  0.00    +0.000 HD
ENDROOT
BRANCH   5   9
ATOM      9  C   UNL     1       3.330   6.379  17.921  0.00  0.00    +0.000 A 
ATOM     10  C   UNL     1       2.773   5.089  17.880  0.00  0.00    +0.000 A 
ATOM     11  C   UNL     1       3.537   3.971  17.534  0.00  0.00    +0.000 A 
ATOM     12  C   UNL     1       4.885   4.122  17.227  0.00  0.00    +0.000 A 
ATOM     13  C   UNL     1       5.454   5.398  17.276  0.00  0.00    +0.000 A 
ATOM     14  C   UNL     1       4.688   6.525  17.603  0.00  0.00    +0.000 A 
BRANCH  13  15
ATOM     15  S   UNL     1       7.185   5.576  16.909  0.00  0.00    +0.000 S 
ATOM     16  C   UNL     1       7.683   6.994  17.858  0.00  0.00    +0.000 C 
ATOM     17  O   UNL     1       7.855   4.404  17.442  0.00  0.00    +0.000 OA
ATOM     18  O   UNL     1       7.296   5.928  15.505  0.00  0.00    +0.000 OA
ENDBRANCH  13  15
ENDBRANCH   5   9
BRANCH   1  20
ATOM     19  C   UNL     1       2.112  12.906  18.545  0.00  0.00    +0.000 C 
ATOM     20  C   UNL     1       1.143  11.781  18.934  0.00  0.00    +0.000 C 
BRANCH  20  21
ATOM     21  C   UNL     1      -0.272  12.317  18.936  0.00  0.00    +0.000 C 
ATOM     22  C   UNL     1      -1.422  11.470  19.429  0.00  0.00    +0.000 C 
ATOM     23  C   UNL     1      -0.977  12.661  20.228  0.00  0.00    +0.000 C 
ENDBRANCH  20  21
ENDBRANCH   1  20
TORSDOF 4
ENDMDL
MODEL 3
REMARK VINA RESULT:      -7.1      1.126      1.677
REMARK  Name = 
REMARK  6 active torsions:
REMARK  status: ('A' for Active; 'I' for Inactive)
REMARK    1  A    between atoms: C_1  and  C_2
REMARK    2  A    between atoms: C_2  and  N_3
REMARK    3  A    between atoms: C_2  and  C_19
REMARK    4  A    between atoms: C_7  and  C_8
REMARK    5  A    between atoms: C_12  and  S_13
REMARK    6  A    between atoms: S_13  and  C_14
REMARK                            x       y       z     vdW  Elec       q    Type
REMARK                         _______ _______ _______ _____ _____    ______ ____
ROOT
ATOM      1  N   UNL     1       0.095   9.764  19.408  0.00  0.00    +0.000 N 
ATOM      2  C   UNL     1       1.212   9.374  18.749  0.00  0.00    +0.000 A 
ATOM      3  N   UNL     1       1.881   9.941  17.777  0.00  0.00    +0.000 NA
ATOM      4  N   UNL     1       2.835   9.048  17.348  0.00  0.00    +0.000 NA
ATOM      5  C   UNL     1       2.706   7.929  18.040  0.00  0.00    +0.000 A 
ATOM      6  N   UNL     1       1.749   8.144  19.001  0.00  0.00    +0.000 N 
ATOM      7  H   UNL     1       0.272  10.049  20.370  0.00  0.00    +0.000 HD
ATOM      8  H   UNL     1       1.388   7.485  19.667  0.00  0.00    +0.000 HD
ENDROOT
BRANCH   5   9
ATOM      9  C   UNL     1       3.403   6.669  17.777  0.00  0.00    +0.000 A 
ATOM     10  C   UNL     1       2.763   5.461  18.104  0.00  0.00    +0.000 A 
ATOM     11  C   UNL     1       3.394   4.226  17.928  0.00  0.00    +0.000 A 
ATOM     12  C   UNL     1       4.690   4.176  17.426  0.00  0.00    +0.000 A 
ATOM     13  C   UNL     1       5.341   5.372  17.108  0.00  0.00    +0.000 A 
ATOM     14  C   UNL     1       4.707   6.612  17.264  0.00  0.00    +0.000 A 
BRANCH  13  15
ATOM     15  S   UNL     1       7.008   5.298  16.492  0.00  0.00    +0.000 S 
ATOM     16  C   UNL     1       6.847   4.509  14.907  0.00  0.00    +0.000 C 
ATOM     17  O   UNL     1       7.446   6.666  16.285  0.00  0.00    +0.000 OA
ATOM     18  O   UNL     1       7.749   4.397  17.356  0.00  0.00    +0.000 OA
ENDBRANCH  13  15
ENDBRANCH   5   9
BRANCH   1  20
ATOM     19  C   UNL     1      -1.754  10.082  17.810  0.00  0.00    +0.000 C 
ATOM     20  C   UNL     1      -0.751  10.768  18.746  0.00  0.00    +0.000 C 
BRANCH  20  21
ATOM     21  C   UNL     1      -1.502  11.510  19.830  0.00  0.00    +0.000 C 
ATOM     22  C   UNL     1      -0.771  12.116  21.005  0.00  0.00    +0.000 C 
ATOM     23  C   UNL     1      -1.393  13.011  19.972  0.00  0.00    +0.000 C 
ENDBRANCH  20  21
ENDBRANCH   1  20
TORSDOF 4
ENDMDL
MODEL 4
REMARK VINA RESULT:      -7.1      2.250      2.925
REMARK  Name = 
REMARK  6 active torsions:
REMARK  status: ('A' for Active; 'I' for Inactive)
REMARK    1  A    between atoms: C_1  and  C_2
REMARK    2  A    between atoms: C_2  and  N_3
REMARK    3  A    between atoms: C_2  and  C_19
REMARK    4  A    between atoms: C_7  and  C_8
REMARK    5  A    between atoms: C_12  and  S_13
REMARK    6  A    between atoms: S_13  and  C_14
REMARK                            x       y       z     vdW  Elec       q    Type
REMARK                         _______ _______ _______ _____ _____    ______ ____
ROOT
ATOM      1  N   UNL     1       1.138  10.669  17.911  0.00  0.00    +0.000 N 
ATOM      2  C   UNL     1       1.443   9.473  18.468  0.00  0.00    +0.000 A 
ATOM      3  N   UNL     1       1.362   9.052  19.705  0.00  0.00    +0.000 NA
ATOM      4  N   UNL     1       1.963   7.816  19.768  0.00  0.00    +0.000 NA
ATOM      5  C   UNL     1       2.440   7.519  18.571  0.00  0.00    +0.000 A 
ATOM      6  N   UNL     1       2.037   8.507  17.707  0.00  0.00    +0.000 N 
ATOM      7  H   UNL     1       0.310  10.640  17.318  0.00  0.00    +0.000 HD
ATOM      8  H   UNL     1       2.262   8.600  16.732  0.00  0.00    +0.000 HD
ENDROOT
BRANCH   5   9
ATOM      9  C   UNL     1       3.302   6.381  18.247  0.00  0.00    +0.000 A 
ATOM     10  C   UNL     1       4.278   6.536  17.247  0.00  0.00    +0.000 A 
ATOM     11  C   UNL     1       5.098   5.474  16.852  0.00  0.00    +0.000 A 
ATOM     12  C   UNL     1       4.951   4.228  17.449  0.00  0.00    +0.000 A 
ATOM     13  C   UNL     1       3.976   4.058  18.437  0.00  0.00    +0.000 A 
ATOM     14  C   UNL     1       3.164   5.122  18.850  0.00  0.00    +0.000 A 
BRANCH  13  15
ATOM     15  S   UNL     1       3.778   2.452  19.174  0.00  0.00    +0.000 S 
ATOM     16  C   UNL     1       2.271   2.589  20.108  0.00  0.00    +0.000 C 
ATOM     17  O   UNL     1       3.565   1.510  18.091  0.00  0.00    +0.000 OA
ATOM     18  O   UNL     1       4.864   2.273  20.120  0.00  0.00    +0.000 OA
ENDBRANCH  13  15
ENDBRANCH   5   9
BRANCH   1  20
ATOM     19  C   UNL     1       2.156  12.836  18.498  0.00  0.00    +0.000 C 
ATOM     20  C   UNL     1       1.051  11.822  18.821  0.00  0.00    +0.000 C 
BRANCH  20  21
ATOM     21  C   UNL     1      -0.301  12.466  18.602  0.00  0.00    +0.000 C 
ATOM     22  C   UNL     1      -1.551  11.626  18.481  0.00  0.00    +0.000 C 
ATOM     23  C   UNL     1      -1.345  12.486  19.695  0.00  0.00    +0.000 C 
ENDBRANCH  20  21
ENDBRANCH   1  20
TORSDOF 4
ENDMDL
MODEL 5
REMARK VINA RESULT:      -6.9      1.359      1.992
REMARK  Name = 
REMARK  6 active torsions:
REMARK  status: ('A' for Active; 'I' for Inactive)
REMARK    1  A    between atoms: C_1  and  C_2
REMARK    2  A    between atoms: C_2  and  N_3
REMARK    3  A    between atoms: C_2  and  C_19
REMARK    4  A    between atoms: C_7  and  C_8
REMARK    5  A    between atoms: C_12  and  S_13
REMARK    6  A    between atoms: S_13  and  C_14
REMARK                            x       y       z     vdW  Elec       q    Type
REMARK                         _______ _______ _______ _____ _____    ______ ____
ROOT
ATOM      1  N   UNL     1       0.302   9.835  19.692  0.00  0.00    +0.000 N 
ATOM      2  C   UNL     1       1.312   9.396  18.904  0.00  0.00    +0.000 A 
ATOM      3  N   UNL     1       1.867   9.921  17.841  0.00  0.00    +0.000 NA
ATOM      4  N   UNL     1       2.730   8.989  17.314  0.00  0.00    +0.000 NA
ATOM      5  C   UNL     1       2.658   7.888  18.043  0.00  0.00    +0.000 A 
ATOM      6  N   UNL     1       1.841   8.153  19.114  0.00  0.00    +0.000 N 
ATOM      7  H   UNL     1       0.611  10.132  20.616  0.00  0.00    +0.000 HD
ATOM      8  H   UNL     1       1.549   7.520  19.837  0.00  0.00    +0.000 HD
ENDROOT
BRANCH   5   9
ATOM      9  C   UNL     1       3.278   6.601  17.723  0.00  0.00    +0.000 A 
ATOM     10  C   UNL     1       2.555   5.422  17.974  0.00  0.00    +0.000 A 
ATOM     11  C   UNL     1       3.109   4.159  17.741  0.00  0.00    +0.000 A 
ATOM     12  C   UNL     1       4.407   4.052  17.256  0.00  0.00    +0.000 A 
ATOM     13  C   UNL     1       5.140   5.218  17.014  0.00  0.00    +0.000 A 
ATOM     14  C   UNL     1       4.585   6.486  17.227  0.00  0.00    +0.000 A 
BRANCH  13  15
ATOM     15  S   UNL     1       6.810   5.068  16.420  0.00  0.00    +0.000 S 
ATOM     16  C   UNL     1       7.729   4.536  17.846  0.00  0.00    +0.000 C 
ATOM     17  O   UNL     1       6.818   3.998  15.440  0.00  0.00    +0.000 OA
ATOM     18  O   UNL     1       7.269   6.402  16.076  0.00  0.00    +0.000 OA
ENDBRANCH  13  15
ENDBRANCH   5   9
BRANCH   1  20
ATOM     19  C   UNL     1      -1.670  10.186  18.255  0.00  0.00    +0.000 C 
ATOM     20  C   UNL     1      -0.592  10.853  19.120  0.00  0.00    +0.000 C 
BRANCH  20  21
ATOM     21  C   UNL     1      -1.250  11.573  20.276  0.00  0.00    +0.000 C 
ATOM     22  C   UNL     1      -0.434  12.401  21.240  0.00  0.00    +0.000 C 
ATOM     23  C   UNL     1      -1.379  13.080  20.289  0.00  0.00    +0.000 C 
ENDBRANCH  20  21
ENDBRANCH   1  20
TORSDOF 4
ENDMDL
MODEL 6
REMARK VINA RESULT:      -6.9      2.680      3.530
REMARK  Name = 
REMARK  6 active torsions:
REMARK  status: ('A' for Active; 'I' for Inactive)
REMARK    1  A    between atoms: C_1  and  C_2
REMARK    2  A    between atoms: C_2  and  N_3
REMARK    3  A    between atoms: C_2  and  C_19
REMARK    4  A    between atoms: C_7  and  C_8
REMARK    5  A    between atoms: C_12  and  S_13
REMARK    6  A    between atoms: S_13  and  C_14
REMARK                            x       y       z     vdW  Elec       q    Type
REMARK                         _______ _______ _______ _____ _____    ______ ____
ROOT
ATOM      1  N   UNL     1       0.331   9.910  19.558  0.00  0.00    +0.000 N 
ATOM      2  C   UNL     1       1.325   9.360  18.822  0.00  0.00    +0.000 A 
ATOM      3  N   UNL     1       1.869   9.735  17.691  0.00  0.00    +0.000 NA
ATOM      4  N   UNL     1       2.717   8.732  17.281  0.00  0.00    +0.000 NA
ATOM      5  C   UNL     1       2.646   7.739  18.151  0.00  0.00    +0.000 A 
ATOM      6  N   UNL     1       1.847   8.152  19.188  0.00  0.00    +0.000 N 
ATOM      7  H   UNL     1       0.655  10.324  20.431  0.00  0.00    +0.000 HD
ATOM      8  H   UNL     1       1.561   7.622  19.992  0.00  0.00    +0.000 HD
ENDROOT
BRANCH   5   9
ATOM      9  C   UNL     1       3.251   6.415  17.997  0.00  0.00    +0.000 A 
ATOM     10  C   UNL     1       4.337   6.266  17.116  0.00  0.00    +0.000 A 
ATOM     11  C   UNL     1       4.926   5.020  16.883  0.00  0.00    +0.000 A 
ATOM     12  C   UNL     1       4.432   3.890  17.525  0.00  0.00    +0.000 A 
ATOM     13  C   UNL     1       3.345   4.023  18.394  0.00  0.00    +0.000 A 
ATOM     14  C   UNL     1       2.762   5.272  18.647  0.00  0.00    +0.000 A 
BRANCH  13  15
ATOM     15  S   UNL     1       2.703   2.567  19.188  0.00  0.00    +0.000 S 
ATOM     16  C   UNL     1       0.966   2.600  18.811  0.00  0.00    +0.000 C 
ATOM     17  O   UNL     1       3.298   1.423  18.522  0.00  0.00    +0.000 OA
ATOM     18  O   UNL     1       2.844   2.757  20.620  0.00  0.00    +0.000 OA
ENDBRANCH  13  15
ENDBRANCH   5   9
BRANCH   1  20
ATOM     19  C   UNL     1      -1.635  10.087  18.082  0.00  0.00    +0.000 C 
ATOM     20  C   UNL     1      -0.563  10.852  18.868  0.00  0.00    +0.000 C 
BRANCH  20  21
ATOM     21  C   UNL     1      -1.229  11.699  19.930  0.00  0.00    +0.000 C 
ATOM     22  C   UNL     1      -0.422  12.324  21.044  0.00  0.00    +0.000 C 
ATOM     23  C   UNL     1      -1.025  13.197  19.980  0.00  0.00    +0.000 C 
ENDBRANCH  20  21
ENDBRANCH   1  20
TORSDOF 4
ENDMDL
MODEL 7
REMARK VINA RESULT:      -6.9      1.642      1.934
REMARK  Name = 
REMARK  6 active torsions:
REMARK  status: ('A' for Active; 'I' for Inactive)
REMARK    1  A    between atoms: C_1  and  C_2
REMARK    2  A    between atoms: C_2  and  N_3
REMARK    3  A    between atoms: C_2  and  C_19
REMARK    4  A    between atoms: C_7  and  C_8
REMARK    5  A    between atoms: C_12  and  S_13
REMARK    6  A    between atoms: S_13  and  C_14
REMARK                            x       y       z     vdW  Elec       q    Type
REMARK                         _______ _______ _______ _____ _____    ______ ____
ROOT
ATOM      1  N   UNL     1       1.008   9.864  19.678  0.00  0.00    +0.000 N 
ATOM      2  C   UNL     1       1.396   8.570  19.768  0.00  0.00    +0.000 A 
ATOM      3  N   UNL     1       1.456   7.757  20.792  0.00  0.00    +0.000 NA
ATOM      4  N   UNL     1       2.086   6.607  20.379  0.00  0.00    +0.000 NA
ATOM      5  C   UNL     1       2.439   6.752  19.113  0.00  0.00    +0.000 A 
ATOM      6  N   UNL     1       1.927   7.947  18.673  0.00  0.00    +0.000 N 
ATOM      7  H   UNL     1       0.123   9.988  19.189  0.00  0.00    +0.000 HD
ATOM      8  H   UNL     1       2.044   8.372  17.771  0.00  0.00    +0.000 HD
ENDROOT
BRANCH   5   9
ATOM      9  C   UNL     1       3.286   5.837  18.345  0.00  0.00    +0.000 A 
ATOM     10  C   UNL     1       2.703   4.690  17.780  0.00  0.00    +0.000 A 
ATOM     11  C   UNL     1       3.464   3.749  17.080  0.00  0.00    +0.000 A 
ATOM     12  C   UNL     1       4.834   3.936  16.938  0.00  0.00    +0.000 A 
ATOM     13  C   UNL     1       5.428   5.067  17.505  0.00  0.00    +0.000 A 
ATOM     14  C   UNL     1       4.668   6.023  18.191  0.00  0.00    +0.000 A 
BRANCH  13  15
ATOM     15  S   UNL     1       7.186   5.282  17.340  0.00  0.00    +0.000 S 
ATOM     16  C   UNL     1       7.430   7.029  17.566  0.00  0.00    +0.000 C 
ATOM     17  O   UNL     1       7.805   4.582  18.451  0.00  0.00    +0.000 OA
ATOM     18  O   UNL     1       7.534   4.965  15.967  0.00  0.00    +0.000 OA
ENDBRANCH  13  15
ENDBRANCH   5   9
BRANCH   1  20
ATOM     19  C   UNL     1       1.271  12.122  20.633  0.00  0.00    +0.000 C 
ATOM     20  C   UNL     1       0.994  10.641  20.926  0.00  0.00    +0.000 C 
BRANCH  20  21
ATOM     21  C   UNL     1      -0.386  10.499  21.529  0.00  0.00    +0.000 C 
ATOM     22  C   UNL     1      -0.583   9.832  22.870  0.00  0.00    +0.000 C 
ATOM     23  C   UNL     1      -0.802  11.312  22.734  0.00  0.00    +0.000 C 
ENDBRANCH  20  21
ENDBRANCH   1  20
TORSDOF 4
ENDMDL
MODEL 8
REMARK VINA RESULT:      -6.8      1.157      1.336
REMARK  Name = 
REMARK  6 active torsions:
REMARK  status: ('A' for Active; 'I' for Inactive)
REMARK    1  A    between atoms: C_1  and  C_2
REMARK    2  A    between atoms: C_2  and  N_3
REMARK    3  A    between atoms: C_2  and  C_19
REMARK    4  A    between atoms: C_7  and  C_8
REMARK    5  A    between atoms: C_12  and  S_13
REMARK    6  A    between atoms: S_13  and  C_14
REMARK                            x       y       z     vdW  Elec       q    Type
REMARK                         _______ _______ _______ _____ _____    ______ ____
ROOT
ATOM      1  N   UNL     1       1.684  11.339  17.779  0.00  0.00    +0.000 N 
ATOM      2  C   UNL     1       1.722  10.071  18.252  0.00  0.00    +0.000 A 
ATOM      3  N   UNL     1       1.412   9.578  19.425  0.00  0.00    +0.000 NA
ATOM      4  N   UNL     1       1.800   8.258  19.441  0.00  0.00    +0.000 NA
ATOM      5  C   UNL     1       2.381   7.976  18.287  0.00  0.00    +0.000 A 
ATOM      6  N   UNL     1       2.257   9.079  17.479  0.00  0.00    +0.000 N 
ATOM      7  H   UNL     1       0.950  11.492  17.091  0.00  0.00    +0.000 HD
ATOM      8  H   UNL     1       2.623   9.207  16.553  0.00  0.00    +0.000 HD
ENDROOT
BRANCH   5   9
ATOM      9  C   UNL     1       3.092   6.739  17.962  0.00  0.00    +0.000 A 
ATOM     10  C   UNL     1       2.486   5.509  18.272  0.00  0.00    +0.000 A 
ATOM     11  C   UNL     1       3.133   4.292  18.036  0.00  0.00    +0.000 A 
ATOM     12  C   UNL     1       4.410   4.283  17.488  0.00  0.00    +0.000 A 
ATOM     13  C   UNL     1       5.029   5.500  17.187  0.00  0.00    +0.000 A 
ATOM     14  C   UNL     1       4.379   6.722  17.403  0.00  0.00    +0.000 A 
BRANCH  13  15
ATOM     15  S   UNL     1       6.675   5.477  16.512  0.00  0.00    +0.000 S 
ATOM     16  C   UNL     1       7.627   4.599  17.731  0.00  0.00    +0.000 C 
ATOM     17  O   UNL     1       6.627   4.679  15.301  0.00  0.00    +0.000 OA
ATOM     18  O   UNL     1       7.152   6.848  16.488  0.00  0.00    +0.000 OA
ENDBRANCH  13  15
ENDBRANCH   5   9
BRANCH   1  20
ATOM     19  C   UNL     1       2.830  13.380  18.554  0.00  0.00    +0.000 C 
ATOM     20  C   UNL     1       1.655  12.419  18.778  0.00  0.00    +0.000 C 
BRANCH  20  21
ATOM     21  C   UNL     1       0.353  13.167  18.593  0.00  0.00    +0.000 C 
ATOM     22  C   UNL     1      -0.955  12.425  18.454  0.00  0.00    +0.000 C 
ATOM     23  C   UNL     1      -0.680  13.225  19.696  0.00  0.00    +0.000 C 
ENDBRANCH  20  21
ENDBRANCH   1  20
TORSDOF 4
ENDMDL
MODEL 9
REMARK VINA RESULT:      -6.8      2.528      3.204
REMARK  Name = 
REMARK  6 active torsions:
REMARK  status: ('A' for Active; 'I' for Inactive)
REMARK    1  A    between atoms: C_1  and  C_2
REMARK    2  A    between atoms: C_2  and  N_3
REMARK    3  A    between atoms: C_2  and  C_19
REMARK    4  A    between atoms: C_7  and  C_8
REMARK    5  A    between atoms: C_12  and  S_13
REMARK    6  A    between atoms: S_13  and  C_14
REMARK                            x       y       z     vdW  Elec       q    Type
REMARK                         _______ _______ _______ _____ _____    ______ ____
ROOT
ATOM      1  N   UNL     1       1.414  11.112  17.910  0.00  0.00    +0.000 N 
ATOM      2  C   UNL     1       1.532   9.872  18.440  0.00  0.00    +0.000 A 
ATOM      3  N   UNL     1       1.369   9.438  19.665  0.00  0.00    +0.000 NA
ATOM      4  N   UNL     1       1.782   8.126  19.704  0.00  0.00    +0.000 NA
ATOM      5  C   UNL     1       2.231   7.791  18.506  0.00  0.00    +0.000 A 
ATOM      6  N   UNL     1       1.992   8.847  17.662  0.00  0.00    +0.000 N 
ATOM      7  H   UNL     1       0.601  11.218  17.306  0.00  0.00    +0.000 HD
ATOM      8  H   UNL     1       2.245   8.930  16.694  0.00  0.00    +0.000 HD
ENDROOT
BRANCH   5   9
ATOM      9  C   UNL     1       2.923   6.547  18.163  0.00  0.00    +0.000 A 
ATOM     10  C   UNL     1       4.083   6.614  17.371  0.00  0.00    +0.000 A 
ATOM     11  C   UNL     1       4.761   5.462  16.965  0.00  0.00    +0.000 A 
ATOM     12  C   UNL     1       4.285   4.211  17.339  0.00  0.00    +0.000 A 
ATOM     13  C   UNL     1       3.126   4.130  18.117  0.00  0.00    +0.000 A 
ATOM     14  C   UNL     1       2.452   5.282  18.544  0.00  0.00    +0.000 A 
BRANCH  13  15
ATOM     15  S   UNL     1       2.510   2.523  18.567  0.00  0.00    +0.000 S 
ATOM     16  C   UNL     1       2.540   2.532  20.345  0.00  0.00    +0.000 C 
ATOM     17  O   UNL     1       1.128   2.460  18.129  0.00  0.00    +0.000 OA
ATOM     18  O   UNL     1       3.484   1.545  18.118  0.00  0.00    +0.000 OA
ENDBRANCH  13  15
ENDBRANCH   5   9
BRANCH   1  20
ATOM     19  C   UNL     1       2.707  13.114  18.543  0.00  0.00    +0.000 C 
ATOM     20  C   UNL     1       1.481  12.243  18.848  0.00  0.00    +0.000 C 
BRANCH  20  21
ATOM     21  C   UNL     1       0.223  13.062  18.655  0.00  0.00    +0.000 C 
ATOM     22  C   UNL     1      -1.092  12.398  18.322  0.00  0.00    +0.000 C 
ATOM     23  C   UNL     1      -0.897  13.030  19.671  0.00  0.00    +0.000 C 
ENDBRANCH  20  21
ENDBRANCH   1  20
TORSDOF 4
ENDMDL
