MODEL 1
REMARK VINA RESULT:      -7.8      0.000      0.000
REMARK  Name = 
REMARK  8 active torsions:
REMARK  status: ('A' for Active; 'I' for Inactive)
REMARK    1  A    between atoms: C_1  and  C_2
REMARK    2  A    between atoms: C_2  and  N_3
REMARK    3  A    between atoms: C_4  and  C_6
REMARK    4  A    between atoms: C_6  and  N_7
REMARK    5  A    between atoms: C_11  and  C_12
REMARK    6  A    between atoms: C_21  and  C_22
REMARK    7  A    between atoms: C_22  and  C_24
REMARK    8  A    between atoms: C_29  and  C_30
REMARK                            x       y       z     vdW  Elec       q    Type
REMARK                         _______ _______ _______ _____ _____    ______ ____
ROOT
ATOM      1  N   UNL     1       1.505   8.659  20.580  0.00  0.00    +0.000 N 
ATOM      2  C   UNL     1       2.032   7.475  20.055  0.00  0.00    +0.000 A 
ATOM      3  O   UNL     1       2.336   6.484  20.707  0.00  0.00    +0.000 OA
ATOM      4  C   UNL     1       2.086   7.594  18.570  0.00  0.00    +0.000 A 
ATOM      5  C   UNL     1       2.282   6.676  17.616  0.00  0.00    +0.000 C 
ATOM      6  S   UNL     1       1.820   9.227  18.099  0.00  0.00    +0.000 S 
ATOM      7  C   UNL     1       1.097   9.591  19.639  0.00  0.00    +0.000 A 
ATOM      8  C   UNL     1       0.239  10.606  19.831  0.00  0.00    +0.000 C 
ENDROOT
BRANCH   5   9
ATOM      9  C   UNL     1       2.655   5.279  17.798  0.00  0.00    +0.000 A 
ATOM     10  C   UNL     1       1.591   4.369  17.836  0.00  0.00    +0.000 A 
ATOM     11  C   UNL     1       1.824   3.018  18.066  0.00  0.00    +0.000 A 
ATOM     12  C   UNL     1       3.125   2.566  18.264  0.00  0.00    +0.000 A 
ATOM     13  C   UNL     1       4.194   3.467  18.242  0.00  0.00    +0.000 A 
ATOM     14  C   UNL     1       3.962   4.825  18.013  0.00  0.00    +0.000 A 
ATOM     15 CL   UNL     1       5.310   5.906  18.055  0.00  0.00    +0.000 Cl
ENDBRANCH   5   9
BRANCH   8  16
ATOM     16  C   UNL     1      -0.316  11.394  18.685  0.00  0.00    +0.000 C 
ATOM     17  O   UNL     1       0.360  12.216  18.071  0.00  0.00    +0.000 OA
BRANCH  16  18
ATOM     18  C   UNL     1      -1.662  11.097  18.138  0.00  0.00    +0.000 A 
ATOM     19  C   UNL     1      -1.651  10.268  16.996  0.00  0.00    +0.000 A 
ATOM     20  C   UNL     1      -2.826   9.924  16.341  0.00  0.00    +0.000 A 
ATOM     21  C   UNL     1      -4.036  10.394  16.827  0.00  0.00    +0.000 A 
ATOM     22  C   UNL     1      -4.059  11.230  17.948  0.00  0.00    +0.000 A 
ATOM     23  C   UNL     1      -2.878  11.624  18.603  0.00  0.00    +0.000 A 
ATOM     24  C   UNL     1      -2.996  12.604  19.734  0.00  0.00    +0.000 C 
ENDBRANCH  16  18
ENDBRANCH   8  16
BRANCH   1  25
ATOM     25  C   UNL     1       1.347   8.823  22.017  0.00  0.00    +0.000 C 
BRANCH  25  27
ATOM     26  N   UNL     1      -0.253  10.441  22.921  0.00  0.00    +0.000 N 
ATOM     27  C   UNL     1      -0.079   9.162  22.440  0.00  0.00    +0.000 C 
ATOM     28  O   UNL     1      -0.998   8.362  22.286  0.00  0.00    +0.000 OA
ATOM     29  H   UNL     1       0.560  11.044  23.026  0.00  0.00    +0.000 HD
BRANCH  26  31
ATOM     30  C   UNL     1      -1.631  12.467  23.122  0.00  0.00    +0.000 C 
ATOM     31  C   UNL     1      -1.557  10.959  23.277  0.00  0.00    +0.000 C 
ENDBRANCH  26  31
ENDBRANCH  25  27
ENDBRANCH   1  25
TORSDOF 6
ENDMDL
MODEL 2
REMARK VINA RESULT:      -7.6      3.015      8.321
REMARK  Name = 
REMARK  8 active torsions:
REMARK  status: ('A' for Active; 'I' for Inactive)
REMARK    1  A    between atoms: C_1  and  C_2
REMARK    2  A    between atoms: C_2  and  N_3
REMARK    3  A    between atoms: C_4  and  C_6
REMARK    4  A    between atoms: C_6  and  N_7
REMARK    5  A    between atoms: C_11  and  C_12
REMARK    6  A    between atoms: C_21  and  C_22
REMARK    7  A    between atoms: C_22  and  C_24
REMARK    8  A    between atoms: C_29  and  C_30
REMARK                            x       y       z     vdW  Elec       q    Type
REMARK                         _______ _______ _______ _____ _____    ______ ____
ROOT
ATOM      1  N   UNL     1       2.381   6.789  19.791  0.00  0.00    +0.000 N 
ATOM      2  C   UNL     1       1.505   7.867  19.938  0.00  0.00    +0.000 A 
ATOM      3  O   UNL     1       0.729   8.028  20.872  0.00  0.00    +0.000 OA
ATOM      4  C   UNL     1       1.728   8.820  18.814  0.00  0.00    +0.000 A 
ATOM      5  C   UNL     1       1.321  10.082  18.631  0.00  0.00    +0.000 C 
ATOM      6  S   UNL     1       2.703   8.085  17.602  0.00  0.00    +0.000 S 
ATOM      7  C   UNL     1       3.271   6.891  18.733  0.00  0.00    +0.000 A 
ATOM      8  C   UNL     1       4.428   6.226  18.586  0.00  0.00    +0.000 C 
ENDROOT
BRANCH   5   9
ATOM      9  C   UNL     1       0.389  10.839  19.456  0.00  0.00    +0.000 A 
ATOM     10  C   UNL     1       0.944  11.457  20.583  0.00  0.00    +0.000 A 
ATOM     11  C   UNL     1       0.139  12.155  21.477  0.00  0.00    +0.000 A 
ATOM     12  C   UNL     1      -1.232  12.235  21.251  0.00  0.00    +0.000 A 
ATOM     13  C   UNL     1      -1.800  11.609  20.139  0.00  0.00    +0.000 A 
ATOM     14  C   UNL     1      -0.993  10.906  19.240  0.00  0.00    +0.000 A 
ATOM     15 CL   UNL     1      -1.751  10.101  17.913  0.00  0.00    +0.000 Cl
ENDBRANCH   5   9
BRANCH   8  16
ATOM     16  C   UNL     1       5.422   6.600  17.530  0.00  0.00    +0.000 C 
ATOM     17  O   UNL     1       6.034   7.665  17.560  0.00  0.00    +0.000 OA
BRANCH  16  18
ATOM     18  C   UNL     1       5.827   5.627  16.488  0.00  0.00    +0.000 A 
ATOM     19  C   UNL     1       5.000   5.629  15.343  0.00  0.00    +0.000 A 
ATOM     20  C   UNL     1       5.222   4.752  14.290  0.00  0.00    +0.000 A 
ATOM     21  C   UNL     1       6.286   3.867  14.357  0.00  0.00    +0.000 A 
ATOM     22  C   UNL     1       7.101   3.842  15.492  0.00  0.00    +0.000 A 
ATOM     23  C   UNL     1       6.871   4.693  16.588  0.00  0.00    +0.000 A 
ATOM     24  C   UNL     1       7.738   4.524  17.804  0.00  0.00    +0.000 C 
ENDBRANCH  16  18
ENDBRANCH   8  16
BRANCH   1  25
ATOM     25  C   UNL     1       2.374   5.695  20.751  0.00  0.00    +0.000 C 
BRANCH  25  27
ATOM     26  N   UNL     1       2.806   3.501  19.755  0.00  0.00    +0.000 N 
ATOM     27  C   UNL     1       1.840   4.385  20.181  0.00  0.00    +0.000 C 
ATOM     28  O   UNL     1       0.638   4.131  20.180  0.00  0.00    +0.000 OA
ATOM     29  H   UNL     1       3.783   3.785  19.781  0.00  0.00    +0.000 HD
BRANCH  26  31
ATOM     30  C   UNL     1       3.343   1.766  18.097  0.00  0.00    +0.000 C 
ATOM     31  C   UNL     1       2.479   2.174  19.277  0.00  0.00    +0.000 C 
ENDBRANCH  26  31
ENDBRANCH  25  27
ENDBRANCH   1  25
TORSDOF 6
ENDMDL
MODEL 3
REMARK VINA RESULT:      -7.5      3.188      8.410
REMARK  Name = 
REMARK  8 active torsions:
REMARK  status: ('A' for Active; 'I' for Inactive)
REMARK    1  A    between atoms: C_1  and  C_2
REMARK    2  A    between atoms: C_2  and  N_3
REMARK    3  A    between atoms: C_4  and  C_6
REMARK    4  A    between atoms: C_6  and  N_7
REMARK    5  A    between atoms: C_11  and  C_12
REMARK    6  A    between atoms: C_21  and  C_22
REMARK    7  A    between atoms: C_22  and  C_24
REMARK    8  A    between atoms: C_29  and  C_30
REMARK                            x       y       z     vdW  Elec       q    Type
REMARK                         _______ _______ _______ _____ _____    ______ ____
ROOT
ATOM      1  N   UNL     1      -0.377  11.318  19.493  0.00  0.00    +0.000 N 
ATOM      2  C   UNL     1      -1.054  12.061  20.463  0.00  0.00    +0.000 A 
ATOM      3  O   UNL     1      -1.906  12.911  20.239  0.00  0.00    +0.000 OA
ATOM      4  C   UNL     1      -0.622  11.593  21.811  0.00  0.00    +0.000 A 
ATOM      5  C   UNL     1      -1.132  11.812  23.029  0.00  0.00    +0.000 C 
ATOM      6  S   UNL     1       0.767  10.588  21.669  0.00  0.00    +0.000 S 
ATOM      7  C   UNL     1       0.437  10.309  19.984  0.00  0.00    +0.000 A 
ATOM      8  C   UNL     1       0.885   9.236  19.311  0.00  0.00    +0.000 C 
ENDROOT
BRANCH   5   9
ATOM      9  C   UNL     1      -2.209  12.728  23.384  0.00  0.00    +0.000 A 
ATOM     10  C   UNL     1      -3.467  12.141  23.563  0.00  0.00    +0.000 A 
ATOM     11  C   UNL     1      -4.580  12.925  23.844  0.00  0.00    +0.000 A 
ATOM     12  C   UNL     1      -4.443  14.307  23.943  0.00  0.00    +0.000 A 
ATOM     13  C   UNL     1      -3.195  14.905  23.752  0.00  0.00    +0.000 A 
ATOM     14  C   UNL     1      -2.076  14.119  23.468  0.00  0.00    +0.000 A 
ATOM     15 CL   UNL     1      -0.568  14.912  23.181  0.00  0.00    +0.000 Cl
ENDBRANCH   5   9
BRANCH   8  16
ATOM     16  C   UNL     1       1.549   8.090  20.010  0.00  0.00    +0.000 C 
ATOM     17  O   UNL     1       1.340   7.842  21.196  0.00  0.00    +0.000 OA
BRANCH  16  18
ATOM     18  C   UNL     1       2.363   7.107  19.257  0.00  0.00    +0.000 A 
ATOM     19  C   UNL     1       3.098   7.665  18.189  0.00  0.00    +0.000 A 
ATOM     20  C   UNL     1       3.884   6.874  17.361  0.00  0.00    +0.000 A 
ATOM     21  C   UNL     1       3.959   5.511  17.597  0.00  0.00    +0.000 A 
ATOM     22  C   UNL     1       3.221   4.943  18.641  0.00  0.00    +0.000 A 
ATOM     23  C   UNL     1       2.388   5.719  19.466  0.00  0.00    +0.000 A 
ATOM     24  C   UNL     1       1.558   5.006  20.496  0.00  0.00    +0.000 C 
ENDBRANCH  16  18
ENDBRANCH   8  16
BRANCH   1  25
ATOM     25  C   UNL     1      -0.600  11.573  18.078  0.00  0.00    +0.000 C 
BRANCH  25  27
ATOM     26  N   UNL     1      -2.381  11.505  16.399  0.00  0.00    +0.000 N 
ATOM     27  C   UNL     1      -1.864  10.916  17.531  0.00  0.00    +0.000 C 
ATOM     28  O   UNL     1      -2.326   9.897  18.039  0.00  0.00    +0.000 OA
ATOM     29  H   UNL     1      -1.946  12.352  16.040  0.00  0.00    +0.000 HD
BRANCH  26  31
ATOM     30  C   UNL     1      -3.097  10.100  14.512  0.00  0.00    +0.000 C 
ATOM     31  C   UNL     1      -3.519  10.954  15.694  0.00  0.00    +0.000 C 
ENDBRANCH  26  31
ENDBRANCH  25  27
ENDBRANCH   1  25
TORSDOF 6
ENDMDL
MODEL 4
REMARK VINA RESULT:      -7.4      2.889      8.107
REMARK  Name = 
REMARK  8 active torsions:
REMARK  status: ('A' for Active; 'I' for Inactive)
REMARK    1  A    between atoms: C_1  and  C_2
REMARK    2  A    between atoms: C_2  and  N_3
REMARK    3  A    between atoms: C_4  and  C_6
REMARK    4  A    between atoms: C_6  and  N_7
REMARK    5  A    between atoms: C_11  and  C_12
REMARK    6  A    between atoms: C_21  and  C_22
REMARK    7  A    between atoms: C_22  and  C_24
REMARK    8  A    between atoms: C_29  and  C_30
REMARK                            x       y       z     vdW  Elec       q    Type
REMARK                         _______ _______ _______ _____ _____    ______ ____
ROOT
ATOM      1  N   UNL     1       2.195   5.889  20.364  0.00  0.00    +0.000 N 
ATOM      2  C   UNL     1       1.437   7.058  20.256  0.00  0.00    +0.000 A 
ATOM      3  O   UNL     1       0.451   7.328  20.930  0.00  0.00    +0.000 OA
ATOM      4  C   UNL     1       2.074   7.948  19.244  0.00  0.00    +0.000 A 
ATOM      5  C   UNL     1       1.877   9.240  18.955  0.00  0.00    +0.000 C 
ATOM      6  S   UNL     1       3.266   7.079  18.360  0.00  0.00    +0.000 S 
ATOM      7  C   UNL     1       3.354   5.866  19.604  0.00  0.00    +0.000 A 
ATOM      8  C   UNL     1       4.425   5.077  19.791  0.00  0.00    +0.000 C 
ENDROOT
BRANCH   5   9
ATOM      9  C   UNL     1       0.838  10.116  19.482  0.00  0.00    +0.000 A 
ATOM     10  C   UNL     1       1.108  10.692  20.730  0.00  0.00    +0.000 A 
ATOM     11  C   UNL     1       0.163  11.496  21.357  0.00  0.00    +0.000 A 
ATOM     12  C   UNL     1      -1.064  11.725  20.743  0.00  0.00    +0.000 A 
ATOM     13  C   UNL     1      -1.351  11.144  19.505  0.00  0.00    +0.000 A 
ATOM     14  C   UNL     1      -0.404  10.334  18.873  0.00  0.00    +0.000 A 
ATOM     15 CL   UNL     1      -0.829   9.591  17.372  0.00  0.00    +0.000 Cl
ENDBRANCH   5   9
BRANCH   8  16
ATOM     16  C   UNL     1       5.712   5.312  19.064  0.00  0.00    +0.000 C 
ATOM     17  O   UNL     1       6.773   5.492  19.658  0.00  0.00    +0.000 OA
BRANCH  16  18
ATOM     18  C   UNL     1       5.789   5.177  17.589  0.00  0.00    +0.000 A 
ATOM     19  C   UNL     1       5.157   4.022  17.082  0.00  0.00    +0.000 A 
ATOM     20  C   UNL     1       5.169   3.728  15.725  0.00  0.00    +0.000 A 
ATOM     21  C   UNL     1       5.802   4.596  14.849  0.00  0.00    +0.000 A 
ATOM     22  C   UNL     1       6.446   5.735  15.341  0.00  0.00    +0.000 A 
ATOM     23  C   UNL     1       6.482   6.031  16.715  0.00  0.00    +0.000 A 
ATOM     24  C   UNL     1       7.284   7.221  17.157  0.00  0.00    +0.000 C 
ENDBRANCH  16  18
ENDBRANCH   8  16
BRANCH   1  25
ATOM     25  C   UNL     1       1.796   4.831  21.280  0.00  0.00    +0.000 C 
BRANCH  25  27
ATOM     26  N   UNL     1       1.097   3.410  19.412  0.00  0.00    +0.000 N 
ATOM     27  C   UNL     1       1.736   3.451  20.631  0.00  0.00    +0.000 C 
ATOM     28  O   UNL     1       2.288   2.480  21.144  0.00  0.00    +0.000 OA
ATOM     29  H   UNL     1       0.659   4.256  19.055  0.00  0.00    +0.000 HD
BRANCH  26  31
ATOM     30  C   UNL     1       2.284   2.010  17.776  0.00  0.00    +0.000 C 
ATOM     31  C   UNL     1       1.035   2.202  18.616  0.00  0.00    +0.000 C 
ENDBRANCH  26  31
ENDBRANCH  25  27
ENDBRANCH   1  25
TORSDOF 6
ENDMDL
MODEL 5
REMARK VINA RESULT:      -7.3      0.586      1.396
REMARK  Name = 
REMARK  8 active torsions:
REMARK  status: ('A' for Active; 'I' for Inactive)
REMARK    1  A    between atoms: C_1  and  C_2
REMARK    2  A    between atoms: C_2  and  N_3
REMARK    3  A    between atoms: C_4  and  C_6
REMARK    4  A    between atoms: C_6  and  N_7
REMARK    5  A    between atoms: C_11  and  C_12
REMARK    6  A    between atoms: C_21  and  C_22
REMARK    7  A    between atoms: C_22  and  C_24
REMARK    8  A    between atoms: C_29  and  C_30
REMARK                            x       y       z     vdW  Elec       q    Type
REMARK                         _______ _______ _______ _____ _____    ______ ____
ROOT
ATOM      1  N   UNL     1       1.392   8.945  20.646  0.00  0.00    +0.000 N 
ATOM      2  C   UNL     1       1.967   7.817  20.055  0.00  0.00    +0.000 A 
ATOM      3  O   UNL     1       2.347   6.818  20.653  0.00  0.00    +0.000 OA
ATOM      4  C   UNL     1       1.970   8.002  18.576  0.00  0.00    +0.000 A 
ATOM      5  C   UNL     1       2.188   7.139  17.577  0.00  0.00    +0.000 C 
ATOM      6  S   UNL     1       1.598   9.636  18.185  0.00  0.00    +0.000 S 
ATOM      7  C   UNL     1       0.903   9.891  19.760  0.00  0.00    +0.000 A 
ATOM      8  C   UNL     1      -0.004  10.847  20.020  0.00  0.00    +0.000 C 
ENDROOT
BRANCH   5   9
ATOM      9  C   UNL     1       2.644   5.759  17.685  0.00  0.00    +0.000 A 
ATOM     10  C   UNL     1       1.641   4.805  17.899  0.00  0.00    +0.000 A 
ATOM     11  C   UNL     1       1.965   3.465  18.079  0.00  0.00    +0.000 A 
ATOM     12  C   UNL     1       3.298   3.069  18.051  0.00  0.00    +0.000 A 
ATOM     13  C   UNL     1       4.309   4.013  17.854  0.00  0.00    +0.000 A 
ATOM     14  C   UNL     1       3.986   5.361  17.675  0.00  0.00    +0.000 A 
ATOM     15 CL   UNL     1       5.275   6.496  17.494  0.00  0.00    +0.000 Cl
ENDBRANCH   5   9
BRANCH   8  16
ATOM     16  C   UNL     1      -0.637  11.650  18.927  0.00  0.00    +0.000 C 
ATOM     17  O   UNL     1       0.029  12.327  18.146  0.00  0.00    +0.000 OA
BRANCH  16  18
ATOM     18  C   UNL     1      -2.087  11.533  18.638  0.00  0.00    +0.000 A 
ATOM     19  C   UNL     1      -2.909  12.287  19.504  0.00  0.00    +0.000 A 
ATOM     20  C   UNL     1      -4.293  12.260  19.392  0.00  0.00    +0.000 A 
ATOM     21  C   UNL     1      -4.878  11.488  18.400  0.00  0.00    +0.000 A 
ATOM     22  C   UNL     1      -4.075  10.723  17.548  0.00  0.00    +0.000 A 
ATOM     23  C   UNL     1      -2.674  10.704  17.669  0.00  0.00    +0.000 A 
ATOM     24  C   UNL     1      -1.904   9.775  16.775  0.00  0.00    +0.000 C 
ENDBRANCH  16  18
ENDBRANCH   8  16
BRANCH   1  25
ATOM     25  C   UNL     1       1.269   9.038  22.093  0.00  0.00    +0.000 C 
BRANCH  25  27
ATOM     26  N   UNL     1      -0.389  10.625  22.948  0.00  0.00    +0.000 N 
ATOM     27  C   UNL     1      -0.153   9.322  22.569  0.00  0.00    +0.000 C 
ATOM     28  O   UNL     1      -1.022   8.454  22.537  0.00  0.00    +0.000 OA
ATOM     29  H   UNL     1       0.385  11.286  22.952  0.00  0.00    +0.000 HD
BRANCH  26  31
ATOM     30  C   UNL     1      -1.876  12.578  23.090  0.00  0.00    +0.000 C 
ATOM     31  C   UNL     1      -1.705  11.089  23.333  0.00  0.00    +0.000 C 
ENDBRANCH  26  31
ENDBRANCH  25  27
ENDBRANCH   1  25
TORSDOF 6
ENDMDL
MODEL 6
REMARK VINA RESULT:      -7.3      1.797      2.717
REMARK  Name = 
REMARK  8 active torsions:
REMARK  status: ('A' for Active; 'I' for Inactive)
REMARK    1  A    between atoms: C_1  and  C_2
REMARK    2  A    between atoms: C_2  and  N_3
REMARK    3  A    between atoms: C_4  and  C_6
REMARK    4  A    between atoms: C_6  and  N_7
REMARK    5  A    between atoms: C_11  and  C_12
REMARK    6  A    between atoms: C_21  and  C_22
REMARK    7  A    between atoms: C_22  and  C_24
REMARK    8  A    between atoms: C_29  and  C_30
REMARK                            x       y       z     vdW  Elec       q    Type
REMARK                         _______ _______ _______ _____ _____    ______ ____
ROOT
ATOM      1  N   UNL     1       1.658   8.370  20.640  0.00  0.00    +0.000 N 
ATOM      2  C   UNL     1       2.076   7.148  20.107  0.00  0.00    +0.000 A 
ATOM      3  O   UNL     1       2.189   6.102  20.735  0.00  0.00    +0.000 OA
ATOM      4  C   UNL     1       2.285   7.313  18.641  0.00  0.00    +0.000 A 
ATOM      5  C   UNL     1       2.452   6.412  17.665  0.00  0.00    +0.000 C 
ATOM      6  S   UNL     1       2.275   8.983  18.227  0.00  0.00    +0.000 S 
ATOM      7  C   UNL     1       1.462   9.381  19.712  0.00  0.00    +0.000 A 
ATOM      8  C   UNL     1       0.726  10.493  19.876  0.00  0.00    +0.000 C 
ENDROOT
BRANCH   5   9
ATOM      9  C   UNL     1       2.625   4.972  17.810  0.00  0.00    +0.000 A 
ATOM     10  C   UNL     1       1.444   4.231  17.934  0.00  0.00    +0.000 A 
ATOM     11  C   UNL     1       1.490   2.856  18.140  0.00  0.00    +0.000 A 
ATOM     12  C   UNL     1       2.721   2.213  18.228  0.00  0.00    +0.000 A 
ATOM     13  C   UNL     1       3.906   2.945  18.121  0.00  0.00    +0.000 A 
ATOM     14  C   UNL     1       3.863   4.326  17.916  0.00  0.00    +0.000 A 
ATOM     15 CL   UNL     1       5.356   5.193  17.850  0.00  0.00    +0.000 Cl
ENDBRANCH   5   9
BRANCH   8  16
ATOM     16  C   UNL     1       0.386  11.388  18.725  0.00  0.00    +0.000 C 
ATOM     17  O   UNL     1      -0.464  11.082  17.891  0.00  0.00    +0.000 OA
BRANCH  16  18
ATOM     18  C   UNL     1       0.948  12.757  18.633  0.00  0.00    +0.000 A 
ATOM     19  C   UNL     1       2.276  12.803  18.156  0.00  0.00    +0.000 A 
ATOM     20  C   UNL     1       2.962  14.006  18.044  0.00  0.00    +0.000 A 
ATOM     21  C   UNL     1       2.323  15.185  18.394  0.00  0.00    +0.000 A 
ATOM     22  C   UNL     1       1.014  15.150  18.883  0.00  0.00    +0.000 A 
ATOM     23  C   UNL     1       0.315  13.941  19.043  0.00  0.00    +0.000 A 
ATOM     24  C   UNL     1      -1.049  13.995  19.672  0.00  0.00    +0.000 C 
ENDBRANCH  16  18
ENDBRANCH   8  16
BRANCH   1  25
ATOM     25  C   UNL     1       1.387   8.501  22.063  0.00  0.00    +0.000 C 
BRANCH  25  27
ATOM     26  N   UNL     1      -0.145  10.179  22.976  0.00  0.00    +0.000 N 
ATOM     27  C   UNL     1      -0.039   8.944  22.376  0.00  0.00    +0.000 C 
ATOM     28  O   UNL     1      -1.007   8.264  22.043  0.00  0.00    +0.000 OA
ATOM     29  H   UNL     1       0.704  10.681  23.227  0.00  0.00    +0.000 HD
BRANCH  26  31
ATOM     30  C   UNL     1      -1.416  12.284  22.966  0.00  0.00    +0.000 C 
ATOM     31  C   UNL     1      -1.426  10.794  23.253  0.00  0.00    +0.000 C 
ENDBRANCH  26  31
ENDBRANCH  25  27
ENDBRANCH   1  25
TORSDOF 6
ENDMDL
MODEL 7
REMARK VINA RESULT:      -7.2      2.979      7.401
REMARK  Name = 
REMARK  8 active torsions:
REMARK  status: ('A' for Active; 'I' for Inactive)
REMARK    1  A    between atoms: C_1  and  C_2
REMARK    2  A    between atoms: C_2  and  N_3
REMARK    3  A    between atoms: C_4  and  C_6
REMARK    4  A    between atoms: C_6  and  N_7
REMARK    5  A    between atoms: C_11  and  C_12
REMARK    6  A    between atoms: C_21  and  C_22
REMARK    7  A    between atoms: C_22  and  C_24
REMARK    8  A    between atoms: C_29  and  C_30
REMARK                            x       y       z     vdW  Elec       q    Type
REMARK                         _______ _______ _______ _____ _____    ______ ____
ROOT
ATOM      1  N   UNL     1       1.538   9.200  20.393  0.00  0.00    +0.000 N 
ATOM      2  C   UNL     1       1.445  10.549  20.039  0.00  0.00    +0.000 A 
ATOM      3  O   UNL     1       1.233  11.473  20.814  0.00  0.00    +0.000 OA
ATOM      4  C   UNL     1       1.724  10.679  18.580  0.00  0.00    +0.000 A 
ATOM      5  C   UNL     1       1.984  11.751  17.822  0.00  0.00    +0.000 C 
ATOM      6  S   UNL     1       1.706   9.128  17.835  0.00  0.00    +0.000 S 
ATOM      7  C   UNL     1       1.931   8.348  19.373  0.00  0.00    +0.000 A 
ATOM      8  C   UNL     1       2.456   7.119  19.508  0.00  0.00    +0.000 C 
ENDROOT
BRANCH   5   9
ATOM      9  C   UNL     1       1.915  13.152  18.218  0.00  0.00    +0.000 A 
ATOM     10  C   UNL     1       3.148  13.788  18.404  0.00  0.00    +0.000 A 
ATOM     11  C   UNL     1       3.205  15.107  18.842  0.00  0.00    +0.000 A 
ATOM     12  C   UNL     1       2.026  15.798  19.102  0.00  0.00    +0.000 A 
ATOM     13  C   UNL     1       0.789  15.169  18.935  0.00  0.00    +0.000 A 
ATOM     14  C   UNL     1       0.730  13.843  18.497  0.00  0.00    +0.000 A 
ATOM     15 CL   UNL     1      -0.820  13.092  18.363  0.00  0.00    +0.000 Cl
ENDBRANCH   5   9
BRANCH   8  16
ATOM     16  C   UNL     1       3.071   6.395  18.351  0.00  0.00    +0.000 C 
ATOM     17  O   UNL     1       3.791   6.965  17.534  0.00  0.00    +0.000 OA
BRANCH  16  18
ATOM     18  C   UNL     1       2.967   4.920  18.233  0.00  0.00    +0.000 A 
ATOM     19  C   UNL     1       1.643   4.441  18.147  0.00  0.00    +0.000 A 
ATOM     20  C   UNL     1       1.370   3.081  18.067  0.00  0.00    +0.000 A 
ATOM     21  C   UNL     1       2.422   2.179  18.059  0.00  0.00    +0.000 A 
ATOM     22  C   UNL     1       3.737   2.640  18.161  0.00  0.00    +0.000 A 
ATOM     23  C   UNL     1       4.035   4.009  18.283  0.00  0.00    +0.000 A 
ATOM     24  C   UNL     1       5.470   4.401  18.490  0.00  0.00    +0.000 C 
ENDBRANCH  16  18
ENDBRANCH   8  16
BRANCH   1  25
ATOM     25  C   UNL     1       1.302   8.780  21.766  0.00  0.00    +0.000 C 
BRANCH  25  27
ATOM     26  N   UNL     1      -0.261  10.294  22.887  0.00  0.00    +0.000 N 
ATOM     27  C   UNL     1      -0.110   9.077  22.262  0.00  0.00    +0.000 C 
ATOM     28  O   UNL     1      -1.040   8.303  22.044  0.00  0.00    +0.000 OA
ATOM     29  H   UNL     1       0.559  10.878  23.037  0.00  0.00    +0.000 HD
BRANCH  26  31
ATOM     30  C   UNL     1      -1.969  12.041  22.603  0.00  0.00    +0.000 C 
ATOM     31  C   UNL     1      -1.552  10.776  23.333  0.00  0.00    +0.000 C 
ENDBRANCH  26  31
ENDBRANCH  25  27
ENDBRANCH   1  25
TORSDOF 6
ENDMDL
MODEL 8
REMARK VINA RESULT:      -7.1      2.907      8.150
REMARK  Name = 
REMARK  8 active torsions:
REMARK  status: ('A' for Active; 'I' for Inactive)
REMARK    1  A    between atoms: C_1  and  C_2
REMARK    2  A    between atoms: C_2  and  N_3
REMARK    3  A    between atoms: C_4  and  C_6
REMARK    4  A    between atoms: C_6  and  N_7
REMARK    5  A    between atoms: C_11  and  C_12
REMARK    6  A    between atoms: C_21  and  C_22
REMARK    7  A    between atoms: C_22  and  C_24
REMARK    8  A    between atoms: C_29  and  C_30
REMARK                            x       y       z     vdW  Elec       q    Type
REMARK                         _______ _______ _______ _____ _____    ______ ____
ROOT
ATOM      1  N   UNL     1       2.356   5.682  20.318  0.00  0.00    +0.000 N 
ATOM      2  C   UNL     1       1.528   6.795  20.150  0.00  0.00    +0.000 A 
ATOM      3  O   UNL     1       0.504   7.018  20.783  0.00  0.00    +0.000 OA
ATOM      4  C   UNL     1       2.139   7.696  19.132  0.00  0.00    +0.000 A 
ATOM      5  C   UNL     1       1.869   8.963  18.797  0.00  0.00    +0.000 C 
ATOM      6  S   UNL     1       3.415   6.881  18.313  0.00  0.00    +0.000 S 
ATOM      7  C   UNL     1       3.539   5.713  19.596  0.00  0.00    +0.000 A 
ATOM      8  C   UNL     1       4.652   5.002  19.842  0.00  0.00    +0.000 C 
ENDROOT
BRANCH   5   9
ATOM      9  C   UNL     1       0.758   9.783  19.263  0.00  0.00    +0.000 A 
ATOM     10  C   UNL     1      -0.163  10.167  18.281  0.00  0.00    +0.000 A 
ATOM     11  C   UNL     1      -1.230  11.001  18.598  0.00  0.00    +0.000 A 
ATOM     12  C   UNL     1      -1.380  11.461  19.903  0.00  0.00    +0.000 A 
ATOM     13  C   UNL     1      -0.459  11.096  20.888  0.00  0.00    +0.000 A 
ATOM     14  C   UNL     1       0.614  10.260  20.571  0.00  0.00    +0.000 A 
ATOM     15 CL   UNL     1       1.758   9.886  21.811  0.00  0.00    +0.000 Cl
ENDBRANCH   5   9
BRANCH   8  16
ATOM     16  C   UNL     1       5.945   5.301  19.149  0.00  0.00    +0.000 C 
ATOM     17  O   UNL     1       6.978   5.539  19.771  0.00  0.00    +0.000 OA
BRANCH  16  18
ATOM     18  C   UNL     1       6.070   5.162  17.678  0.00  0.00    +0.000 A 
ATOM     19  C   UNL     1       5.504   3.977  17.160  0.00  0.00    +0.000 A 
ATOM     20  C   UNL     1       5.567   3.678  15.806  0.00  0.00    +0.000 A 
ATOM     21  C   UNL     1       6.187   4.568  14.943  0.00  0.00    +0.000 A 
ATOM     22  C   UNL     1       6.767   5.736  15.446  0.00  0.00    +0.000 A 
ATOM     23  C   UNL     1       6.750   6.040  16.819  0.00  0.00    +0.000 A 
ATOM     24  C   UNL     1       7.487   7.267  17.276  0.00  0.00    +0.000 C 
ENDBRANCH  16  18
ENDBRANCH   8  16
BRANCH   1  25
ATOM     25  C   UNL     1       1.996   4.627  21.253  0.00  0.00    +0.000 C 
BRANCH  25  27
ATOM     26  N   UNL     1       1.294   3.250  19.353  0.00  0.00    +0.000 N 
ATOM     27  C   UNL     1       1.870   3.252  20.604  0.00  0.00    +0.000 C 
ATOM     28  O   UNL     1       2.323   2.246  21.146  0.00  0.00    +0.000 OA
ATOM     29  H   UNL     1       0.937   4.124  18.973  0.00  0.00    +0.000 HD
BRANCH  26  31
ATOM     30  C   UNL     1       2.436   1.796  17.732  0.00  0.00    +0.000 C 
ATOM     31  C   UNL     1       1.186   2.046  18.556  0.00  0.00    +0.000 C 
ENDBRANCH  26  31
ENDBRANCH  25  27
ENDBRANCH   1  25
TORSDOF 6
ENDMDL
MODEL 9
REMARK VINA RESULT:      -7.1      3.364      8.455
REMARK  Name = 
REMARK  8 active torsions:
REMARK  status: ('A' for Active; 'I' for Inactive)
REMARK    1  A    between atoms: C_1  and  C_2
REMARK    2  A    between atoms: C_2  and  N_3
REMARK    3  A    between atoms: C_4  and  C_6
REMARK    4  A    between atoms: C_6  and  N_7
REMARK    5  A    between atoms: C_11  and  C_12
REMARK    6  A    between atoms: C_21  and  C_22
REMARK    7  A    between atoms: C_22  and  C_24
REMARK    8  A    between atoms: C_29  and  C_30
REMARK                            x       y       z     vdW  Elec       q    Type
REMARK                         _______ _______ _______ _____ _____    ______ ____
ROOT
ATOM      1  N   UNL     1      -0.792  11.372  19.589  0.00  0.00    +0.000 N 
ATOM      2  C   UNL     1      -1.497  12.176  20.489  0.00  0.00    +0.000 A 
ATOM      3  O   UNL     1      -2.421  12.925  20.197  0.00  0.00    +0.000 OA
ATOM      4  C   UNL     1      -0.990  11.911  21.865  0.00  0.00    +0.000 A 
ATOM      5  C   UNL     1      -1.480  12.240  23.066  0.00  0.00    +0.000 C 
ATOM      6  S   UNL     1       0.471  11.004  21.791  0.00  0.00    +0.000 S 
ATOM      7  C   UNL     1       0.114  10.496  20.167  0.00  0.00    +0.000 A 
ATOM      8  C   UNL     1       0.626   9.385  19.611  0.00  0.00    +0.000 C 
ENDROOT
BRANCH   5   9
ATOM      9  C   UNL     1      -2.615  13.108  23.351  0.00  0.00    +0.000 A 
ATOM     10  C   UNL     1      -3.812  12.454  23.667  0.00  0.00    +0.000 A 
ATOM     11  C   UNL     1      -4.975  13.180  23.897  0.00  0.00    +0.000 A 
ATOM     12  C   UNL     1      -4.951  14.568  23.807  0.00  0.00    +0.000 A 
ATOM     13  C   UNL     1      -3.766  15.231  23.476  0.00  0.00    +0.000 A 
ATOM     14  C   UNL     1      -2.596  14.504  23.244  0.00  0.00    +0.000 A 
ATOM     15 CL   UNL     1      -1.172  15.366  22.781  0.00  0.00    +0.000 Cl
ENDBRANCH   5   9
BRANCH   8  16
ATOM     16  C   UNL     1       1.399   8.387  20.416  0.00  0.00    +0.000 C 
ATOM     17  O   UNL     1       1.531   8.495  21.634  0.00  0.00    +0.000 OA
BRANCH  16  18
ATOM     18  C   UNL     1       1.904   7.138  19.799  0.00  0.00    +0.000 A 
ATOM     19  C   UNL     1       1.726   5.987  20.597  0.00  0.00    +0.000 A 
ATOM     20  C   UNL     1       2.176   4.741  20.180  0.00  0.00    +0.000 A 
ATOM     21  C   UNL     1       2.800   4.623  18.948  0.00  0.00    +0.000 A 
ATOM     22  C   UNL     1       2.997   5.758  18.156  0.00  0.00    +0.000 A 
ATOM     23  C   UNL     1       2.586   7.036  18.576  0.00  0.00    +0.000 A 
ATOM     24  C   UNL     1       2.933   8.208  17.702  0.00  0.00    +0.000 C 
ENDBRANCH  16  18
ENDBRANCH   8  16
BRANCH   1  25
ATOM     25  C   UNL     1      -1.077  11.433  18.164  0.00  0.00    +0.000 C 
BRANCH  25  27
ATOM     26  N   UNL     1      -3.360  11.810  17.363  0.00  0.00    +0.000 N 
ATOM     27  C   UNL     1      -2.446  10.873  17.790  0.00  0.00    +0.000 C 
ATOM     28  O   UNL     1      -2.668   9.664  17.807  0.00  0.00    +0.000 OA
ATOM     29  H   UNL     1      -3.103  12.795  17.383  0.00  0.00    +0.000 HD
BRANCH  26  31
ATOM     30  C   UNL     1      -5.706  11.429  17.992  0.00  0.00    +0.000 C 
ATOM     31  C   UNL     1      -4.674  11.441  16.879  0.00  0.00    +0.000 C 
ENDBRANCH  26  31
ENDBRANCH  25  27
ENDBRANCH   1  25
TORSDOF 6
ENDMDL
