MODEL 1
REMARK VINA RESULT:      -7.5      0.000      0.000
REMARK  Name = 
REMARK  7 active torsions:
REMARK  status: ('A' for Active; 'I' for Inactive)
REMARK    1  A    between atoms: C_1  and  O_2
REMARK    2  A    between atoms: O_2  and  C_3
REMARK    3  A    between atoms: C_8  and  C_9
REMARK    4  A    between atoms: C_15  and  C_16
REMARK    5  A    between atoms: C_16  and  C_18
REMARK    6  A    between atoms: C_27  and  O_28
REMARK    7  A    between atoms: O_28  and  C_29
REMARK                            x       y       z     vdW  Elec       q    Type
REMARK                         _______ _______ _______ _____ _____    ______ ____
ROOT
ATOM      1  C   UNL     1       1.796   7.561  20.245  0.00  0.00    +0.000 A 
ATOM      2  C   UNL     1       1.490   7.933  21.562  0.00  0.00    +0.000 A 
ATOM      3  C   UNL     1       0.784   9.123  21.845  0.00  0.00    +0.000 A 
ATOM      4  C   UNL     1       0.369   9.412  23.136  0.00  0.00    +0.000 A 
ATOM      5  N   UNL     1      -0.400  10.468  23.463  0.00  0.00    +0.000 NA
ATOM      6  C   UNL     1      -0.800  11.324  22.478  0.00  0.00    +0.000 A 
ATOM      7  C   UNL     1      -0.387  11.149  21.139  0.00  0.00    +0.000 A 
ATOM      8  C   UNL     1       0.456  10.029  20.826  0.00  0.00    +0.000 A 
ATOM      9  C   UNL     1       1.027   9.740  19.566  0.00  0.00    +0.000 A 
ATOM     10  C   UNL     1       1.588   8.495  19.234  0.00  0.00    +0.000 A 
ENDROOT
BRANCH   6  11
ATOM     11  C   UNL     1      -1.725  12.362  23.001  0.00  0.00    +0.000 A 
ATOM     12  C   UNL     1      -1.243  13.660  23.289  0.00  0.00    +0.000 A 
ATOM     13  C   UNL     1      -2.067  14.653  23.836  0.00  0.00    +0.000 A 
ATOM     14  C   UNL     1      -3.402  14.376  24.101  0.00  0.00    +0.000 A 
ATOM     15  C   UNL     1      -3.904  13.100  23.847  0.00  0.00    +0.000 A 
ATOM     16  C   UNL     1      -3.070  12.103  23.323  0.00  0.00    +0.000 A 
ENDBRANCH   6  11
BRANCH   1  18
ATOM     17  C   UNL     1       1.699   5.213  20.569  0.00  0.00    +0.000 C 
ATOM     18  O   UNL     1       2.316   6.333  19.939  0.00  0.00    +0.000 OA
ENDBRANCH   1  18
BRANCH   7  19
ATOM     19  C   UNL     1      -0.752  12.165  20.106  0.00  0.00    +0.000 C 
ATOM     20  O   UNL     1       0.041  13.082  19.894  0.00  0.00    +0.000 OA
BRANCH  19  21
ATOM     21  C   UNL     1      -1.964  12.103  19.227  0.00  0.00    +0.000 A 
ATOM     22  C   UNL     1      -1.758  11.622  17.921  0.00  0.00    +0.000 A 
ATOM     23  C   UNL     1      -2.836  11.281  17.105  0.00  0.00    +0.000 A 
ATOM     24  C   UNL     1      -4.127  11.426  17.592  0.00  0.00    +0.000 A 
ATOM     25  F   UNL     1      -5.161  11.013  16.848  0.00  0.00    +0.000 F 
ATOM     26  C   UNL     1      -4.358  11.973  18.851  0.00  0.00    +0.000 A 
ATOM     27  C   UNL     1      -3.275  12.351  19.660  0.00  0.00    +0.000 A 
ENDBRANCH  19  21
ENDBRANCH   7  19
BRANCH  10  28
ATOM     28  O   UNL     1       1.804   8.398  17.888  0.00  0.00    +0.000 OA
ATOM     29  C   UNL     1       3.106   8.147  17.391  0.00  0.00    +0.000 C 
ENDBRANCH  10  28
TORSDOF 5
ENDMDL
MODEL 2
REMARK VINA RESULT:      -6.8      2.310      2.892
REMARK  Name = 
REMARK  7 active torsions:
REMARK  status: ('A' for Active; 'I' for Inactive)
REMARK    1  A    between atoms: C_1  and  O_2
REMARK    2  A    between atoms: O_2  and  C_3
REMARK    3  A    between atoms: C_8  and  C_9
REMARK    4  A    between atoms: C_15  and  C_16
REMARK    5  A    between atoms: C_16  and  C_18
REMARK    6  A    between atoms: C_27  and  O_28
REMARK    7  A    between atoms: O_28  and  C_29
REMARK                            x       y       z     vdW  Elec       q    Type
REMARK                         _______ _______ _______ _____ _____    ______ ____
ROOT
ATOM      1  C   UNL     1       1.780   7.646  20.197  0.00  0.00    +0.000 A 
ATOM      2  C   UNL     1       1.460   8.033  21.507  0.00  0.00    +0.000 A 
ATOM      3  C   UNL     1       0.744   9.222  21.768  0.00  0.00    +0.000 A 
ATOM      4  C   UNL     1       0.316   9.526  23.051  0.00  0.00    +0.000 A 
ATOM      5  N   UNL     1      -0.462  10.580  23.358  0.00  0.00    +0.000 NA
ATOM      6  C   UNL     1      -0.861  11.421  22.358  0.00  0.00    +0.000 A 
ATOM      7  C   UNL     1      -0.435  11.230  21.025  0.00  0.00    +0.000 A 
ATOM      8  C   UNL     1       0.418  10.112  20.734  0.00  0.00    +0.000 A 
ATOM      9  C   UNL     1       1.002   9.810  19.482  0.00  0.00    +0.000 A 
ATOM     10  C   UNL     1       1.574   8.564  19.173  0.00  0.00    +0.000 A 
ENDROOT
BRANCH   6  11
ATOM     11  C   UNL     1      -1.797  12.459  22.860  0.00  0.00    +0.000 A 
ATOM     12  C   UNL     1      -1.295  13.679  23.370  0.00  0.00    +0.000 A 
ATOM     13  C   UNL     1      -2.137  14.662  23.904  0.00  0.00    +0.000 A 
ATOM     14  C   UNL     1      -3.511  14.455  23.934  0.00  0.00    +0.000 A 
ATOM     15  C   UNL     1      -4.036  13.255  23.458  0.00  0.00    +0.000 A 
ATOM     16  C   UNL     1      -3.187  12.265  22.946  0.00  0.00    +0.000 A 
ENDBRANCH   6  11
BRANCH   1  18
ATOM     17  C   UNL     1       1.786   5.318  20.651  0.00  0.00    +0.000 C 
ATOM     18  O   UNL     1       2.311   6.418  19.912  0.00  0.00    +0.000 OA
ENDBRANCH   1  18
BRANCH   7  19
ATOM     19  C   UNL     1      -0.800  12.230  19.976  0.00  0.00    +0.000 C 
ATOM     20  O   UNL     1      -1.792  12.003  19.285  0.00  0.00    +0.000 OA
BRANCH  19  21
ATOM     21  C   UNL     1      -0.114  13.546  19.764  0.00  0.00    +0.000 A 
ATOM     22  C   UNL     1       1.218  13.485  19.317  0.00  0.00    +0.000 A 
ATOM     23  C   UNL     1       1.867  14.626  18.845  0.00  0.00    +0.000 A 
ATOM     24  C   UNL     1       1.186  15.834  18.825  0.00  0.00    +0.000 A 
ATOM     25  F   UNL     1       1.772  16.911  18.287  0.00  0.00    +0.000 F 
ATOM     26  C   UNL     1      -0.106  15.934  19.335  0.00  0.00    +0.000 A 
ATOM     27  C   UNL     1      -0.748  14.795  19.844  0.00  0.00    +0.000 A 
ENDBRANCH  19  21
ENDBRANCH   7  19
BRANCH  10  28
ATOM     28  O   UNL     1       1.801   8.451  17.829  0.00  0.00    +0.000 OA
ATOM     29  C   UNL     1       3.065   8.026  17.354  0.00  0.00    +0.000 C 
ENDBRANCH  10  28
TORSDOF 5
ENDMDL
MODEL 3
REMARK VINA RESULT:      -6.8      0.331      1.306
REMARK  Name = 
REMARK  7 active torsions:
REMARK  status: ('A' for Active; 'I' for Inactive)
REMARK    1  A    between atoms: C_1  and  O_2
REMARK    2  A    between atoms: O_2  and  C_3
REMARK    3  A    between atoms: C_8  and  C_9
REMARK    4  A    between atoms: C_15  and  C_16
REMARK    5  A    between atoms: C_16  and  C_18
REMARK    6  A    between atoms: C_27  and  O_28
REMARK    7  A    between atoms: O_28  and  C_29
REMARK                            x       y       z     vdW  Elec       q    Type
REMARK                         _______ _______ _______ _____ _____    ______ ____
ROOT
ATOM      1  C   UNL     1       1.979   7.433  20.278  0.00  0.00    +0.000 A 
ATOM      2  C   UNL     1       1.743   7.883  21.586  0.00  0.00    +0.000 A 
ATOM      3  C   UNL     1       0.996   9.055  21.836  0.00  0.00    +0.000 A 
ATOM      4  C   UNL     1       0.653   9.415  23.130  0.00  0.00    +0.000 A 
ATOM      5  N   UNL     1      -0.147  10.453  23.439  0.00  0.00    +0.000 NA
ATOM      6  C   UNL     1      -0.657  11.217  22.429  0.00  0.00    +0.000 A 
ATOM      7  C   UNL     1      -0.326  10.967  21.079  0.00  0.00    +0.000 A 
ATOM      8  C   UNL     1       0.553   9.869  20.784  0.00  0.00    +0.000 A 
ATOM      9  C   UNL     1       1.053   9.519  19.509  0.00  0.00    +0.000 A 
ATOM     10  C   UNL     1       1.655   8.282  19.224  0.00  0.00    +0.000 A 
ENDROOT
BRANCH   6  11
ATOM     11  C   UNL     1      -1.598  12.243  22.944  0.00  0.00    +0.000 A 
ATOM     12  C   UNL     1      -2.942  11.898  23.221  0.00  0.00    +0.000 A 
ATOM     13  C   UNL     1      -3.877  12.846  23.655  0.00  0.00    +0.000 A 
ATOM     14  C   UNL     1      -3.490  14.168  23.836  0.00  0.00    +0.000 A 
ATOM     15  C   UNL     1      -2.178  14.546  23.553  0.00  0.00    +0.000 A 
ATOM     16  C   UNL     1      -1.252  13.598  23.096  0.00  0.00    +0.000 A 
ENDBRANCH   6  11
BRANCH   1  18
ATOM     17  C   UNL     1       1.659   5.095  20.040  0.00  0.00    +0.000 C 
ATOM     18  O   UNL     1       2.542   6.213  20.020  0.00  0.00    +0.000 OA
ENDBRANCH   1  18
BRANCH   7  19
ATOM     19  C   UNL     1      -0.813  11.888  20.008  0.00  0.00    +0.000 C 
ATOM     20  O   UNL     1      -0.157  12.904  19.781  0.00  0.00    +0.000 OA
BRANCH  19  21
ATOM     21  C   UNL     1      -1.983  11.623  19.109  0.00  0.00    +0.000 A 
ATOM     22  C   UNL     1      -3.240  12.031  19.592  0.00  0.00    +0.000 A 
ATOM     23  C   UNL     1      -4.351  12.070  18.750  0.00  0.00    +0.000 A 
ATOM     24  C   UNL     1      -4.209  11.695  17.422  0.00  0.00    +0.000 A 
ATOM     25  F   UNL     1      -5.250  11.819  16.589  0.00  0.00    +0.000 F 
ATOM     26  C   UNL     1      -2.994  11.212  16.943  0.00  0.00    +0.000 A 
ATOM     27  C   UNL     1      -1.883  11.137  17.797  0.00  0.00    +0.000 A 
ENDBRANCH  19  21
ENDBRANCH   7  19
BRANCH  10  28
ATOM     28  O   UNL     1       1.785   8.100  17.875  0.00  0.00    +0.000 OA
ATOM     29  C   UNL     1       3.071   8.023  17.287  0.00  0.00    +0.000 C 
ENDBRANCH  10  28
TORSDOF 5
ENDMDL
MODEL 4
REMARK VINA RESULT:      -6.7      3.931      8.908
REMARK  Name = 
REMARK  7 active torsions:
REMARK  status: ('A' for Active; 'I' for Inactive)
REMARK    1  A    between atoms: C_1  and  O_2
REMARK    2  A    between atoms: O_2  and  C_3
REMARK    3  A    between atoms: C_8  and  C_9
REMARK    4  A    between atoms: C_15  and  C_16
REMARK    5  A    between atoms: C_16  and  C_18
REMARK    6  A    between atoms: C_27  and  O_28
REMARK    7  A    between atoms: O_28  and  C_29
REMARK                            x       y       z     vdW  Elec       q    Type
REMARK                         _______ _______ _______ _____ _____    ______ ____
ROOT
ATOM      1  C   UNL     1       0.977  10.613  20.975  0.00  0.00    +0.000 A 
ATOM      2  C   UNL     1       0.683   9.306  21.391  0.00  0.00    +0.000 A 
ATOM      3  C   UNL     1       1.166   8.183  20.684  0.00  0.00    +0.000 A 
ATOM      4  C   UNL     1       0.984   6.901  21.179  0.00  0.00    +0.000 A 
ATOM      5  N   UNL     1       1.509   5.794  20.621  0.00  0.00    +0.000 NA
ATOM      6  C   UNL     1       2.267   5.920  19.491  0.00  0.00    +0.000 A 
ATOM      7  C   UNL     1       2.468   7.176  18.877  0.00  0.00    +0.000 A 
ATOM      8  C   UNL     1       1.871   8.334  19.481  0.00  0.00    +0.000 A 
ATOM      9  C   UNL     1       1.899   9.652  18.969  0.00  0.00    +0.000 A 
ATOM     10  C   UNL     1       1.569  10.787  19.728  0.00  0.00    +0.000 A 
ENDROOT
BRANCH   6  11
ATOM     11  C   UNL     1       2.851   4.618  19.079  0.00  0.00    +0.000 A 
ATOM     12  C   UNL     1       2.221   3.844  18.077  0.00  0.00    +0.000 A 
ATOM     13  C   UNL     1       2.705   2.586  17.698  0.00  0.00    +0.000 A 
ATOM     14  C   UNL     1       3.844   2.070  18.304  0.00  0.00    +0.000 A 
ATOM     15  C   UNL     1       4.477   2.799  19.310  0.00  0.00    +0.000 A 
ATOM     16  C   UNL     1       3.975   4.047  19.703  0.00  0.00    +0.000 A 
ENDBRANCH   6  11
BRANCH   1  18
ATOM     17  C   UNL     1      -0.715  11.975  21.928  0.00  0.00    +0.000 C 
ATOM     18  O   UNL     1       0.672  11.705  21.741  0.00  0.00    +0.000 OA
ENDBRANCH   1  18
BRANCH   7  19
ATOM     19  C   UNL     1       3.210   7.263  17.583  0.00  0.00    +0.000 C 
ATOM     20  O   UNL     1       2.775   8.027  16.721  0.00  0.00    +0.000 OA
BRANCH  19  21
ATOM     21  C   UNL     1       4.507   6.573  17.284  0.00  0.00    +0.000 A 
ATOM     22  C   UNL     1       5.574   6.857  18.155  0.00  0.00    +0.000 A 
ATOM     23  C   UNL     1       6.739   6.090  18.131  0.00  0.00    +0.000 A 
ATOM     24  C   UNL     1       6.842   5.040  17.231  0.00  0.00    +0.000 A 
ATOM     25  F   UNL     1       7.918   4.245  17.269  0.00  0.00    +0.000 F 
ATOM     26  C   UNL     1       5.831   4.790  16.307  0.00  0.00    +0.000 A 
ATOM     27  C   UNL     1       4.673   5.583  16.304  0.00  0.00    +0.000 A 
ENDBRANCH  19  21
ENDBRANCH   7  19
BRANCH  10  28
ATOM     28  O   UNL     1       1.950  11.933  19.086  0.00  0.00    +0.000 OA
ATOM     29  C   UNL     1       0.975  12.791  18.521  0.00  0.00    +0.000 C 
ENDBRANCH  10  28
TORSDOF 5
ENDMDL
MODEL 5
REMARK VINA RESULT:      -6.6      1.421      1.816
REMARK  Name = 
REMARK  7 active torsions:
REMARK  status: ('A' for Active; 'I' for Inactive)
REMARK    1  A    between atoms: C_1  and  O_2
REMARK    2  A    between atoms: O_2  and  C_3
REMARK    3  A    between atoms: C_8  and  C_9
REMARK    4  A    between atoms: C_15  and  C_16
REMARK    5  A    between atoms: C_16  and  C_18
REMARK    6  A    between atoms: C_27  and  O_28
REMARK    7  A    between atoms: O_28  and  C_29
REMARK                            x       y       z     vdW  Elec       q    Type
REMARK                         _______ _______ _______ _____ _____    ______ ____
ROOT
ATOM      1  C   UNL     1       1.689   7.894  20.574  0.00  0.00    +0.000 A 
ATOM      2  C   UNL     1       1.214   8.594  21.693  0.00  0.00    +0.000 A 
ATOM      3  C   UNL     1       0.346   9.699  21.556  0.00  0.00    +0.000 A 
ATOM      4  C   UNL     1      -0.224  10.297  22.669  0.00  0.00    +0.000 A 
ATOM      5  N   UNL     1      -1.142  11.280  22.611  0.00  0.00    +0.000 NA
ATOM      6  C   UNL     1      -1.546  11.736  21.389  0.00  0.00    +0.000 A 
ATOM      7  C   UNL     1      -0.987  11.231  20.195  0.00  0.00    +0.000 A 
ATOM      8  C   UNL     1       0.011  10.202  20.290  0.00  0.00    +0.000 A 
ATOM      9  C   UNL     1       0.732   9.636  19.214  0.00  0.00    +0.000 A 
ATOM     10  C   UNL     1       1.469   8.443  19.315  0.00  0.00    +0.000 A 
ENDROOT
BRANCH   6  11
ATOM     11  C   UNL     1      -2.636  12.737  21.515  0.00  0.00    +0.000 A 
ATOM     12  C   UNL     1      -2.352  14.037  21.997  0.00  0.00    +0.000 A 
ATOM     13  C   UNL     1      -3.357  14.994  22.184  0.00  0.00    +0.000 A 
ATOM     14  C   UNL     1      -4.676  14.681  21.882  0.00  0.00    +0.000 A 
ATOM     15  C   UNL     1      -4.993  13.403  21.423  0.00  0.00    +0.000 A 
ATOM     16  C   UNL     1      -3.987  12.441  21.261  0.00  0.00    +0.000 A 
ENDBRANCH   6  11
BRANCH   1  18
ATOM     17  C   UNL     1       1.616   5.523  20.572  0.00  0.00    +0.000 C 
ATOM     18  O   UNL     1       2.381   6.720  20.692  0.00  0.00    +0.000 OA
ENDBRANCH   1  18
BRANCH   7  19
ATOM     19  C   UNL     1      -1.372  11.828  18.880  0.00  0.00    +0.000 C 
ATOM     20  O   UNL     1      -0.891  12.921  18.582  0.00  0.00    +0.000 OA
BRANCH  19  21
ATOM     21  C   UNL     1      -2.216  11.154  17.841  0.00  0.00    +0.000 A 
ATOM     22  C   UNL     1      -3.491  11.709  17.624  0.00  0.00    +0.000 A 
ATOM     23  C   UNL     1      -4.256  11.333  16.520  0.00  0.00    +0.000 A 
ATOM     24  C   UNL     1      -3.750  10.395  15.632  0.00  0.00    +0.000 A 
ATOM     25  F   UNL     1      -4.440  10.100  14.523  0.00  0.00    +0.000 F 
ATOM     26  C   UNL     1      -2.525   9.776  15.869  0.00  0.00    +0.000 A 
ATOM     27  C   UNL     1      -1.770  10.125  16.998  0.00  0.00    +0.000 A 
ENDBRANCH  19  21
ENDBRANCH   7  19
BRANCH  10  28
ATOM     28  O   UNL     1       1.823   7.981  18.078  0.00  0.00    +0.000 OA
ATOM     29  C   UNL     1       3.187   7.931  17.701  0.00  0.00    +0.000 C 
ENDBRANCH  10  28
TORSDOF 5
ENDMDL
MODEL 6
REMARK VINA RESULT:      -6.6      2.366      3.210
REMARK  Name = 
REMARK  7 active torsions:
REMARK  status: ('A' for Active; 'I' for Inactive)
REMARK    1  A    between atoms: C_1  and  O_2
REMARK    2  A    between atoms: O_2  and  C_3
REMARK    3  A    between atoms: C_8  and  C_9
REMARK    4  A    between atoms: C_15  and  C_16
REMARK    5  A    between atoms: C_16  and  C_18
REMARK    6  A    between atoms: C_27  and  O_28
REMARK    7  A    between atoms: O_28  and  C_29
REMARK                            x       y       z     vdW  Elec       q    Type
REMARK                         _______ _______ _______ _____ _____    ______ ____
ROOT
ATOM      1  C   UNL     1       1.853   7.485  20.306  0.00  0.00    +0.000 A 
ATOM      2  C   UNL     1       1.537   7.949  21.592  0.00  0.00    +0.000 A 
ATOM      3  C   UNL     1       0.820   9.150  21.785  0.00  0.00    +0.000 A 
ATOM      4  C   UNL     1       0.396   9.528  23.050  0.00  0.00    +0.000 A 
ATOM      5  N   UNL     1      -0.382  10.598  23.297  0.00  0.00    +0.000 NA
ATOM      6  C   UNL     1      -0.785  11.378  22.251  0.00  0.00    +0.000 A 
ATOM      7  C   UNL     1      -0.364  11.110  20.930  0.00  0.00    +0.000 A 
ATOM      8  C   UNL     1       0.490   9.977  20.702  0.00  0.00    +0.000 A 
ATOM      9  C   UNL     1       1.070   9.603  19.468  0.00  0.00    +0.000 A 
ATOM     10  C   UNL     1       1.643   8.342  19.230  0.00  0.00    +0.000 A 
ENDROOT
BRANCH   6  11
ATOM     11  C   UNL     1      -1.721  12.442  22.694  0.00  0.00    +0.000 A 
ATOM     12  C   UNL     1      -3.114  12.282  22.513  0.00  0.00    +0.000 A 
ATOM     13  C   UNL     1      -4.028  13.284  22.864  0.00  0.00    +0.000 A 
ATOM     14  C   UNL     1      -3.572  14.473  23.418  0.00  0.00    +0.000 A 
ATOM     15  C   UNL     1      -2.204  14.672  23.592  0.00  0.00    +0.000 A 
ATOM     16  C   UNL     1      -1.291  13.676  23.216  0.00  0.00    +0.000 A 
ENDBRANCH   6  11
BRANCH   1  18
ATOM     17  C   UNL     1       1.566   5.135  20.460  0.00  0.00    +0.000 C 
ATOM     18  O   UNL     1       2.385   6.243  20.092  0.00  0.00    +0.000 OA
ENDBRANCH   1  18
BRANCH   7  19
ATOM     19  C   UNL     1      -0.732  12.046  19.825  0.00  0.00    +0.000 C 
ATOM     20  O   UNL     1      -1.786  11.839  19.224  0.00  0.00    +0.000 OA
BRANCH  19  21
ATOM     21  C   UNL     1       0.027  13.284  19.454  0.00  0.00    +0.000 A 
ATOM     22  C   UNL     1      -0.626  14.506  19.697  0.00  0.00    +0.000 A 
ATOM     23  C   UNL     1       0.070  15.714  19.634  0.00  0.00    +0.000 A 
ATOM     24  C   UNL     1       1.421  15.702  19.321  0.00  0.00    +0.000 A 
ATOM     25  F   UNL     1       2.113  16.848  19.350  0.00  0.00    +0.000 F 
ATOM     26  C   UNL     1       2.069  14.512  19.000  0.00  0.00    +0.000 A 
ATOM     27  C   UNL     1       1.363  13.300  19.027  0.00  0.00    +0.000 A 
ENDBRANCH  19  21
ENDBRANCH   7  19
BRANCH  10  28
ATOM     28  O   UNL     1       1.866   8.150  17.895  0.00  0.00    +0.000 OA
ATOM     29  C   UNL     1       3.180   7.928  17.417  0.00  0.00    +0.000 C 
ENDBRANCH  10  28
TORSDOF 5
ENDMDL
MODEL 7
REMARK VINA RESULT:      -6.4      2.721      3.340
REMARK  Name = 
REMARK  7 active torsions:
REMARK  status: ('A' for Active; 'I' for Inactive)
REMARK    1  A    between atoms: C_1  and  O_2
REMARK    2  A    between atoms: O_2  and  C_3
REMARK    3  A    between atoms: C_8  and  C_9
REMARK    4  A    between atoms: C_15  and  C_16
REMARK    5  A    between atoms: C_16  and  C_18
REMARK    6  A    between atoms: C_27  and  O_28
REMARK    7  A    between atoms: O_28  and  C_29
REMARK                            x       y       z     vdW  Elec       q    Type
REMARK                         _______ _______ _______ _____ _____    ______ ____
ROOT
ATOM      1  C   UNL     1       1.933   7.132  19.997  0.00  0.00    +0.000 A 
ATOM      2  C   UNL     1       1.439   7.619  21.217  0.00  0.00    +0.000 A 
ATOM      3  C   UNL     1       0.849   8.898  21.313  0.00  0.00    +0.000 A 
ATOM      4  C   UNL     1       0.243   9.313  22.489  0.00  0.00    +0.000 A 
ATOM      5  N   UNL     1      -0.433  10.469  22.623  0.00  0.00    +0.000 NA
ATOM      6  C   UNL     1      -0.536  11.303  21.547  0.00  0.00    +0.000 A 
ATOM      7  C   UNL     1       0.090  10.998  20.319  0.00  0.00    +0.000 A 
ATOM      8  C   UNL     1       0.829   9.770  20.216  0.00  0.00    +0.000 A 
ATOM      9  C   UNL     1       1.581   9.339  19.099  0.00  0.00    +0.000 A 
ATOM     10  C   UNL     1       2.032   8.019  18.929  0.00  0.00    +0.000 A 
ENDROOT
BRANCH   6  11
ATOM     11  C   UNL     1      -1.404  12.471  21.844  0.00  0.00    +0.000 A 
ATOM     12  C   UNL     1      -0.926  13.517  22.668  0.00  0.00    +0.000 A 
ATOM     13  C   UNL     1      -1.729  14.610  23.019  0.00  0.00    +0.000 A 
ATOM     14  C   UNL     1      -3.032  14.692  22.546  0.00  0.00    +0.000 A 
ATOM     15  C   UNL     1      -3.541  13.668  21.748  0.00  0.00    +0.000 A 
ATOM     16  C   UNL     1      -2.741  12.565  21.419  0.00  0.00    +0.000 A 
ENDBRANCH   6  11
BRANCH   1  18
ATOM     17  C   UNL     1       1.872   4.908  20.819  0.00  0.00    +0.000 C 
ATOM     18  O   UNL     1       2.342   5.836  19.844  0.00  0.00    +0.000 OA
ENDBRANCH   1  18
BRANCH   7  19
ATOM     19  C   UNL     1       0.050  11.983  19.196  0.00  0.00    +0.000 C 
ATOM     20  O   UNL     1      -0.814  11.837  18.333  0.00  0.00    +0.000 OA
BRANCH  19  21
ATOM     21  C   UNL     1       0.914  13.203  19.088  0.00  0.00    +0.000 A 
ATOM     22  C   UNL     1       2.215  13.000  18.592  0.00  0.00    +0.000 A 
ATOM     23  C   UNL     1       3.012  14.079  18.211  0.00  0.00    +0.000 A 
ATOM     24  C   UNL     1       2.512  15.367  18.331  0.00  0.00    +0.000 A 
ATOM     25  F   UNL     1       3.237  16.399  17.880  0.00  0.00    +0.000 F 
ATOM     26  C   UNL     1       1.259  15.597  18.893  0.00  0.00    +0.000 A 
ATOM     27  C   UNL     1       0.469  14.515  19.311  0.00  0.00    +0.000 A 
ENDBRANCH  19  21
ENDBRANCH   7  19
BRANCH  10  28
ATOM     28  O   UNL     1       2.477   7.814  17.653  0.00  0.00    +0.000 OA
ATOM     29  C   UNL     1       3.815   7.411  17.421  0.00  0.00    +0.000 C 
ENDBRANCH  10  28
TORSDOF 5
ENDMDL
MODEL 8
REMARK VINA RESULT:      -6.4      2.610      3.454
REMARK  Name = 
REMARK  7 active torsions:
REMARK  status: ('A' for Active; 'I' for Inactive)
REMARK    1  A    between atoms: C_1  and  O_2
REMARK    2  A    between atoms: O_2  and  C_3
REMARK    3  A    between atoms: C_8  and  C_9
REMARK    4  A    between atoms: C_15  and  C_16
REMARK    5  A    between atoms: C_16  and  C_18
REMARK    6  A    between atoms: C_27  and  O_28
REMARK    7  A    between atoms: O_28  and  C_29
REMARK                            x       y       z     vdW  Elec       q    Type
REMARK                         _______ _______ _______ _____ _____    ______ ____
ROOT
ATOM      1  C   UNL     1       1.669   7.445  20.203  0.00  0.00    +0.000 A 
ATOM      2  C   UNL     1       1.257   7.773  21.503  0.00  0.00    +0.000 A 
ATOM      3  C   UNL     1       0.672   9.025  21.795  0.00  0.00    +0.000 A 
ATOM      4  C   UNL     1       0.144   9.286  23.050  0.00  0.00    +0.000 A 
ATOM      5  N   UNL     1      -0.524  10.410  23.369  0.00  0.00    +0.000 NA
ATOM      6  C   UNL     1      -0.699  11.369  22.413  0.00  0.00    +0.000 A 
ATOM      7  C   UNL     1      -0.154  11.224  21.118  0.00  0.00    +0.000 A 
ATOM      8  C   UNL     1       0.578  10.025  20.816  0.00  0.00    +0.000 A 
ATOM      9  C   UNL     1       1.255   9.742  19.608  0.00  0.00    +0.000 A 
ATOM     10  C   UNL     1       1.697   8.457  19.249  0.00  0.00    +0.000 A 
ENDROOT
BRANCH   6  11
ATOM     11  C   UNL     1      -1.547  12.484  22.907  0.00  0.00    +0.000 A 
ATOM     12  C   UNL     1      -0.950  13.695  23.330  0.00  0.00    +0.000 A 
ATOM     13  C   UNL     1      -1.707  14.750  23.855  0.00  0.00    +0.000 A 
ATOM     14  C   UNL     1      -3.086  14.627  23.963  0.00  0.00    +0.000 A 
ATOM     15  C   UNL     1      -3.703  13.440  23.574  0.00  0.00    +0.000 A 
ATOM     16  C   UNL     1      -2.940  12.377  23.071  0.00  0.00    +0.000 A 
ENDBRANCH   6  11
BRANCH   1  18
ATOM     17  C   UNL     1       1.910   5.181  20.868  0.00  0.00    +0.000 C 
ATOM     18  O   UNL     1       2.070   6.182  19.865  0.00  0.00    +0.000 OA
ENDBRANCH   1  18
BRANCH   7  19
ATOM     19  C   UNL     1      -0.270  12.339  20.130  0.00  0.00    +0.000 C 
ATOM     20  O   UNL     1      -1.386  12.595  19.679  0.00  0.00    +0.000 OA
BRANCH  19  21
ATOM     21  C   UNL     1       0.850  13.246  19.720  0.00  0.00    +0.000 A 
ATOM     22  C   UNL     1       1.665  13.733  20.758  0.00  0.00    +0.000 A 
ATOM     23  C   UNL     1       2.875  14.369  20.479  0.00  0.00    +0.000 A 
ATOM     24  C   UNL     1       3.271  14.525  19.159  0.00  0.00    +0.000 A 
ATOM     25  F   UNL     1       4.473  15.051  18.890  0.00  0.00    +0.000 F 
ATOM     26  C   UNL     1       2.444  14.122  18.114  0.00  0.00    +0.000 A 
ATOM     27  C   UNL     1       1.210  13.515  18.390  0.00  0.00    +0.000 A 
ENDBRANCH  19  21
ENDBRANCH   7  19
BRANCH  10  28
ATOM     28  O   UNL     1       2.057   8.415  17.930  0.00  0.00    +0.000 OA
ATOM     29  C   UNL     1       3.336   7.935  17.556  0.00  0.00    +0.000 C 
ENDBRANCH  10  28
TORSDOF 5
ENDMDL
MODEL 9
REMARK VINA RESULT:      -6.4      2.998      5.342
REMARK  Name = 
REMARK  7 active torsions:
REMARK  status: ('A' for Active; 'I' for Inactive)
REMARK    1  A    between atoms: C_1  and  O_2
REMARK    2  A    between atoms: O_2  and  C_3
REMARK    3  A    between atoms: C_8  and  C_9
REMARK    4  A    between atoms: C_15  and  C_16
REMARK    5  A    between atoms: C_16  and  C_18
REMARK    6  A    between atoms: C_27  and  O_28
REMARK    7  A    between atoms: O_28  and  C_29
REMARK                            x       y       z     vdW  Elec       q    Type
REMARK                         _______ _______ _______ _____ _____    ______ ____
ROOT
ATOM      1  C   UNL     1       1.007  10.369  18.579  0.00  0.00    +0.000 A 
ATOM      2  C   UNL     1      -0.132   9.870  17.931  0.00  0.00    +0.000 A 
ATOM      3  C   UNL     1      -1.416  10.395  18.192  0.00  0.00    +0.000 A 
ATOM      4  C   UNL     1      -2.514   9.990  17.450  0.00  0.00    +0.000 A 
ATOM      5  N   UNL     1      -3.744  10.524  17.566  0.00  0.00    +0.000 NA
ATOM      6  C   UNL     1      -3.947  11.525  18.473  0.00  0.00    +0.000 A 
ATOM      7  C   UNL     1      -2.907  11.973  19.317  0.00  0.00    +0.000 A 
ATOM      8  C   UNL     1      -1.612  11.364  19.188  0.00  0.00    +0.000 A 
ATOM      9  C   UNL     1      -0.481  11.627  19.993  0.00  0.00    +0.000 A 
ATOM     10  C   UNL     1       0.825  11.239  19.649  0.00  0.00    +0.000 A 
ENDROOT
BRANCH   6  11
ATOM     11  C   UNL     1      -5.328  12.065  18.390  0.00  0.00    +0.000 A 
ATOM     12  C   UNL     1      -5.680  12.950  17.344  0.00  0.00    +0.000 A 
ATOM     13  C   UNL     1      -6.954  13.527  17.259  0.00  0.00    +0.000 A 
ATOM     14  C   UNL     1      -7.917  13.224  18.214  0.00  0.00    +0.000 A 
ATOM     15  C   UNL     1      -7.596  12.370  19.268  0.00  0.00    +0.000 A 
ATOM     16  C   UNL     1      -6.313  11.815  19.363  0.00  0.00    +0.000 A 
ENDBRANCH   6  11
BRANCH   1  18
ATOM     17  C   UNL     1       2.430   8.658  17.756  0.00  0.00    +0.000 C 
ATOM     18  O   UNL     1       2.272  10.000  18.211  0.00  0.00    +0.000 OA
ENDBRANCH   1  18
BRANCH   7  19
ATOM     19  C   UNL     1      -3.189  12.992  20.373  0.00  0.00    +0.000 C 
ATOM     20  O   UNL     1      -3.075  14.180  20.072  0.00  0.00    +0.000 OA
BRANCH  19  21
ATOM     21  C   UNL     1      -3.706  12.689  21.747  0.00  0.00    +0.000 A 
ATOM     22  C   UNL     1      -2.767  12.184  22.664  0.00  0.00    +0.000 A 
ATOM     23  C   UNL     1      -3.065  12.108  24.025  0.00  0.00    +0.000 A 
ATOM     24  C   UNL     1      -4.307  12.532  24.471  0.00  0.00    +0.000 A 
ATOM     25  F   UNL     1      -4.564  12.548  25.785  0.00  0.00    +0.000 F 
ATOM     26  C   UNL     1      -5.280  12.963  23.573  0.00  0.00    +0.000 A 
ATOM     27  C   UNL     1      -4.996  13.006  22.199  0.00  0.00    +0.000 A 
ENDBRANCH  19  21
ENDBRANCH   7  19
BRANCH  10  28
ATOM     28  O   UNL     1       1.746  11.859  20.447  0.00  0.00    +0.000 OA
ATOM     29  C   UNL     1       2.135  13.194  20.183  0.00  0.00    +0.000 C 
ENDBRANCH  10  28
TORSDOF 5
ENDMDL
