MODEL 1
REMARK VINA RESULT:      -7.4      0.000      0.000
REMARK  Name = 
REMARK  5 active torsions:
REMARK  status: ('A' for Active; 'I' for Inactive)
REMARK    1  A    between atoms: C_1  and  O_2
REMARK    2  A    between atoms: O_2  and  C_3
REMARK    3  A    between atoms: C_8  and  C_9
REMARK    4  A    between atoms: N_11  and  C_12
REMARK    5  A    between atoms: C_12  and  C_13
REMARK                            x       y       z     vdW  Elec       q    Type
REMARK                         _______ _______ _______ _____ _____    ______ ____
ROOT
ATOM      1  C   UNL     1       2.592   4.584  20.402  0.00  0.00    +0.000 A 
ATOM      2  C   UNL     1       2.227   5.856  19.962  0.00  0.00    +0.000 A 
ATOM      3  C   UNL     1       2.883   6.459  18.884  0.00  0.00    +0.000 A 
ATOM      4  C   UNL     1       3.921   5.769  18.235  0.00  0.00    +0.000 A 
ATOM      5  C   UNL     1       4.764   6.084  17.141  0.00  0.00    +0.000 A 
ATOM      6  C   UNL     1       5.614   5.015  16.915  0.00  0.00    +0.000 A 
ATOM      7  N   UNL     1       5.302   4.067  17.871  0.00  0.00    +0.000 N 
ATOM      8  C   UNL     1       4.275   4.500  18.680  0.00  0.00    +0.000 A 
ATOM      9  C   UNL     1       3.627   3.882  19.763  0.00  0.00    +0.000 A 
ATOM     10  H   UNL     1       5.772   3.172  17.948  0.00  0.00    +0.000 HD
ENDROOT
BRANCH   6  11
ATOM     11  C   UNL     1       6.646   4.808  15.919  0.00  0.00    +0.000 C 
ATOM     12  O   UNL     1       7.790   4.485  16.220  0.00  0.00    +0.000 OA
ATOM     13  N   UNL     1       6.232   4.986  14.621  0.00  0.00    +0.000 N 
ATOM     14  H   UNL     1       5.285   5.279  14.439  0.00  0.00    +0.000 HD
BRANCH  13  15
ATOM     15  C   UNL     1       7.094   4.808  13.479  0.00  0.00    +0.000 C 
BRANCH  15  16
ATOM     16  C   UNL     1       6.581   3.710  12.583  0.00  0.00    +0.000 A 
ATOM     17  C   UNL     1       7.484   2.845  11.949  0.00  0.00    +0.000 A 
ATOM     18  C   UNL     1       7.023   1.822  11.119  0.00  0.00    +0.000 A 
ATOM     19  C   UNL     1       5.657   1.659  10.906  0.00  0.00    +0.000 A 
ATOM     20  C   UNL     1       4.749   2.522  11.515  0.00  0.00    +0.000 A 
ATOM     21  C   UNL     1       5.208   3.547  12.348  0.00  0.00    +0.000 A 
ENDBRANCH  15  16
ENDBRANCH  13  15
ENDBRANCH   6  11
BRANCH   1  23
ATOM     22  C   UNL     1       1.816   2.516  21.283  0.00  0.00    +0.000 C 
ATOM     23  O   UNL     1       2.006   3.918  21.450  0.00  0.00    +0.000 OA
ENDBRANCH   1  23
TORSDOF 4
ENDMDL
MODEL 2
REMARK VINA RESULT:      -7.4      0.666      1.267
REMARK  Name = 
REMARK  5 active torsions:
REMARK  status: ('A' for Active; 'I' for Inactive)
REMARK    1  A    between atoms: C_1  and  O_2
REMARK    2  A    between atoms: O_2  and  C_3
REMARK    3  A    between atoms: C_8  and  C_9
REMARK    4  A    between atoms: N_11  and  C_12
REMARK    5  A    between atoms: C_12  and  C_13
REMARK                            x       y       z     vdW  Elec       q    Type
REMARK                         _______ _______ _______ _____ _____    ______ ____
ROOT
ATOM      1  C   UNL     1       3.093   3.595  20.381  0.00  0.00    +0.000 A 
ATOM      2  C   UNL     1       2.434   4.811  20.193  0.00  0.00    +0.000 A 
ATOM      3  C   UNL     1       2.834   5.696  19.188  0.00  0.00    +0.000 A 
ATOM      4  C   UNL     1       3.911   5.353  18.354  0.00  0.00    +0.000 A 
ATOM      5  C   UNL     1       4.548   6.004  17.269  0.00  0.00    +0.000 A 
ATOM      6  C   UNL     1       5.565   5.190  16.800  0.00  0.00    +0.000 A 
ATOM      7  N   UNL     1       5.557   4.063  17.601  0.00  0.00    +0.000 N 
ATOM      8  C   UNL     1       4.558   4.137  18.548  0.00  0.00    +0.000 A 
ATOM      9  C   UNL     1       4.171   3.238  19.554  0.00  0.00    +0.000 A 
ATOM     10  H   UNL     1       6.201   3.290  17.488  0.00  0.00    +0.000 HD
ENDROOT
BRANCH   6  11
ATOM     11  C   UNL     1       6.502   5.363  15.708  0.00  0.00    +0.000 C 
ATOM     12  O   UNL     1       7.548   5.989  15.836  0.00  0.00    +0.000 OA
ATOM     13  N   UNL     1       6.128   4.756  14.533  0.00  0.00    +0.000 N 
ATOM     14  H   UNL     1       5.242   4.280  14.482  0.00  0.00    +0.000 HD
BRANCH  13  15
ATOM     15  C   UNL     1       6.927   4.788  13.332  0.00  0.00    +0.000 C 
BRANCH  15  16
ATOM     16  C   UNL     1       6.603   3.616  12.441  0.00  0.00    +0.000 A 
ATOM     17  C   UNL     1       5.267   3.258  12.214  0.00  0.00    +0.000 A 
ATOM     18  C   UNL     1       4.952   2.177  11.389  0.00  0.00    +0.000 A 
ATOM     19  C   UNL     1       5.969   1.436  10.791  0.00  0.00    +0.000 A 
ATOM     20  C   UNL     1       7.302   1.770  11.022  0.00  0.00    +0.000 A 
ATOM     21  C   UNL     1       7.620   2.854  11.847  0.00  0.00    +0.000 A 
ENDBRANCH  15  16
ENDBRANCH  13  15
ENDBRANCH   6  11
BRANCH   1  23
ATOM     22  C   UNL     1       1.401   2.613  21.732  0.00  0.00    +0.000 C 
ATOM     23  O   UNL     1       2.771   2.669  21.341  0.00  0.00    +0.000 OA
ENDBRANCH   1  23
TORSDOF 4
ENDMDL
MODEL 3
REMARK VINA RESULT:      -7.3      3.628      5.693
REMARK  Name = 
REMARK  5 active torsions:
REMARK  status: ('A' for Active; 'I' for Inactive)
REMARK    1  A    between atoms: C_1  and  O_2
REMARK    2  A    between atoms: O_2  and  C_3
REMARK    3  A    between atoms: C_8  and  C_9
REMARK    4  A    between atoms: N_11  and  C_12
REMARK    5  A    between atoms: C_12  and  C_13
REMARK                            x       y       z     vdW  Elec       q    Type
REMARK                         _______ _______ _______ _____ _____    ______ ____
ROOT
ATOM      1  C   UNL     1       0.367  10.453  21.814  0.00  0.00    +0.000 A 
ATOM      2  C   UNL     1       0.448  10.975  20.523  0.00  0.00    +0.000 A 
ATOM      3  C   UNL     1       0.986  10.220  19.476  0.00  0.00    +0.000 A 
ATOM      4  C   UNL     1       1.445   8.917  19.729  0.00  0.00    +0.000 A 
ATOM      5  C   UNL     1       2.024   7.914  18.914  0.00  0.00    +0.000 A 
ATOM      6  C   UNL     1       2.277   6.799  19.696  0.00  0.00    +0.000 A 
ATOM      7  N   UNL     1       1.869   7.127  20.976  0.00  0.00    +0.000 N 
ATOM      8  C   UNL     1       1.356   8.405  21.020  0.00  0.00    +0.000 A 
ATOM      9  C   UNL     1       0.822   9.151  22.083  0.00  0.00    +0.000 A 
ATOM     10  H   UNL     1       1.938   6.496  21.766  0.00  0.00    +0.000 HD
ENDROOT
BRANCH   6  11
ATOM     11  C   UNL     1       2.836   5.504  19.364  0.00  0.00    +0.000 C 
ATOM     12  O   UNL     1       2.132   4.536  19.100  0.00  0.00    +0.000 OA
ATOM     13  N   UNL     1       4.209   5.460  19.355  0.00  0.00    +0.000 N 
ATOM     14  H   UNL     1       4.733   6.282  19.609  0.00  0.00    +0.000 HD
BRANCH  13  15
ATOM     15  C   UNL     1       4.965   4.275  19.030  0.00  0.00    +0.000 C 
BRANCH  15  16
ATOM     16  C   UNL     1       5.549   4.374  17.644  0.00  0.00    +0.000 A 
ATOM     17  C   UNL     1       6.899   4.715  17.476  0.00  0.00    +0.000 A 
ATOM     18  C   UNL     1       7.454   4.807  16.200  0.00  0.00    +0.000 A 
ATOM     19  C   UNL     1       6.664   4.572  15.077  0.00  0.00    +0.000 A 
ATOM     20  C   UNL     1       5.317   4.251  15.228  0.00  0.00    +0.000 A 
ATOM     21  C   UNL     1       4.759   4.155  16.506  0.00  0.00    +0.000 A 
ENDBRANCH  15  16
ENDBRANCH  13  15
ENDBRANCH   6  11
BRANCH   1  23
ATOM     22  C   UNL     1      -1.562  11.194  22.990  0.00  0.00    +0.000 C 
ATOM     23  O   UNL     1      -0.141  11.121  22.900  0.00  0.00    +0.000 OA
ENDBRANCH   1  23
TORSDOF 4
ENDMDL
MODEL 4
REMARK VINA RESULT:      -7.2      4.905      8.669
REMARK  Name = 
REMARK  5 active torsions:
REMARK  status: ('A' for Active; 'I' for Inactive)
REMARK    1  A    between atoms: C_1  and  O_2
REMARK    2  A    between atoms: O_2  and  C_3
REMARK    3  A    between atoms: C_8  and  C_9
REMARK    4  A    between atoms: N_11  and  C_12
REMARK    5  A    between atoms: C_12  and  C_13
REMARK                            x       y       z     vdW  Elec       q    Type
REMARK                         _______ _______ _______ _____ _____    ______ ____
ROOT
ATOM      1  C   UNL     1       4.530   4.220  18.818  0.00  0.00    +0.000 A 
ATOM      2  C   UNL     1       4.771   4.762  17.555  0.00  0.00    +0.000 A 
ATOM      3  C   UNL     1       4.203   5.984  17.178  0.00  0.00    +0.000 A 
ATOM      4  C   UNL     1       3.385   6.674  18.087  0.00  0.00    +0.000 A 
ATOM      5  C   UNL     1       2.679   7.901  18.023  0.00  0.00    +0.000 A 
ATOM      6  C   UNL     1       2.035   8.103  19.232  0.00  0.00    +0.000 A 
ATOM      7  N   UNL     1       2.333   7.004  20.016  0.00  0.00    +0.000 N 
ATOM      8  C   UNL     1       3.155   6.126  19.344  0.00  0.00    +0.000 A 
ATOM      9  C   UNL     1       3.714   4.899  19.737  0.00  0.00    +0.000 A 
ATOM     10  H   UNL     1       1.990   6.881  20.962  0.00  0.00    +0.000 HD
ENDROOT
BRANCH   6  11
ATOM     11  C   UNL     1       1.204   9.194  19.702  0.00  0.00    +0.000 C 
ATOM     12  O   UNL     1       0.980   9.379  20.893  0.00  0.00    +0.000 OA
ATOM     13  N   UNL     1       0.709  10.004  18.709  0.00  0.00    +0.000 N 
ATOM     14  H   UNL     1       0.905   9.783  17.746  0.00  0.00    +0.000 HD
BRANCH  13  15
ATOM     15  C   UNL     1      -0.121  11.157  18.962  0.00  0.00    +0.000 C 
BRANCH  15  16
ATOM     16  C   UNL     1      -1.493  10.974  18.365  0.00  0.00    +0.000 A 
ATOM     17  C   UNL     1      -2.564  11.755  18.820  0.00  0.00    +0.000 A 
ATOM     18  C   UNL     1      -3.839  11.598  18.275  0.00  0.00    +0.000 A 
ATOM     19  C   UNL     1      -4.059  10.651  17.277  0.00  0.00    +0.000 A 
ATOM     20  C   UNL     1      -3.008   9.856  16.828  0.00  0.00    +0.000 A 
ATOM     21  C   UNL     1      -1.729  10.012  17.371  0.00  0.00    +0.000 A 
ENDBRANCH  15  16
ENDBRANCH  13  15
ENDBRANCH   6  11
BRANCH   1  23
ATOM     22  C   UNL     1       4.284   2.355  20.270  0.00  0.00    +0.000 C 
ATOM     23  O   UNL     1       5.042   3.029  19.270  0.00  0.00    +0.000 OA
ENDBRANCH   1  23
TORSDOF 4
ENDMDL
MODEL 5
REMARK VINA RESULT:      -7.2      3.687      5.812
REMARK  Name = 
REMARK  5 active torsions:
REMARK  status: ('A' for Active; 'I' for Inactive)
REMARK    1  A    between atoms: C_1  and  O_2
REMARK    2  A    between atoms: O_2  and  C_3
REMARK    3  A    between atoms: C_8  and  C_9
REMARK    4  A    between atoms: N_11  and  C_12
REMARK    5  A    between atoms: C_12  and  C_13
REMARK                            x       y       z     vdW  Elec       q    Type
REMARK                         _______ _______ _______ _____ _____    ______ ____
ROOT
ATOM      1  C   UNL     1       0.230  10.299  21.949  0.00  0.00    +0.000 A 
ATOM      2  C   UNL     1       0.225  10.922  20.701  0.00  0.00    +0.000 A 
ATOM      3  C   UNL     1       0.762  10.285  19.578  0.00  0.00    +0.000 A 
ATOM      4  C   UNL     1       1.309   8.998  19.711  0.00  0.00    +0.000 A 
ATOM      5  C   UNL     1       1.913   8.098  18.798  0.00  0.00    +0.000 A 
ATOM      6  C   UNL     1       2.265   6.946  19.480  0.00  0.00    +0.000 A 
ATOM      7  N   UNL     1       1.893   7.149  20.797  0.00  0.00    +0.000 N 
ATOM      8  C   UNL     1       1.306   8.385  20.959  0.00  0.00    +0.000 A 
ATOM      9  C   UNL     1       0.774   9.013  22.097  0.00  0.00    +0.000 A 
ATOM     10  H   UNL     1       2.033   6.465  21.531  0.00  0.00    +0.000 HD
ENDROOT
BRANCH   6  11
ATOM     11  C   UNL     1       2.886   5.718  19.027  0.00  0.00    +0.000 C 
ATOM     12  O   UNL     1       2.305   4.920  18.301  0.00  0.00    +0.000 OA
ATOM     13  N   UNL     1       4.176   5.536  19.464  0.00  0.00    +0.000 N 
ATOM     14  H   UNL     1       4.590   6.214  20.083  0.00  0.00    +0.000 HD
BRANCH  13  15
ATOM     15  C   UNL     1       4.982   4.392  19.111  0.00  0.00    +0.000 C 
BRANCH  15  16
ATOM     16  C   UNL     1       5.636   4.589  17.767  0.00  0.00    +0.000 A 
ATOM     17  C   UNL     1       5.261   3.784  16.682  0.00  0.00    +0.000 A 
ATOM     18  C   UNL     1       5.856   3.957  15.431  0.00  0.00    +0.000 A 
ATOM     19  C   UNL     1       6.839   4.927  15.255  0.00  0.00    +0.000 A 
ATOM     20  C   UNL     1       7.235   5.721  16.329  0.00  0.00    +0.000 A 
ATOM     21  C   UNL     1       6.639   5.552  17.582  0.00  0.00    +0.000 A 
ENDBRANCH  15  16
ENDBRANCH  13  15
ENDBRANCH   6  11
BRANCH   1  23
ATOM     22  C   UNL     1      -1.270  11.853  22.942  0.00  0.00    +0.000 C 
ATOM     23  O   UNL     1      -0.271  10.850  23.102  0.00  0.00    +0.000 OA
ENDBRANCH   1  23
TORSDOF 4
ENDMDL
MODEL 6
REMARK VINA RESULT:      -7.2      5.262      7.542
REMARK  Name = 
REMARK  5 active torsions:
REMARK  status: ('A' for Active; 'I' for Inactive)
REMARK    1  A    between atoms: C_1  and  O_2
REMARK    2  A    between atoms: O_2  and  C_3
REMARK    3  A    between atoms: C_8  and  C_9
REMARK    4  A    between atoms: N_11  and  C_12
REMARK    5  A    between atoms: C_12  and  C_13
REMARK                            x       y       z     vdW  Elec       q    Type
REMARK                         _______ _______ _______ _____ _____    ______ ____
ROOT
ATOM      1  C   UNL     1      -1.438  11.751  22.149  0.00  0.00    +0.000 A 
ATOM      2  C   UNL     1      -1.130  10.783  23.105  0.00  0.00    +0.000 A 
ATOM      3  C   UNL     1      -0.301   9.702  22.791  0.00  0.00    +0.000 A 
ATOM      4  C   UNL     1       0.230   9.593  21.496  0.00  0.00    +0.000 A 
ATOM      5  C   UNL     1       1.082   8.650  20.869  0.00  0.00    +0.000 A 
ATOM      6  C   UNL     1       1.296   9.048  19.560  0.00  0.00    +0.000 A 
ATOM      7  N   UNL     1       0.570  10.213  19.388  0.00  0.00    +0.000 N 
ATOM      8  C   UNL     1      -0.081  10.565  20.551  0.00  0.00    +0.000 A 
ATOM      9  C   UNL     1      -0.914  11.656  20.849  0.00  0.00    +0.000 A 
ATOM     10  H   UNL     1       0.538  10.730  18.518  0.00  0.00    +0.000 HD
ENDROOT
BRANCH   6  11
ATOM     11  C   UNL     1       2.093   8.464  18.501  0.00  0.00    +0.000 C 
ATOM     12  O   UNL     1       2.289   9.039  17.436  0.00  0.00    +0.000 OA
ATOM     13  N   UNL     1       2.619   7.229  18.796  0.00  0.00    +0.000 N 
ATOM     14  H   UNL     1       2.398   6.795  19.678  0.00  0.00    +0.000 HD
BRANCH  13  15
ATOM     15  C   UNL     1       3.458   6.484  17.889  0.00  0.00    +0.000 C 
BRANCH  15  16
ATOM     16  C   UNL     1       3.086   5.023  17.890  0.00  0.00    +0.000 A 
ATOM     17  C   UNL     1       1.752   4.641  18.086  0.00  0.00    +0.000 A 
ATOM     18  C   UNL     1       1.393   3.293  18.087  0.00  0.00    +0.000 A 
ATOM     19  C   UNL     1       2.365   2.312  17.903  0.00  0.00    +0.000 A 
ATOM     20  C   UNL     1       3.697   2.677  17.726  0.00  0.00    +0.000 A 
ATOM     21  C   UNL     1       4.059   4.027  17.723  0.00  0.00    +0.000 A 
ENDBRANCH  15  16
ENDBRANCH  13  15
ENDBRANCH   6  11
BRANCH   1  23
ATOM     22  C   UNL     1      -3.588  12.569  22.749  0.00  0.00    +0.000 C 
ATOM     23  O   UNL     1      -2.243  12.842  22.367  0.00  0.00    +0.000 OA
ENDBRANCH   1  23
TORSDOF 4
ENDMDL
MODEL 7
REMARK VINA RESULT:      -7.1      5.206      7.462
REMARK  Name = 
REMARK  5 active torsions:
REMARK  status: ('A' for Active; 'I' for Inactive)
REMARK    1  A    between atoms: C_1  and  O_2
REMARK    2  A    between atoms: O_2  and  C_3
REMARK    3  A    between atoms: C_8  and  C_9
REMARK    4  A    between atoms: N_11  and  C_12
REMARK    5  A    between atoms: C_12  and  C_13
REMARK                            x       y       z     vdW  Elec       q    Type
REMARK                         _______ _______ _______ _____ _____    ______ ____
ROOT
ATOM      1  C   UNL     1      -1.337  11.706  22.218  0.00  0.00    +0.000 A 
ATOM      2  C   UNL     1      -1.018  10.736  23.168  0.00  0.00    +0.000 A 
ATOM      3  C   UNL     1      -0.212   9.643  22.835  0.00  0.00    +0.000 A 
ATOM      4  C   UNL     1       0.285   9.525  21.527  0.00  0.00    +0.000 A 
ATOM      5  C   UNL     1       1.107   8.569  20.880  0.00  0.00    +0.000 A 
ATOM      6  C   UNL     1       1.293   8.963  19.565  0.00  0.00    +0.000 A 
ATOM      7  N   UNL     1       0.578  10.136  19.410  0.00  0.00    +0.000 N 
ATOM      8  C   UNL     1      -0.037  10.500  20.588  0.00  0.00    +0.000 A 
ATOM      9  C   UNL     1      -0.847  11.602  20.905  0.00  0.00    +0.000 A 
ATOM     10  H   UNL     1       0.531  10.653  18.540  0.00  0.00    +0.000 HD
ENDROOT
BRANCH   6  11
ATOM     11  C   UNL     1       2.055   8.366  18.487  0.00  0.00    +0.000 C 
ATOM     12  O   UNL     1       2.222   8.932  17.413  0.00  0.00    +0.000 OA
ATOM     13  N   UNL     1       2.582   7.130  18.776  0.00  0.00    +0.000 N 
ATOM     14  H   UNL     1       2.385   6.704  19.667  0.00  0.00    +0.000 HD
BRANCH  13  15
ATOM     15  C   UNL     1       3.389   6.374  17.850  0.00  0.00    +0.000 C 
BRANCH  15  16
ATOM     16  C   UNL     1       3.037   4.909  17.902  0.00  0.00    +0.000 A 
ATOM     17  C   UNL     1       4.024   3.943  17.660  0.00  0.00    +0.000 A 
ATOM     18  C   UNL     1       3.713   2.584  17.707  0.00  0.00    +0.000 A 
ATOM     19  C   UNL     1       2.411   2.175  17.985  0.00  0.00    +0.000 A 
ATOM     20  C   UNL     1       1.416   3.124  18.209  0.00  0.00    +0.000 A 
ATOM     21  C   UNL     1       1.725   4.487  18.164  0.00  0.00    +0.000 A 
ENDBRANCH  15  16
ENDBRANCH  13  15
ENDBRANCH   6  11
BRANCH   1  23
ATOM     22  C   UNL     1      -2.763  13.384  21.321  0.00  0.00    +0.000 C 
ATOM     23  O   UNL     1      -2.121  12.808  22.455  0.00  0.00    +0.000 OA
ENDBRANCH   1  23
TORSDOF 4
ENDMDL
MODEL 8
REMARK VINA RESULT:      -7.1      4.845      8.372
REMARK  Name = 
REMARK  5 active torsions:
REMARK  status: ('A' for Active; 'I' for Inactive)
REMARK    1  A    between atoms: C_1  and  O_2
REMARK    2  A    between atoms: O_2  and  C_3
REMARK    3  A    between atoms: C_8  and  C_9
REMARK    4  A    between atoms: N_11  and  C_12
REMARK    5  A    between atoms: C_12  and  C_13
REMARK                            x       y       z     vdW  Elec       q    Type
REMARK                         _______ _______ _______ _____ _____    ______ ____
ROOT
ATOM      1  C   UNL     1       3.249   3.778  19.931  0.00  0.00    +0.000 A 
ATOM      2  C   UNL     1       4.105   3.787  18.828  0.00  0.00    +0.000 A 
ATOM      3  C   UNL     1       4.199   4.912  18.003  0.00  0.00    +0.000 A 
ATOM      4  C   UNL     1       3.425   6.048  18.293  0.00  0.00    +0.000 A 
ATOM      5  C   UNL     1       3.291   7.317  17.678  0.00  0.00    +0.000 A 
ATOM      6  C   UNL     1       2.381   8.067  18.404  0.00  0.00    +0.000 A 
ATOM      7  N   UNL     1       1.955   7.256  19.440  0.00  0.00    +0.000 N 
ATOM      8  C   UNL     1       2.578   6.028  19.396  0.00  0.00    +0.000 A 
ATOM      9  C   UNL     1       2.469   4.906  20.233  0.00  0.00    +0.000 A 
ATOM     10  H   UNL     1       1.278   7.546  20.136  0.00  0.00    +0.000 HD
ENDROOT
BRANCH   6  11
ATOM     11  C   UNL     1       1.900   9.422  18.226  0.00  0.00    +0.000 C 
ATOM     12  O   UNL     1       2.464  10.226  17.493  0.00  0.00    +0.000 OA
ATOM     13  N   UNL     1       0.758   9.719  18.930  0.00  0.00    +0.000 N 
ATOM     14  H   UNL     1       0.355   9.025  19.538  0.00  0.00    +0.000 HD
BRANCH  13  15
ATOM     15  C   UNL     1       0.102  11.003  18.876  0.00  0.00    +0.000 C 
BRANCH  15  16
ATOM     16  C   UNL     1      -1.299  10.870  18.336  0.00  0.00    +0.000 A 
ATOM     17  C   UNL     1      -2.318  11.702  18.821  0.00  0.00    +0.000 A 
ATOM     18  C   UNL     1      -3.618  11.591  18.328  0.00  0.00    +0.000 A 
ATOM     19  C   UNL     1      -3.917  10.642  17.354  0.00  0.00    +0.000 A 
ATOM     20  C   UNL     1      -2.919   9.797  16.876  0.00  0.00    +0.000 A 
ATOM     21  C   UNL     1      -1.614   9.906  17.367  0.00  0.00    +0.000 A 
ENDBRANCH  15  16
ENDBRANCH  13  15
ENDBRANCH   6  11
BRANCH   1  23
ATOM     22  C   UNL     1       2.022   2.821  21.727  0.00  0.00    +0.000 C 
ATOM     23  O   UNL     1       3.091   2.720  20.791  0.00  0.00    +0.000 OA
ENDBRANCH   1  23
TORSDOF 4
ENDMDL
MODEL 9
REMARK VINA RESULT:      -7.1      1.866      7.635
REMARK  Name = 
REMARK  5 active torsions:
REMARK  status: ('A' for Active; 'I' for Inactive)
REMARK    1  A    between atoms: C_1  and  O_2
REMARK    2  A    between atoms: O_2  and  C_3
REMARK    3  A    between atoms: C_8  and  C_9
REMARK    4  A    between atoms: N_11  and  C_12
REMARK    5  A    between atoms: C_12  and  C_13
REMARK                            x       y       z     vdW  Elec       q    Type
REMARK                         _______ _______ _______ _____ _____    ______ ____
ROOT
ATOM      1  C   UNL     1       6.248   3.507  12.258  0.00  0.00    +0.000 A 
ATOM      2  C   UNL     1       7.367   4.336  12.349  0.00  0.00    +0.000 A 
ATOM      3  C   UNL     1       7.612   5.085  13.504  0.00  0.00    +0.000 A 
ATOM      4  C   UNL     1       6.722   4.996  14.586  0.00  0.00    +0.000 A 
ATOM      5  C   UNL     1       6.682   5.602  15.867  0.00  0.00    +0.000 A 
ATOM      6  C   UNL     1       5.566   5.137  16.542  0.00  0.00    +0.000 A 
ATOM      7  N   UNL     1       4.926   4.270  15.676  0.00  0.00    +0.000 N 
ATOM      8  C   UNL     1       5.612   4.164  14.486  0.00  0.00    +0.000 A 
ATOM      9  C   UNL     1       5.349   3.408  13.332  0.00  0.00    +0.000 A 
ATOM     10  H   UNL     1       4.071   3.778  15.906  0.00  0.00    +0.000 HD
ENDROOT
BRANCH   6  11
ATOM     11  C   UNL     1       5.070   5.416  17.874  0.00  0.00    +0.000 C 
ATOM     12  O   UNL     1       5.784   5.339  18.868  0.00  0.00    +0.000 OA
ATOM     13  N   UNL     1       3.747   5.785  17.926  0.00  0.00    +0.000 N 
ATOM     14  H   UNL     1       3.204   5.802  17.078  0.00  0.00    +0.000 HD
BRANCH  13  15
ATOM     15  C   UNL     1       3.063   6.125  19.150  0.00  0.00    +0.000 C 
BRANCH  15  16
ATOM     16  C   UNL     1       2.390   4.915  19.744  0.00  0.00    +0.000 A 
ATOM     17  C   UNL     1       1.589   4.094  18.938  0.00  0.00    +0.000 A 
ATOM     18  C   UNL     1       0.961   2.968  19.474  0.00  0.00    +0.000 A 
ATOM     19  C   UNL     1       1.117   2.658  20.823  0.00  0.00    +0.000 A 
ATOM     20  C   UNL     1       1.896   3.476  21.639  0.00  0.00    +0.000 A 
ATOM     21  C   UNL     1       2.527   4.602  21.105  0.00  0.00    +0.000 A 
ENDBRANCH  15  16
ENDBRANCH  13  15
ENDBRANCH   6  11
BRANCH   1  23
ATOM     22  C   UNL     1       6.028   1.328  11.331  0.00  0.00    +0.000 C 
ATOM     23  O   UNL     1       5.928   2.740  11.165  0.00  0.00    +0.000 OA
ENDBRANCH   1  23
TORSDOF 4
ENDMDL
