MODEL 1
REMARK VINA RESULT:      -8.3      0.000      0.000
REMARK  Name = 
REMARK  5 active torsions:
REMARK  status: ('A' for Active; 'I' for Inactive)
REMARK    1  A    between atoms: C_1  and  C_2
REMARK    2  A    between atoms: C_5  and  O_6
REMARK    3  A    between atoms: O_6  and  C_7
REMARK    4  A    between atoms: C_12  and  C_13
REMARK    5  A    between atoms: N_14  and  O_15
REMARK                            x       y       z     vdW  Elec       q    Type
REMARK                         _______ _______ _______ _____ _____    ______ ____
ROOT
ATOM      1  C   UNL     1       2.547   5.226  19.918  0.00  0.00    +0.000 A 
ATOM      2  N   UNL     1       1.307   4.804  20.308  0.00  0.00    +0.000 NA
ATOM      3  C   UNL     1       0.844   3.634  19.834  0.00  0.00    +0.000 A 
ATOM      4  C   UNL     1       1.573   2.819  18.998  0.00  0.00    +0.000 A 
ATOM      5  C   UNL     1       2.866   3.212  18.676  0.00  0.00    +0.000 A 
ATOM      6  C   UNL     1       3.396   4.426  19.158  0.00  0.00    +0.000 A 
ENDROOT
BRANCH   6   7
ATOM      7  C   UNL     1       4.819   4.753  18.792  0.00  0.00    +0.000 C 
ATOM      8  N   UNL     1       5.722   4.668  19.722  0.00  0.00    +0.000 NA
ATOM      9  N   UNL     1       5.019   5.167  17.481  0.00  0.00    +0.000 N 
ATOM     10  C   UNL     1       5.634   6.429  17.115  0.00  0.00    +0.000 C 
ATOM     11  C   UNL     1       5.223   6.546  15.652  0.00  0.00    +0.000 C 
ATOM     12  C   UNL     1       5.378   5.118  15.141  0.00  0.00    +0.000 C 
ATOM     13  C   UNL     1       5.120   4.231  16.366  0.00  0.00    +0.000 C 
BRANCH   8  14
ATOM     14  O   UNL     1       7.005   4.978  19.243  0.00  0.00    +0.000 OA
ATOM     15  H   UNL     1       6.828   5.765  18.698  0.00  0.00    +0.000 HD
ENDBRANCH   8  14
ENDBRANCH   6   7
BRANCH   1  16
ATOM     16  O   UNL     1       2.926   6.514  20.301  0.00  0.00    +0.000 OA
BRANCH  16  21
ATOM     17  C   UNL     1      -0.341  10.492  17.828  0.00  0.00    +0.000 C 
ATOM     18  C   UNL     1       0.587   9.518  18.484  0.00  0.00    +0.000 A 
ATOM     19  C   UNL     1       1.479   8.756  17.720  0.00  0.00    +0.000 A 
ATOM     20  C   UNL     1       2.303   7.795  18.325  0.00  0.00    +0.000 A 
ATOM     21  C   UNL     1       2.236   7.552  19.703  0.00  0.00    +0.000 A 
ATOM     22  C   UNL     1       1.428   8.374  20.471  0.00  0.00    +0.000 A 
ATOM     23  C   UNL     1       0.584   9.316  19.864  0.00  0.00    +0.000 A 
ATOM     24  C   UNL     1      -0.255  10.019  20.888  0.00  0.00    +0.000 C 
ATOM     25  C   UNL     1       0.005   9.191  22.154  0.00  0.00    +0.000 C 
ATOM     26  C   UNL     1       1.335   8.456  21.960  0.00  0.00    +0.000 C 
ENDBRANCH  16  21
ENDBRANCH   1  16
TORSDOF 4
ENDMDL
MODEL 2
REMARK VINA RESULT:      -7.9      1.703      3.849
REMARK  Name = 
REMARK  5 active torsions:
REMARK  status: ('A' for Active; 'I' for Inactive)
REMARK    1  A    between atoms: C_1  and  C_2
REMARK    2  A    between atoms: C_5  and  O_6
REMARK    3  A    between atoms: O_6  and  C_7
REMARK    4  A    between atoms: C_12  and  C_13
REMARK    5  A    between atoms: N_14  and  O_15
REMARK                            x       y       z     vdW  Elec       q    Type
REMARK                         _______ _______ _______ _____ _____    ______ ____
ROOT
ATOM      1  C   UNL     1       3.587   6.348  18.259  0.00  0.00    +0.000 A 
ATOM      2  N   UNL     1       4.528   7.173  17.710  0.00  0.00    +0.000 NA
ATOM      3  C   UNL     1       5.329   6.688  16.746  0.00  0.00    +0.000 A 
ATOM      4  C   UNL     1       5.226   5.405  16.257  0.00  0.00    +0.000 A 
ATOM      5  C   UNL     1       4.210   4.601  16.758  0.00  0.00    +0.000 A 
ATOM      6  C   UNL     1       3.342   5.072  17.763  0.00  0.00    +0.000 A 
ENDROOT
BRANCH   6   7
ATOM      7  C   UNL     1       2.245   4.147  18.218  0.00  0.00    +0.000 C 
ATOM      8  N   UNL     1       1.282   3.887  17.385  0.00  0.00    +0.000 NA
ATOM      9  N   UNL     1       2.350   3.692  19.526  0.00  0.00    +0.000 N 
ATOM     10  C   UNL     1       1.322   3.871  20.532  0.00  0.00    +0.000 C 
ATOM     11  C   UNL     1       2.102   3.587  21.810  0.00  0.00    +0.000 C 
ATOM     12  C   UNL     1       2.984   2.409  21.414  0.00  0.00    +0.000 C 
ATOM     13  C   UNL     1       3.220   2.584  19.907  0.00  0.00    +0.000 C 
BRANCH   8  14
ATOM     14  O   UNL     1       0.340   2.998  17.927  0.00  0.00    +0.000 OA
ATOM     15  H   UNL     1      -0.239   3.602  18.425  0.00  0.00    +0.000 HD
ENDBRANCH   8  14
ENDBRANCH   6   7
BRANCH   1  16
ATOM     16  O   UNL     1       2.885   6.837  19.364  0.00  0.00    +0.000 OA
BRANCH  16  21
ATOM     17  C   UNL     1      -0.832  11.066  18.405  0.00  0.00    +0.000 C 
ATOM     18  C   UNL     1       0.213  10.026  18.667  0.00  0.00    +0.000 A 
ATOM     19  C   UNL     1       0.976   9.501  17.619  0.00  0.00    +0.000 A 
ATOM     20  C   UNL     1       1.909   8.480  17.851  0.00  0.00    +0.000 A 
ATOM     21  C   UNL     1       2.083   7.940  19.132  0.00  0.00    +0.000 A 
ATOM     22  C   UNL     1       1.402   8.527  20.185  0.00  0.00    +0.000 A 
ATOM     23  C   UNL     1       0.449   9.530  19.949  0.00  0.00    +0.000 A 
ATOM     24  C   UNL     1      -0.217   9.945  21.226  0.00  0.00    +0.000 C 
ATOM     25  C   UNL     1       0.271   8.877  22.216  0.00  0.00    +0.000 C 
ATOM     26  C   UNL     1       1.562   8.278  21.650  0.00  0.00    +0.000 C 
ENDBRANCH  16  21
ENDBRANCH   1  16
TORSDOF 4
ENDMDL
MODEL 3
REMARK VINA RESULT:      -7.7      1.187      2.275
REMARK  Name = 
REMARK  5 active torsions:
REMARK  status: ('A' for Active; 'I' for Inactive)
REMARK    1  A    between atoms: C_1  and  C_2
REMARK    2  A    between atoms: C_5  and  O_6
REMARK    3  A    between atoms: O_6  and  C_7
REMARK    4  A    between atoms: C_12  and  C_13
REMARK    5  A    between atoms: N_14  and  O_15
REMARK                            x       y       z     vdW  Elec       q    Type
REMARK                         _______ _______ _______ _____ _____    ______ ____
ROOT
ATOM      1  C   UNL     1       2.620   4.559  18.384  0.00  0.00    +0.000 A 
ATOM      2  N   UNL     1       1.369   4.073  18.640  0.00  0.00    +0.000 NA
ATOM      3  C   UNL     1       1.188   2.741  18.677  0.00  0.00    +0.000 A 
ATOM      4  C   UNL     1       2.212   1.838  18.501  0.00  0.00    +0.000 A 
ATOM      5  C   UNL     1       3.496   2.340  18.328  0.00  0.00    +0.000 A 
ATOM      6  C   UNL     1       3.732   3.728  18.293  0.00  0.00    +0.000 A 
ENDROOT
BRANCH   6   7
ATOM      7  C   UNL     1       5.159   4.183  18.142  0.00  0.00    +0.000 C 
ATOM      8  N   UNL     1       5.918   4.172  19.197  0.00  0.00    +0.000 NA
ATOM      9  N   UNL     1       5.516   4.622  16.873  0.00  0.00    +0.000 N 
ATOM     10  C   UNL     1       6.064   5.935  16.594  0.00  0.00    +0.000 C 
ATOM     11  C   UNL     1       5.867   6.025  15.085  0.00  0.00    +0.000 C 
ATOM     12  C   UNL     1       6.224   4.620  14.612  0.00  0.00    +0.000 C 
ATOM     13  C   UNL     1       5.865   3.705  15.792  0.00  0.00    +0.000 C 
BRANCH   8  14
ATOM     14  O   UNL     1       7.225   4.598  18.913  0.00  0.00    +0.000 OA
ATOM     15  H   UNL     1       7.109   5.029  18.047  0.00  0.00    +0.000 HD
ENDBRANCH   8  14
ENDBRANCH   6   7
BRANCH   1  16
ATOM     16  O   UNL     1       2.736   5.938  18.196  0.00  0.00    +0.000 OA
BRANCH  16  21
ATOM     17  C   UNL     1       0.680   9.411  22.238  0.00  0.00    +0.000 C 
ATOM     18  C   UNL     1       1.125   8.478  21.155  0.00  0.00    +0.000 A 
ATOM     19  C   UNL     1       1.328   7.119  21.422  0.00  0.00    +0.000 A 
ATOM     20  C   UNL     1       1.808   6.255  20.427  0.00  0.00    +0.000 A 
ATOM     21  C   UNL     1       2.124   6.733  19.149  0.00  0.00    +0.000 A 
ATOM     22  C   UNL     1       1.829   8.054  18.855  0.00  0.00    +0.000 A 
ATOM     23  C   UNL     1       1.374   8.924  19.858  0.00  0.00    +0.000 A 
ATOM     24  C   UNL     1       1.211  10.315  19.323  0.00  0.00    +0.000 C 
ATOM     25  C   UNL     1       1.878  10.220  17.944  0.00  0.00    +0.000 C 
ATOM     26  C   UNL     1       1.878   8.745  17.531  0.00  0.00    +0.000 C 
ENDBRANCH  16  21
ENDBRANCH   1  16
TORSDOF 4
ENDMDL
MODEL 4
REMARK VINA RESULT:      -7.6      0.651      1.968
REMARK  Name = 
REMARK  5 active torsions:
REMARK  status: ('A' for Active; 'I' for Inactive)
REMARK    1  A    between atoms: C_1  and  C_2
REMARK    2  A    between atoms: C_5  and  O_6
REMARK    3  A    between atoms: O_6  and  C_7
REMARK    4  A    between atoms: C_12  and  C_13
REMARK    5  A    between atoms: N_14  and  O_15
REMARK                            x       y       z     vdW  Elec       q    Type
REMARK                         _______ _______ _______ _____ _____    ______ ____
ROOT
ATOM      1  C   UNL     1       2.487   5.052  19.919  0.00  0.00    +0.000 A 
ATOM      2  N   UNL     1       1.236   4.630  20.274  0.00  0.00    +0.000 NA
ATOM      3  C   UNL     1       0.748   3.511  19.710  0.00  0.00    +0.000 A 
ATOM      4  C   UNL     1       1.459   2.748  18.813  0.00  0.00    +0.000 A 
ATOM      5  C   UNL     1       2.762   3.135  18.524  0.00  0.00    +0.000 A 
ATOM      6  C   UNL     1       3.318   4.294  19.099  0.00  0.00    +0.000 A 
ENDROOT
BRANCH   6   7
ATOM      7  C   UNL     1       4.750   4.616  18.762  0.00  0.00    +0.000 C 
ATOM      8  N   UNL     1       5.643   4.477  19.696  0.00  0.00    +0.000 NA
ATOM      9  N   UNL     1       4.969   5.083  17.472  0.00  0.00    +0.000 N 
ATOM     10  C   UNL     1       5.606   6.349  17.166  0.00  0.00    +0.000 C 
ATOM     11  C   UNL     1       5.211   6.536  15.706  0.00  0.00    +0.000 C 
ATOM     12  C   UNL     1       5.351   5.129  15.135  0.00  0.00    +0.000 C 
ATOM     13  C   UNL     1       5.067   4.194  16.319  0.00  0.00    +0.000 C 
BRANCH   8  14
ATOM     14  O   UNL     1       6.934   4.788  19.242  0.00  0.00    +0.000 OA
ATOM     15  H   UNL     1       6.746   5.425  18.530  0.00  0.00    +0.000 HD
ENDBRANCH   8  14
ENDBRANCH   6   7
BRANCH   1  16
ATOM     16  O   UNL     1       2.895   6.297  20.402  0.00  0.00    +0.000 OA
BRANCH  16  21
ATOM     17  C   UNL     1      -0.705  10.728  20.570  0.00  0.00    +0.000 C 
ATOM     18  C   UNL     1       0.166   9.513  20.484  0.00  0.00    +0.000 A 
ATOM     19  C   UNL     1       0.178   8.569  21.517  0.00  0.00    +0.000 A 
ATOM     20  C   UNL     1       1.042   7.465  21.471  0.00  0.00    +0.000 A 
ATOM     21  C   UNL     1       1.933   7.291  20.404  0.00  0.00    +0.000 A 
ATOM     22  C   UNL     1       1.850   8.168  19.335  0.00  0.00    +0.000 A 
ATOM     23  C   UNL     1       1.006   9.288  19.394  0.00  0.00    +0.000 A 
ATOM     24  C   UNL     1       1.153  10.133  18.164  0.00  0.00    +0.000 C 
ATOM     25  C   UNL     1       2.385   9.517  17.485  0.00  0.00    +0.000 C 
ATOM     26  C   UNL     1       2.532   8.084  18.009  0.00  0.00    +0.000 C 
ENDBRANCH  16  21
ENDBRANCH   1  16
TORSDOF 4
ENDMDL
MODEL 5
REMARK VINA RESULT:      -7.6      1.619      2.081
REMARK  Name = 
REMARK  5 active torsions:
REMARK  status: ('A' for Active; 'I' for Inactive)
REMARK    1  A    between atoms: C_1  and  C_2
REMARK    2  A    between atoms: C_5  and  O_6
REMARK    3  A    between atoms: O_6  and  C_7
REMARK    4  A    between atoms: C_12  and  C_13
REMARK    5  A    between atoms: N_14  and  O_15
REMARK                            x       y       z     vdW  Elec       q    Type
REMARK                         _______ _______ _______ _____ _____    ______ ____
ROOT
ATOM      1  C   UNL     1       2.769   5.759  19.037  0.00  0.00    +0.000 A 
ATOM      2  N   UNL     1       1.803   5.057  19.700  0.00  0.00    +0.000 NA
ATOM      3  C   UNL     1       1.375   3.895  19.176  0.00  0.00    +0.000 A 
ATOM      4  C   UNL     1       1.886   3.358  18.016  0.00  0.00    +0.000 A 
ATOM      5  C   UNL     1       2.929   4.035  17.395  0.00  0.00    +0.000 A 
ATOM      6  C   UNL     1       3.416   5.250  17.915  0.00  0.00    +0.000 A 
ENDROOT
BRANCH   6   7
ATOM      7  C   UNL     1       4.575   5.893  17.201  0.00  0.00    +0.000 C 
ATOM      8  N   UNL     1       4.313   6.698  16.215  0.00  0.00    +0.000 NA
ATOM      9  N   UNL     1       5.835   5.517  17.648  0.00  0.00    +0.000 N 
ATOM     10  C   UNL     1       6.858   4.940  16.797  0.00  0.00    +0.000 C 
ATOM     11  C   UNL     1       7.811   4.355  17.833  0.00  0.00    +0.000 C 
ATOM     12  C   UNL     1       7.833   5.426  18.917  0.00  0.00    +0.000 C 
ATOM     13  C   UNL     1       6.455   6.098  18.835  0.00  0.00    +0.000 C 
BRANCH   8  14
ATOM     14  O   UNL     1       5.479   7.242  15.654  0.00  0.00    +0.000 OA
ATOM     15  H   UNL     1       5.621   6.660  14.887  0.00  0.00    +0.000 HD
ENDBRANCH   8  14
ENDBRANCH   6   7
BRANCH   1  16
ATOM     16  O   UNL     1       3.073   7.032  19.526  0.00  0.00    +0.000 OA
BRANCH  16  21
ATOM     17  C   UNL     1      -1.045  10.789  18.280  0.00  0.00    +0.000 C 
ATOM     18  C   UNL     1       0.097   9.881  18.615  0.00  0.00    +0.000 A 
ATOM     19  C   UNL     1       0.933   9.383  17.608  0.00  0.00    +0.000 A 
ATOM     20  C   UNL     1       1.962   8.480  17.911  0.00  0.00    +0.000 A 
ATOM     21  C   UNL     1       2.165   8.031  19.222  0.00  0.00    +0.000 A 
ATOM     22  C   UNL     1       1.405   8.598  20.231  0.00  0.00    +0.000 A 
ATOM     23  C   UNL     1       0.358   9.481  19.925  0.00  0.00    +0.000 A 
ATOM     24  C   UNL     1      -0.374   9.891  21.168  0.00  0.00    +0.000 C 
ATOM     25  C   UNL     1       0.202   8.936  22.222  0.00  0.00    +0.000 C 
ATOM     26  C   UNL     1       1.560   8.447  21.709  0.00  0.00    +0.000 C 
ENDBRANCH  16  21
ENDBRANCH   1  16
TORSDOF 4
ENDMDL
MODEL 6
REMARK VINA RESULT:      -7.4      1.925      4.332
REMARK  Name = 
REMARK  5 active torsions:
REMARK  status: ('A' for Active; 'I' for Inactive)
REMARK    1  A    between atoms: C_1  and  C_2
REMARK    2  A    between atoms: C_5  and  O_6
REMARK    3  A    between atoms: O_6  and  C_7
REMARK    4  A    between atoms: C_12  and  C_13
REMARK    5  A    between atoms: N_14  and  O_15
REMARK                            x       y       z     vdW  Elec       q    Type
REMARK                         _______ _______ _______ _____ _____    ______ ____
ROOT
ATOM      1  C   UNL     1       3.965   5.982  17.864  0.00  0.00    +0.000 A 
ATOM      2  N   UNL     1       4.917   6.948  17.702  0.00  0.00    +0.000 NA
ATOM      3  C   UNL     1       6.203   6.635  17.937  0.00  0.00    +0.000 A 
ATOM      4  C   UNL     1       6.615   5.373  18.303  0.00  0.00    +0.000 A 
ATOM      5  C   UNL     1       5.653   4.375  18.380  0.00  0.00    +0.000 A 
ATOM      6  C   UNL     1       4.294   4.656  18.133  0.00  0.00    +0.000 A 
ENDROOT
BRANCH   6   7
ATOM      7  C   UNL     1       3.326   3.506  18.199  0.00  0.00    +0.000 C 
ATOM      8  N   UNL     1       3.044   2.881  17.095  0.00  0.00    +0.000 NA
ATOM      9  N   UNL     1       2.783   3.253  19.453  0.00  0.00    +0.000 N 
ATOM     10  C   UNL     1       1.361   3.231  19.731  0.00  0.00    +0.000 C 
ATOM     11  C   UNL     1       1.353   3.336  21.251  0.00  0.00    +0.000 C 
ATOM     12  C   UNL     1       2.513   2.435  21.659  0.00  0.00    +0.000 C 
ATOM     13  C   UNL     1       3.496   2.501  20.481  0.00  0.00    +0.000 C 
BRANCH   8  14
ATOM     14  O   UNL     1       2.149   1.820  17.302  0.00  0.00    +0.000 OA
ATOM     15  H   UNL     1       2.330   1.585  18.229  0.00  0.00    +0.000 HD
ENDBRANCH   8  14
ENDBRANCH   6   7
BRANCH   1  16
ATOM     16  O   UNL     1       2.631   6.385  17.767  0.00  0.00    +0.000 OA
BRANCH  16  21
ATOM     17  C   UNL     1       0.971   9.288  22.396  0.00  0.00    +0.000 C 
ATOM     18  C   UNL     1       1.311   8.503  21.168  0.00  0.00    +0.000 A 
ATOM     19  C   UNL     1       1.579   7.132  21.248  0.00  0.00    +0.000 A 
ATOM     20  C   UNL     1       1.963   6.407  20.110  0.00  0.00    +0.000 A 
ATOM     21  C   UNL     1       2.114   7.041  18.869  0.00  0.00    +0.000 A 
ATOM     22  C   UNL     1       1.752   8.373  18.769  0.00  0.00    +0.000 A 
ATOM     23  C   UNL     1       1.395   9.105  19.912  0.00  0.00    +0.000 A 
ATOM     24  C   UNL     1       1.133  10.540  19.568  0.00  0.00    +0.000 C 
ATOM     25  C   UNL     1       1.636  10.630  18.120  0.00  0.00    +0.000 C 
ATOM     26  C   UNL     1       1.627   9.212  17.539  0.00  0.00    +0.000 C 
ENDBRANCH  16  21
ENDBRANCH   1  16
TORSDOF 4
ENDMDL
MODEL 7
REMARK VINA RESULT:      -7.3      2.783      5.257
REMARK  Name = 
REMARK  5 active torsions:
REMARK  status: ('A' for Active; 'I' for Inactive)
REMARK    1  A    between atoms: C_1  and  C_2
REMARK    2  A    between atoms: C_5  and  O_6
REMARK    3  A    between atoms: O_6  and  C_7
REMARK    4  A    between atoms: C_12  and  C_13
REMARK    5  A    between atoms: N_14  and  O_15
REMARK                            x       y       z     vdW  Elec       q    Type
REMARK                         _______ _______ _______ _____ _____    ______ ____
ROOT
ATOM      1  C   UNL     1       6.052   4.832  18.060  0.00  0.00    +0.000 A 
ATOM      2  N   UNL     1       6.581   4.700  19.313  0.00  0.00    +0.000 NA
ATOM      3  C   UNL     1       7.602   5.499  19.670  0.00  0.00    +0.000 A 
ATOM      4  C   UNL     1       8.121   6.471  18.846  0.00  0.00    +0.000 A 
ATOM      5  C   UNL     1       7.520   6.658  17.608  0.00  0.00    +0.000 A 
ATOM      6  C   UNL     1       6.442   5.850  17.195  0.00  0.00    +0.000 A 
ENDROOT
BRANCH   6   7
ATOM      7  C   UNL     1       5.826   6.149  15.855  0.00  0.00    +0.000 C 
ATOM      8  N   UNL     1       5.044   7.183  15.760  0.00  0.00    +0.000 NA
ATOM      9  N   UNL     1       6.125   5.244  14.844  0.00  0.00    +0.000 N 
ATOM     10  C   UNL     1       5.126   4.521  14.082  0.00  0.00    +0.000 C 
ATOM     11  C   UNL     1       5.970   3.417  13.457  0.00  0.00    +0.000 C 
ATOM     12  C   UNL     1       7.253   4.146  13.074  0.00  0.00    +0.000 C 
ATOM     13  C   UNL     1       7.378   5.285  14.096  0.00  0.00    +0.000 C 
BRANCH   8  14
ATOM     14  O   UNL     1       4.557   7.358  14.455  0.00  0.00    +0.000 OA
ATOM     15  H   UNL     1       5.314   7.065  13.919  0.00  0.00    +0.000 HD
ENDBRANCH   8  14
ENDBRANCH   6   7
BRANCH   1  16
ATOM     16  O   UNL     1       5.105   3.881  17.670  0.00  0.00    +0.000 OA
BRANCH  16  21
ATOM     17  C   UNL     1       1.404   2.822  21.888  0.00  0.00    +0.000 C 
ATOM     18  C   UNL     1       2.303   3.072  20.718  0.00  0.00    +0.000 A 
ATOM     19  C   UNL     1       3.097   2.045  20.196  0.00  0.00    +0.000 A 
ATOM     20  C   UNL     1       3.990   2.292  19.143  0.00  0.00    +0.000 A 
ATOM     21  C   UNL     1       4.132   3.578  18.605  0.00  0.00    +0.000 A 
ATOM     22  C   UNL     1       3.276   4.570  19.052  0.00  0.00    +0.000 A 
ATOM     23  C   UNL     1       2.402   4.330  20.124  0.00  0.00    +0.000 A 
ATOM     24  C   UNL     1       1.646   5.573  20.485  0.00  0.00    +0.000 C 
ATOM     25  C   UNL     1       2.371   6.651  19.668  0.00  0.00    +0.000 C 
ATOM     26  C   UNL     1       3.086   5.949  18.508  0.00  0.00    +0.000 C 
ENDBRANCH  16  21
ENDBRANCH   1  16
TORSDOF 4
ENDMDL
MODEL 8
REMARK VINA RESULT:      -7.1      1.233      1.421
REMARK  Name = 
REMARK  5 active torsions:
REMARK  status: ('A' for Active; 'I' for Inactive)
REMARK    1  A    between atoms: C_1  and  C_2
REMARK    2  A    between atoms: C_5  and  O_6
REMARK    3  A    between atoms: O_6  and  C_7
REMARK    4  A    between atoms: C_12  and  C_13
REMARK    5  A    between atoms: N_14  and  O_15
REMARK                            x       y       z     vdW  Elec       q    Type
REMARK                         _______ _______ _______ _____ _____    ______ ____
ROOT
ATOM      1  C   UNL     1       2.641   5.774  19.166  0.00  0.00    +0.000 A 
ATOM      2  N   UNL     1       1.606   5.101  19.752  0.00  0.00    +0.000 NA
ATOM      3  C   UNL     1       1.183   3.953  19.194  0.00  0.00    +0.000 A 
ATOM      4  C   UNL     1       1.765   3.401  18.076  0.00  0.00    +0.000 A 
ATOM      5  C   UNL     1       2.872   4.044  17.538  0.00  0.00    +0.000 A 
ATOM      6  C   UNL     1       3.356   5.244  18.095  0.00  0.00    +0.000 A 
ENDROOT
BRANCH   6   7
ATOM      7  C   UNL     1       4.585   5.851  17.473  0.00  0.00    +0.000 C 
ATOM      8  N   UNL     1       5.013   6.982  17.947  0.00  0.00    +0.000 NA
ATOM      9  N   UNL     1       5.120   5.148  16.401  0.00  0.00    +0.000 N 
ATOM     10  C   UNL     1       5.329   5.716  15.083  0.00  0.00    +0.000 C 
ATOM     11  C   UNL     1       5.515   4.457  14.243  0.00  0.00    +0.000 C 
ATOM     12  C   UNL     1       6.363   3.569  15.147  0.00  0.00    +0.000 C 
ATOM     13  C   UNL     1       5.982   3.983  16.575  0.00  0.00    +0.000 C 
BRANCH   8  14
ATOM     14  O   UNL     1       6.174   7.423  17.292  0.00  0.00    +0.000 OA
ATOM     15  H   UNL     1       6.870   7.150  17.917  0.00  0.00    +0.000 HD
ENDBRANCH   8  14
ENDBRANCH   6   7
BRANCH   1  16
ATOM     16  O   UNL     1       2.946   7.036  19.680  0.00  0.00    +0.000 OA
BRANCH  16  21
ATOM     17  C   UNL     1      -1.047  10.884  18.313  0.00  0.00    +0.000 C 
ATOM     18  C   UNL     1       0.065   9.950  18.678  0.00  0.00    +0.000 A 
ATOM     19  C   UNL     1       0.891   9.403  17.690  0.00  0.00    +0.000 A 
ATOM     20  C   UNL     1       1.891   8.477  18.021  0.00  0.00    +0.000 A 
ATOM     21  C   UNL     1       2.071   8.054  19.345  0.00  0.00    +0.000 A 
ATOM     22  C   UNL     1       1.323   8.669  20.334  0.00  0.00    +0.000 A 
ATOM     23  C   UNL     1       0.304   9.576  20.000  0.00  0.00    +0.000 A 
ATOM     24  C   UNL     1      -0.422  10.039  21.226  0.00  0.00    +0.000 C 
ATOM     25  C   UNL     1       0.118   9.093  22.308  0.00  0.00    +0.000 C 
ATOM     26  C   UNL     1       1.464   8.550  21.817  0.00  0.00    +0.000 C 
ENDBRANCH  16  21
ENDBRANCH   1  16
TORSDOF 4
ENDMDL
MODEL 9
REMARK VINA RESULT:      -6.9      1.857      3.066
REMARK  Name = 
REMARK  5 active torsions:
REMARK  status: ('A' for Active; 'I' for Inactive)
REMARK    1  A    between atoms: C_1  and  C_2
REMARK    2  A    between atoms: C_5  and  O_6
REMARK    3  A    between atoms: O_6  and  C_7
REMARK    4  A    between atoms: C_12  and  C_13
REMARK    5  A    between atoms: N_14  and  O_15
REMARK                            x       y       z     vdW  Elec       q    Type
REMARK                         _______ _______ _______ _____ _____    ______ ____
ROOT
ATOM      1  C   UNL     1       2.912   5.016  17.858  0.00  0.00    +0.000 A 
ATOM      2  N   UNL     1       1.893   4.393  18.521  0.00  0.00    +0.000 NA
ATOM      3  C   UNL     1       1.782   3.056  18.426  0.00  0.00    +0.000 A 
ATOM      4  C   UNL     1       2.668   2.276  17.719  0.00  0.00    +0.000 A 
ATOM      5  C   UNL     1       3.751   2.907  17.120  0.00  0.00    +0.000 A 
ATOM      6  C   UNL     1       3.912   4.304  17.202  0.00  0.00    +0.000 A 
ENDROOT
BRANCH   6   7
ATOM      7  C   UNL     1       5.137   4.898  16.559  0.00  0.00    +0.000 C 
ATOM      8  N   UNL     1       5.104   5.128  15.280  0.00  0.00    +0.000 NA
ATOM      9  N   UNL     1       6.218   5.102  17.407  0.00  0.00    +0.000 N 
ATOM     10  C   UNL     1       7.537   4.540  17.189  0.00  0.00    +0.000 C 
ATOM     11  C   UNL     1       8.166   4.714  18.566  0.00  0.00    +0.000 C 
ATOM     12  C   UNL     1       7.673   6.092  18.993  0.00  0.00    +0.000 C 
ATOM     13  C   UNL     1       6.319   6.261  18.290  0.00  0.00    +0.000 C 
BRANCH   8  14
ATOM     14  O   UNL     1       6.298   5.700  14.816  0.00  0.00    +0.000 OA
ATOM     15  H   UNL     1       6.260   5.495  13.865  0.00  0.00    +0.000 HD
ENDBRANCH   8  14
ENDBRANCH   6   7
BRANCH   1  16
ATOM     16  O   UNL     1       2.901   6.413  17.850  0.00  0.00    +0.000 OA
BRANCH  16  21
ATOM     17  C   UNL     1       0.738   9.143  22.376  0.00  0.00    +0.000 C 
ATOM     18  C   UNL     1       1.213   8.398  21.167  0.00  0.00    +0.000 A 
ATOM     19  C   UNL     1       1.557   7.044  21.253  0.00  0.00    +0.000 A 
ATOM     20  C   UNL     1       2.065   6.361  20.138  0.00  0.00    +0.000 A 
ATOM     21  C   UNL     1       2.267   7.020  18.918  0.00  0.00    +0.000 A 
ATOM     22  C   UNL     1       1.833   8.330  18.806  0.00  0.00    +0.000 A 
ATOM     23  C   UNL     1       1.350   9.022  19.928  0.00  0.00    +0.000 A 
ATOM     24  C   UNL     1       1.027  10.444  19.580  0.00  0.00    +0.000 C 
ATOM     25  C   UNL     1       1.627  10.585  18.174  0.00  0.00    +0.000 C 
ATOM     26  C   UNL     1       1.746   9.178  17.579  0.00  0.00    +0.000 C 
ENDBRANCH  16  21
ENDBRANCH   1  16
TORSDOF 4
ENDMDL
