MODEL 1
REMARK VINA RESULT:      -7.8      0.000      0.000
REMARK  Name = 
REMARK  5 active torsions:
REMARK  status: ('A' for Active; 'I' for Inactive)
REMARK    1  A    between atoms: C_1  and  O_2
REMARK    2  A    between atoms: O_2  and  C_3
REMARK    3  A    between atoms: C_6  and  N_7
REMARK    4  A    between atoms: N_7  and  C_8
REMARK    5  A    between atoms: N_15  and  C_16
REMARK                            x       y       z     vdW  Elec       q    Type
REMARK                         _______ _______ _______ _____ _____    ______ ____
ROOT
ATOM      1  C   UNL     1       3.179   5.632  19.243  0.00  0.00    +0.000 A 
ATOM      2  C   UNL     1       2.626   4.506  19.926  0.00  0.00    +0.000 A 
ATOM      3  C   UNL     1       2.031   4.604  21.209  0.00  0.00    +0.000 A 
ATOM      4  C   UNL     1       1.403   3.484  21.791  0.00  0.00    +0.000 A 
ATOM      5  C   UNL     1       1.348   2.276  21.104  0.00  0.00    +0.000 A 
ATOM      6  C   UNL     1       1.979   2.131  19.869  0.00  0.00    +0.000 A 
ATOM      7  C   UNL     1       2.665   3.210  19.272  0.00  0.00    +0.000 A 
ATOM      8  N   UNL     1       3.411   3.067  18.103  0.00  0.00    +0.000 N 
ATOM      9  C   UNL     1       3.422   1.872  17.237  0.00  0.00    +0.000 C 
ATOM     10  C   UNL     1       3.993   4.174  17.570  0.00  0.00    +0.000 A 
ATOM     11  C   UNL     1       3.681   5.404  17.983  0.00  0.00    +0.000 A 
ATOM     12  O   UNL     1       4.067   6.315  17.083  0.00  0.00    +0.000 OA
ATOM     13  C   UNL     1       4.795   5.674  16.207  0.00  0.00    +0.000 A 
ATOM     14  C   UNL     1       5.431   6.207  15.099  0.00  0.00    +0.000 A 
ATOM     15  C   UNL     1       6.460   5.448  14.528  0.00  0.00    +0.000 A 
ATOM     16  C   UNL     1       6.816   4.198  15.089  0.00  0.00    +0.000 A 
ATOM     17  C   UNL     1       6.009   3.613  16.086  0.00  0.00    +0.000 A 
ATOM     18  C   UNL     1       4.952   4.375  16.589  0.00  0.00    +0.000 A 
ENDROOT
BRANCH   1  19
ATOM     19  N   UNL     1       3.322   6.960  19.740  0.00  0.00    +0.000 N 
ATOM     20  H   UNL     1       4.219   7.279  20.101  0.00  0.00    +0.000 HD
BRANCH  19  24
ATOM     21  C   UNL     1       0.112   9.807  19.430  0.00  0.00    +0.000 A 
ATOM     22  C   UNL     1       0.934   9.511  18.338  0.00  0.00    +0.000 A 
ATOM     23  C   UNL     1       1.967   8.566  18.429  0.00  0.00    +0.000 A 
ATOM     24  C   UNL     1       2.214   7.912  19.653  0.00  0.00    +0.000 A 
ATOM     25  C   UNL     1       1.384   8.215  20.760  0.00  0.00    +0.000 A 
ATOM     26  C   UNL     1       0.345   9.159  20.653  0.00  0.00    +0.000 A 
BRANCH  21  28
ATOM     27  C   UNL     1      -1.777  10.750  18.183  0.00  0.00    +0.000 C 
ATOM     28  O   UNL     1      -0.896  10.705  19.246  0.00  0.00    +0.000 OA
ENDBRANCH  21  28
ENDBRANCH  19  24
ENDBRANCH   1  19
TORSDOF 3
ENDMDL
MODEL 2
REMARK VINA RESULT:      -7.4      3.794      9.842
REMARK  Name = 
REMARK  5 active torsions:
REMARK  status: ('A' for Active; 'I' for Inactive)
REMARK    1  A    between atoms: C_1  and  O_2
REMARK    2  A    between atoms: O_2  and  C_3
REMARK    3  A    between atoms: C_6  and  N_7
REMARK    4  A    between atoms: N_7  and  C_8
REMARK    5  A    between atoms: N_15  and  C_16
REMARK                            x       y       z     vdW  Elec       q    Type
REMARK                         _______ _______ _______ _____ _____    ______ ____
ROOT
ATOM      1  C   UNL     1      -1.079  11.430  19.050  0.00  0.00    +0.000 A 
ATOM      2  C   UNL     1      -2.068  11.126  18.063  0.00  0.00    +0.000 A 
ATOM      3  C   UNL     1      -1.754  10.498  16.833  0.00  0.00    +0.000 A 
ATOM      4  C   UNL     1      -2.781  10.122  15.943  0.00  0.00    +0.000 A 
ATOM      5  C   UNL     1      -4.113  10.350  16.273  0.00  0.00    +0.000 A 
ATOM      6  C   UNL     1      -4.449  11.023  17.447  0.00  0.00    +0.000 A 
ATOM      7  C   UNL     1      -3.451  11.465  18.342  0.00  0.00    +0.000 A 
ATOM      8  N   UNL     1      -3.743  12.248  19.459  0.00  0.00    +0.000 N 
ATOM      9  C   UNL     1      -5.097  12.542  19.967  0.00  0.00    +0.000 C 
ATOM     10  C   UNL     1      -2.725  12.581  20.295  0.00  0.00    +0.000 A 
ATOM     11  C   UNL     1      -1.528  11.996  20.219  0.00  0.00    +0.000 A 
ATOM     12  O   UNL     1      -0.837  12.190  21.348  0.00  0.00    +0.000 OA
ATOM     13  C   UNL     1      -1.518  13.060  22.046  0.00  0.00    +0.000 A 
ATOM     14  C   UNL     1      -1.184  13.585  23.283  0.00  0.00    +0.000 A 
ATOM     15  C   UNL     1      -1.826  14.768  23.668  0.00  0.00    +0.000 A 
ATOM     16  C   UNL     1      -2.765  15.381  22.803  0.00  0.00    +0.000 A 
ATOM     17  C   UNL     1      -3.217  14.702  21.653  0.00  0.00    +0.000 A 
ATOM     18  C   UNL     1      -2.597  13.493  21.333  0.00  0.00    +0.000 A 
ENDROOT
BRANCH   1  19
ATOM     19  N   UNL     1       0.332  11.266  18.938  0.00  0.00    +0.000 N 
ATOM     20  H   UNL     1       0.935  12.076  18.813  0.00  0.00    +0.000 HD
BRANCH  19  24
ATOM     21  C   UNL     1       2.153   7.407  19.485  0.00  0.00    +0.000 A 
ATOM     22  C   UNL     1       1.509   8.067  20.537  0.00  0.00    +0.000 A 
ATOM     23  C   UNL     1       0.895   9.315  20.356  0.00  0.00    +0.000 A 
ATOM     24  C   UNL     1       0.943   9.946  19.097  0.00  0.00    +0.000 A 
ATOM     25  C   UNL     1       1.598   9.279  18.032  0.00  0.00    +0.000 A 
ATOM     26  C   UNL     1       2.203   8.023  18.224  0.00  0.00    +0.000 A 
BRANCH  21  28
ATOM     27  C   UNL     1       2.145   5.188  20.530  0.00  0.00    +0.000 C 
ATOM     28  O   UNL     1       2.686   6.178  19.733  0.00  0.00    +0.000 OA
ENDBRANCH  21  28
ENDBRANCH  19  24
ENDBRANCH   1  19
TORSDOF 3
ENDMDL
MODEL 3
REMARK VINA RESULT:      -7.4      3.578      8.910
REMARK  Name = 
REMARK  5 active torsions:
REMARK  status: ('A' for Active; 'I' for Inactive)
REMARK    1  A    between atoms: C_1  and  O_2
REMARK    2  A    between atoms: O_2  and  C_3
REMARK    3  A    between atoms: C_6  and  N_7
REMARK    4  A    between atoms: N_7  and  C_8
REMARK    5  A    between atoms: N_15  and  C_16
REMARK                            x       y       z     vdW  Elec       q    Type
REMARK                         _______ _______ _______ _____ _____    ______ ____
ROOT
ATOM      1  C   UNL     1       0.166  11.138  18.581  0.00  0.00    +0.000 A 
ATOM      2  C   UNL     1      -1.225  10.997  18.282  0.00  0.00    +0.000 A 
ATOM      3  C   UNL     1      -1.723   9.999  17.408  0.00  0.00    +0.000 A 
ATOM      4  C   UNL     1      -3.112   9.834  17.234  0.00  0.00    +0.000 A 
ATOM      5  C   UNL     1      -4.007  10.639  17.930  0.00  0.00    +0.000 A 
ATOM      6  C   UNL     1      -3.546  11.672  18.748  0.00  0.00    +0.000 A 
ATOM      7  C   UNL     1      -2.164  11.908  18.910  0.00  0.00    +0.000 A 
ATOM      8  N   UNL     1      -1.672  13.005  19.617  0.00  0.00    +0.000 N 
ATOM      9  C   UNL     1      -2.480  13.923  20.441  0.00  0.00    +0.000 C 
ATOM     10  C   UNL     1      -0.327  13.121  19.769  0.00  0.00    +0.000 A 
ATOM     11  C   UNL     1       0.507  12.118  19.483  0.00  0.00    +0.000 A 
ATOM     12  O   UNL     1       1.697  12.315  20.061  0.00  0.00    +0.000 OA
ATOM     13  C   UNL     1       1.671  13.531  20.539  0.00  0.00    +0.000 A 
ATOM     14  C   UNL     1       2.691  14.187  21.208  0.00  0.00    +0.000 A 
ATOM     15  C   UNL     1       2.608  15.583  21.285  0.00  0.00    +0.000 A 
ATOM     16  C   UNL     1       1.520  16.264  20.686  0.00  0.00    +0.000 A 
ATOM     17  C   UNL     1       0.413  15.540  20.198  0.00  0.00    +0.000 A 
ATOM     18  C   UNL     1       0.505  14.147  20.195  0.00  0.00    +0.000 A 
ENDROOT
BRANCH   1  19
ATOM     19  N   UNL     1       1.251  10.414  18.007  0.00  0.00    +0.000 N 
ATOM     20  H   UNL     1       1.782  10.813  17.235  0.00  0.00    +0.000 HD
BRANCH  19  24
ATOM     21  C   UNL     1       2.495   6.618  19.601  0.00  0.00    +0.000 A 
ATOM     22  C   UNL     1       2.814   7.002  18.295  0.00  0.00    +0.000 A 
ATOM     23  C   UNL     1       2.429   8.249  17.780  0.00  0.00    +0.000 A 
ATOM     24  C   UNL     1       1.678   9.136  18.576  0.00  0.00    +0.000 A 
ATOM     25  C   UNL     1       1.352   8.746  19.898  0.00  0.00    +0.000 A 
ATOM     26  C   UNL     1       1.752   7.496  20.406  0.00  0.00    +0.000 A 
BRANCH  21  28
ATOM     27  C   UNL     1       2.253   4.507  20.826  0.00  0.00    +0.000 C 
ATOM     28  O   UNL     1       2.944   5.408  20.040  0.00  0.00    +0.000 OA
ENDBRANCH  21  28
ENDBRANCH  19  24
ENDBRANCH   1  19
TORSDOF 3
ENDMDL
MODEL 4
REMARK VINA RESULT:      -7.4      3.732      9.842
REMARK  Name = 
REMARK  5 active torsions:
REMARK  status: ('A' for Active; 'I' for Inactive)
REMARK    1  A    between atoms: C_1  and  O_2
REMARK    2  A    between atoms: O_2  and  C_3
REMARK    3  A    between atoms: C_6  and  N_7
REMARK    4  A    between atoms: N_7  and  C_8
REMARK    5  A    between atoms: N_15  and  C_16
REMARK                            x       y       z     vdW  Elec       q    Type
REMARK                         _______ _______ _______ _____ _____    ______ ____
ROOT
ATOM      1  C   UNL     1      -1.099  11.504  19.063  0.00  0.00    +0.000 A 
ATOM      2  C   UNL     1      -2.079  11.229  18.061  0.00  0.00    +0.000 A 
ATOM      3  C   UNL     1      -1.752  10.660  16.805  0.00  0.00    +0.000 A 
ATOM      4  C   UNL     1      -2.770  10.308  15.895  0.00  0.00    +0.000 A 
ATOM      5  C   UNL     1      -4.106  10.502  16.229  0.00  0.00    +0.000 A 
ATOM      6  C   UNL     1      -4.457  11.118  17.431  0.00  0.00    +0.000 A 
ATOM      7  C   UNL     1      -3.469  11.535  18.348  0.00  0.00    +0.000 A 
ATOM      8  N   UNL     1      -3.777  12.264  19.497  0.00  0.00    +0.000 N 
ATOM      9  C   UNL     1      -5.136  12.514  20.011  0.00  0.00    +0.000 C 
ATOM     10  C   UNL     1      -2.767  12.575  20.351  0.00  0.00    +0.000 A 
ATOM     11  C   UNL     1      -1.560  12.011  20.255  0.00  0.00    +0.000 A 
ATOM     12  O   UNL     1      -0.876  12.165  21.394  0.00  0.00    +0.000 OA
ATOM     13  C   UNL     1      -1.573  12.993  22.126  0.00  0.00    +0.000 A 
ATOM     14  C   UNL     1      -1.251  13.469  23.386  0.00  0.00    +0.000 A 
ATOM     15  C   UNL     1      -1.912  14.624  23.821  0.00  0.00    +0.000 A 
ATOM     16  C   UNL     1      -2.858  15.260  22.980  0.00  0.00    +0.000 A 
ATOM     17  C   UNL     1      -3.295  14.626  21.798  0.00  0.00    +0.000 A 
ATOM     18  C   UNL     1      -2.655  13.441  21.429  0.00  0.00    +0.000 A 
ENDROOT
BRANCH   1  19
ATOM     19  N   UNL     1       0.315  11.365  18.951  0.00  0.00    +0.000 N 
ATOM     20  H   UNL     1       0.903  12.186  18.821  0.00  0.00    +0.000 HD
BRANCH  19  24
ATOM     21  C   UNL     1       2.160   7.500  19.349  0.00  0.00    +0.000 A 
ATOM     22  C   UNL     1       2.154   8.184  18.130  0.00  0.00    +0.000 A 
ATOM     23  C   UNL     1       1.573   9.455  18.002  0.00  0.00    +0.000 A 
ATOM     24  C   UNL     1       0.951  10.058  19.114  0.00  0.00    +0.000 A 
ATOM     25  C   UNL     1       0.953   9.363  20.348  0.00  0.00    +0.000 A 
ATOM     26  C   UNL     1       1.547   8.092  20.465  0.00  0.00    +0.000 A 
BRANCH  21  28
ATOM     27  C   UNL     1       2.855   5.354  18.385  0.00  0.00    +0.000 C 
ATOM     28  O   UNL     1       2.783   6.289  19.400  0.00  0.00    +0.000 OA
ENDBRANCH  21  28
ENDBRANCH  19  24
ENDBRANCH   1  19
TORSDOF 3
ENDMDL
MODEL 5
REMARK VINA RESULT:      -7.1      5.034      9.349
REMARK  Name = 
REMARK  5 active torsions:
REMARK  status: ('A' for Active; 'I' for Inactive)
REMARK    1  A    between atoms: C_1  and  O_2
REMARK    2  A    between atoms: O_2  and  C_3
REMARK    3  A    between atoms: C_6  and  N_7
REMARK    4  A    between atoms: N_7  and  C_8
REMARK    5  A    between atoms: N_15  and  C_16
REMARK                            x       y       z     vdW  Elec       q    Type
REMARK                         _______ _______ _______ _____ _____    ______ ____
ROOT
ATOM      1  C   UNL     1       0.510  12.048  19.654  0.00  0.00    +0.000 A 
ATOM      2  C   UNL     1       0.917  10.687  19.498  0.00  0.00    +0.000 A 
ATOM      3  C   UNL     1       1.487  10.191  18.300  0.00  0.00    +0.000 A 
ATOM      4  C   UNL     1       1.972   8.868  18.236  0.00  0.00    +0.000 A 
ATOM      5  C   UNL     1       1.909   8.043  19.354  0.00  0.00    +0.000 A 
ATOM      6  C   UNL     1       1.296   8.483  20.528  0.00  0.00    +0.000 A 
ATOM      7  C   UNL     1       0.749   9.781  20.620  0.00  0.00    +0.000 A 
ATOM      8  N   UNL     1       0.021  10.207  21.730  0.00  0.00    +0.000 N 
ATOM      9  C   UNL     1      -0.102   9.475  23.004  0.00  0.00    +0.000 C 
ATOM     10  C   UNL     1      -0.420  11.492  21.755  0.00  0.00    +0.000 A 
ATOM     11  C   UNL     1       0.017  12.407  20.886  0.00  0.00    +0.000 A 
ATOM     12  O   UNL     1      -0.243  13.642  21.331  0.00  0.00    +0.000 OA
ATOM     13  C   UNL     1      -1.017  13.495  22.375  0.00  0.00    +0.000 A 
ATOM     14  C   UNL     1      -1.562  14.499  23.157  0.00  0.00    +0.000 A 
ATOM     15  C   UNL     1      -2.655  14.157  23.963  0.00  0.00    +0.000 A 
ATOM     16  C   UNL     1      -3.162  12.835  23.948  0.00  0.00    +0.000 A 
ATOM     17  C   UNL     1      -2.449  11.810  23.292  0.00  0.00    +0.000 A 
ATOM     18  C   UNL     1      -1.327  12.180  22.549  0.00  0.00    +0.000 A 
ENDROOT
BRANCH   1  19
ATOM     19  N   UNL     1       0.504  13.068  18.659  0.00  0.00    +0.000 N 
ATOM     20  H   UNL     1      -0.290  13.165  18.029  0.00  0.00    +0.000 HD
BRANCH  19  24
ATOM     21  C   UNL     1       3.641  16.001  18.411  0.00  0.00    +0.000 A 
ATOM     22  C   UNL     1       2.313  16.369  18.652  0.00  0.00    +0.000 A 
ATOM     23  C   UNL     1       1.292  15.413  18.756  0.00  0.00    +0.000 A 
ATOM     24  C   UNL     1       1.589  14.046  18.588  0.00  0.00    +0.000 A 
ATOM     25  C   UNL     1       2.933  13.673  18.340  0.00  0.00    +0.000 A 
ATOM     26  C   UNL     1       3.950  14.641  18.246  0.00  0.00    +0.000 A 
BRANCH  21  28
ATOM     27  C   UNL     1       5.678  17.118  19.195  0.00  0.00    +0.000 C 
ATOM     28  O   UNL     1       4.580  16.987  18.368  0.00  0.00    +0.000 OA
ENDBRANCH  21  28
ENDBRANCH  19  24
ENDBRANCH   1  19
TORSDOF 3
ENDMDL
MODEL 6
REMARK VINA RESULT:      -7.0      4.764      9.064
REMARK  Name = 
REMARK  5 active torsions:
REMARK  status: ('A' for Active; 'I' for Inactive)
REMARK    1  A    between atoms: C_1  and  O_2
REMARK    2  A    between atoms: O_2  and  C_3
REMARK    3  A    between atoms: C_6  and  N_7
REMARK    4  A    between atoms: N_7  and  C_8
REMARK    5  A    between atoms: N_15  and  C_16
REMARK                            x       y       z     vdW  Elec       q    Type
REMARK                         _______ _______ _______ _____ _____    ______ ____
ROOT
ATOM      1  C   UNL     1       0.792  11.796  19.389  0.00  0.00    +0.000 A 
ATOM      2  C   UNL     1       1.177  10.427  19.250  0.00  0.00    +0.000 A 
ATOM      3  C   UNL     1       1.703   9.898  18.046  0.00  0.00    +0.000 A 
ATOM      4  C   UNL     1       2.169   8.569  17.996  0.00  0.00    +0.000 A 
ATOM      5  C   UNL     1       2.130   7.768  19.133  0.00  0.00    +0.000 A 
ATOM      6  C   UNL     1       1.559   8.240  20.315  0.00  0.00    +0.000 A 
ATOM      7  C   UNL     1       1.032   9.547  20.396  0.00  0.00    +0.000 A 
ATOM      8  N   UNL     1       0.343  10.007  21.518  0.00  0.00    +0.000 N 
ATOM      9  C   UNL     1       0.251   9.303  22.811  0.00  0.00    +0.000 C 
ATOM     10  C   UNL     1      -0.081  11.298  21.529  0.00  0.00    +0.000 A 
ATOM     11  C   UNL     1       0.341  12.188  20.628  0.00  0.00    +0.000 A 
ATOM     12  O   UNL     1       0.110  13.435  21.054  0.00  0.00    +0.000 OA
ATOM     13  C   UNL     1      -0.633  13.321  22.124  0.00  0.00    +0.000 A 
ATOM     14  C   UNL     1      -1.141  14.348  22.901  0.00  0.00    +0.000 A 
ATOM     15  C   UNL     1      -2.213  14.037  23.747  0.00  0.00    +0.000 A 
ATOM     16  C   UNL     1      -2.737  12.722  23.775  0.00  0.00    +0.000 A 
ATOM     17  C   UNL     1      -2.058  11.674  23.120  0.00  0.00    +0.000 A 
ATOM     18  C   UNL     1      -0.954  12.013  22.335  0.00  0.00    +0.000 A 
ENDROOT
BRANCH   1  19
ATOM     19  N   UNL     1       0.767  12.795  18.373  0.00  0.00    +0.000 N 
ATOM     20  H   UNL     1       0.043  12.783  17.658  0.00  0.00    +0.000 HD
BRANCH  19  24
ATOM     21  C   UNL     1       3.632  16.002  18.476  0.00  0.00    +0.000 A 
ATOM     22  C   UNL     1       4.028  14.675  18.284  0.00  0.00    +0.000 A 
ATOM     23  C   UNL     1       3.094  13.629  18.227  0.00  0.00    +0.000 A 
ATOM     24  C   UNL     1       1.722  13.904  18.395  0.00  0.00    +0.000 A 
ATOM     25  C   UNL     1       1.321  15.248  18.593  0.00  0.00    +0.000 A 
ATOM     26  C   UNL     1       2.268  16.289  18.640  0.00  0.00    +0.000 A 
BRANCH  21  28
ATOM     27  C   UNL     1       5.708  17.020  19.295  0.00  0.00    +0.000 C 
ATOM     28  O   UNL     1       4.598  16.964  18.475  0.00  0.00    +0.000 OA
ENDBRANCH  21  28
ENDBRANCH  19  24
ENDBRANCH   1  19
TORSDOF 3
ENDMDL
MODEL 7
REMARK VINA RESULT:      -6.9      5.690     11.670
REMARK  Name = 
REMARK  5 active torsions:
REMARK  status: ('A' for Active; 'I' for Inactive)
REMARK    1  A    between atoms: C_1  and  O_2
REMARK    2  A    between atoms: O_2  and  C_3
REMARK    3  A    between atoms: C_6  and  N_7
REMARK    4  A    between atoms: N_7  and  C_8
REMARK    5  A    between atoms: N_15  and  C_16
REMARK                            x       y       z     vdW  Elec       q    Type
REMARK                         _______ _______ _______ _____ _____    ______ ____
ROOT
ATOM      1  C   UNL     1      -3.557  12.916  20.385  0.00  0.00    +0.000 A 
ATOM      2  C   UNL     1      -4.744  12.297  19.884  0.00  0.00    +0.000 A 
ATOM      3  C   UNL     1      -4.820  11.721  18.592  0.00  0.00    +0.000 A 
ATOM      4  C   UNL     1      -5.979  11.028  18.189  0.00  0.00    +0.000 A 
ATOM      5  C   UNL     1      -7.053  10.889  19.062  0.00  0.00    +0.000 A 
ATOM      6  C   UNL     1      -7.032  11.499  20.316  0.00  0.00    +0.000 A 
ATOM      7  C   UNL     1      -5.914  12.249  20.741  0.00  0.00    +0.000 A 
ATOM      8  N   UNL     1      -5.910  12.974  21.932  0.00  0.00    +0.000 N 
ATOM      9  C   UNL     1      -6.945  12.900  22.981  0.00  0.00    +0.000 C 
ATOM     10  C   UNL     1      -4.769  13.621  22.288  0.00  0.00    +0.000 A 
ATOM     11  C   UNL     1      -3.606  13.392  21.674  0.00  0.00    +0.000 A 
ATOM     12  O   UNL     1      -2.585  13.828  22.421  0.00  0.00    +0.000 OA
ATOM     13  C   UNL     1      -3.119  14.506  23.403  0.00  0.00    +0.000 A 
ATOM     14  C   UNL     1      -2.451  15.166  24.421  0.00  0.00    +0.000 A 
ATOM     15  C   UNL     1      -3.169  16.140  25.128  0.00  0.00    +0.000 A 
ATOM     16  C   UNL     1      -4.514  16.419  24.784  0.00  0.00    +0.000 A 
ATOM     17  C   UNL     1      -5.203  15.584  23.881  0.00  0.00    +0.000 A 
ATOM     18  C   UNL     1      -4.470  14.583  23.242  0.00  0.00    +0.000 A 
ENDROOT
BRANCH   1  19
ATOM     19  N   UNL     1      -2.340  13.149  19.681  0.00  0.00    +0.000 N 
ATOM     20  H   UNL     1      -2.130  14.073  19.310  0.00  0.00    +0.000 HD
BRANCH  19  24
ATOM     21  C   UNL     1       0.559   9.994  19.291  0.00  0.00    +0.000 A 
ATOM     22  C   UNL     1      -0.390  10.242  18.295  0.00  0.00    +0.000 A 
ATOM     23  C   UNL     1      -1.322  11.284  18.408  0.00  0.00    +0.000 A 
ATOM     24  C   UNL     1      -1.334  12.093  19.563  0.00  0.00    +0.000 A 
ATOM     25  C   UNL     1      -0.375  11.840  20.574  0.00  0.00    +0.000 A 
ATOM     26  C   UNL     1       0.560  10.796  20.444  0.00  0.00    +0.000 A 
BRANCH  21  28
ATOM     27  C   UNL     1       2.166   8.743  17.925  0.00  0.00    +0.000 C 
ATOM     28  O   UNL     1       1.457   8.990  19.084  0.00  0.00    +0.000 OA
ENDBRANCH  21  28
ENDBRANCH  19  24
ENDBRANCH   1  19
TORSDOF 3
ENDMDL
MODEL 8
REMARK VINA RESULT:      -6.7      4.605      9.055
REMARK  Name = 
REMARK  5 active torsions:
REMARK  status: ('A' for Active; 'I' for Inactive)
REMARK    1  A    between atoms: C_1  and  O_2
REMARK    2  A    between atoms: O_2  and  C_3
REMARK    3  A    between atoms: C_6  and  N_7
REMARK    4  A    between atoms: N_7  and  C_8
REMARK    5  A    between atoms: N_15  and  C_16
REMARK                            x       y       z     vdW  Elec       q    Type
REMARK                         _______ _______ _______ _____ _____    ______ ____
ROOT
ATOM      1  C   UNL     1       0.240  12.222  20.096  0.00  0.00    +0.000 A 
ATOM      2  C   UNL     1      -0.579  12.572  21.213  0.00  0.00    +0.000 A 
ATOM      3  C   UNL     1      -1.696  11.798  21.616  0.00  0.00    +0.000 A 
ATOM      4  C   UNL     1      -2.404  12.128  22.790  0.00  0.00    +0.000 A 
ATOM      5  C   UNL     1      -2.003  13.206  23.572  0.00  0.00    +0.000 A 
ATOM      6  C   UNL     1      -0.948  14.024  23.167  0.00  0.00    +0.000 A 
ATOM      7  C   UNL     1      -0.244  13.763  21.971  0.00  0.00    +0.000 A 
ATOM      8  N   UNL     1       0.730  14.629  21.475  0.00  0.00    +0.000 N 
ATOM      9  C   UNL     1       1.296  15.784  22.197  0.00  0.00    +0.000 C 
ATOM     10  C   UNL     1       1.395  14.269  20.345  0.00  0.00    +0.000 A 
ATOM     11  C   UNL     1       1.321  13.033  19.844  0.00  0.00    +0.000 A 
ATOM     12  O   UNL     1       2.327  12.810  18.992  0.00  0.00    +0.000 OA
ATOM     13  C   UNL     1       2.911  13.965  18.809  0.00  0.00    +0.000 A 
ATOM     14  C   UNL     1       3.994  14.232  17.988  0.00  0.00    +0.000 A 
ATOM     15  C   UNL     1       4.210  15.570  17.634  0.00  0.00    +0.000 A 
ATOM     16  C   UNL     1       3.336  16.580  18.104  0.00  0.00    +0.000 A 
ATOM     17  C   UNL     1       2.376  16.282  19.093  0.00  0.00    +0.000 A 
ATOM     18  C   UNL     1       2.231  14.945  19.468  0.00  0.00    +0.000 A 
ENDROOT
BRANCH   1  19
ATOM     19  N   UNL     1       0.034  11.155  19.173  0.00  0.00    +0.000 N 
ATOM     20  H   UNL     1      -0.595  11.276  18.381  0.00  0.00    +0.000 HD
BRANCH  19  24
ATOM     21  C   UNL     1       2.235   7.469  19.446  0.00  0.00    +0.000 A 
ATOM     22  C   UNL     1       2.155   8.186  18.248  0.00  0.00    +0.000 A 
ATOM     23  C   UNL     1       1.457   9.400  18.161  0.00  0.00    +0.000 A 
ATOM     24  C   UNL     1       0.790   9.909  19.294  0.00  0.00    +0.000 A 
ATOM     25  C   UNL     1       0.867   9.181  20.506  0.00  0.00    +0.000 A 
ATOM     26  C   UNL     1       1.578   7.969  20.582  0.00  0.00    +0.000 A 
BRANCH  21  28
ATOM     27  C   UNL     1       3.225   5.495  18.380  0.00  0.00    +0.000 C 
ATOM     28  O   UNL     1       2.969   6.321  19.457  0.00  0.00    +0.000 OA
ENDBRANCH  21  28
ENDBRANCH  19  24
ENDBRANCH   1  19
TORSDOF 3
ENDMDL
MODEL 9
REMARK VINA RESULT:      -6.7      5.910     12.023
REMARK  Name = 
REMARK  5 active torsions:
REMARK  status: ('A' for Active; 'I' for Inactive)
REMARK    1  A    between atoms: C_1  and  O_2
REMARK    2  A    between atoms: O_2  and  C_3
REMARK    3  A    between atoms: C_6  and  N_7
REMARK    4  A    between atoms: N_7  and  C_8
REMARK    5  A    between atoms: N_15  and  C_16
REMARK                            x       y       z     vdW  Elec       q    Type
REMARK                         _______ _______ _______ _____ _____    ______ ____
ROOT
ATOM      1  C   UNL     1      -3.795  13.023  20.516  0.00  0.00    +0.000 A 
ATOM      2  C   UNL     1      -4.899  12.352  19.906  0.00  0.00    +0.000 A 
ATOM      3  C   UNL     1      -4.800  11.696  18.654  0.00  0.00    +0.000 A 
ATOM      4  C   UNL     1      -5.889  10.957  18.149  0.00  0.00    +0.000 A 
ATOM      5  C   UNL     1      -7.066  10.852  18.883  0.00  0.00    +0.000 A 
ATOM      6  C   UNL     1      -7.216  11.538  20.088  0.00  0.00    +0.000 A 
ATOM      7  C   UNL     1      -6.171  12.334  20.606  0.00  0.00    +0.000 A 
ATOM      8  N   UNL     1      -6.330  13.130  21.739  0.00  0.00    +0.000 N 
ATOM      9  C   UNL     1      -7.492  13.102  22.647  0.00  0.00    +0.000 C 
ATOM     10  C   UNL     1      -5.253  13.820  22.197  0.00  0.00    +0.000 A 
ATOM     11  C   UNL     1      -4.017  13.576  21.755  0.00  0.00    +0.000 A 
ATOM     12  O   UNL     1      -3.107  14.077  22.599  0.00  0.00    +0.000 OA
ATOM     13  C   UNL     1      -3.771  14.804  23.458  0.00  0.00    +0.000 A 
ATOM     14  C   UNL     1      -3.250  15.537  24.511  0.00  0.00    +0.000 A 
ATOM     15  C   UNL     1      -4.064  16.539  25.055  0.00  0.00    +0.000 A 
ATOM     16  C   UNL     1      -5.356  16.771  24.523  0.00  0.00    +0.000 A 
ATOM     17  C   UNL     1      -5.912  15.869  23.593  0.00  0.00    +0.000 A 
ATOM     18  C   UNL     1      -5.091  14.844  23.119  0.00  0.00    +0.000 A 
ENDROOT
BRANCH   1  19
ATOM     19  N   UNL     1      -2.499  13.235  19.963  0.00  0.00    +0.000 N 
ATOM     20  H   UNL     1      -2.207  14.169  19.683  0.00  0.00    +0.000 HD
BRANCH  19  24
ATOM     21  C   UNL     1       0.369  10.034  19.775  0.00  0.00    +0.000 A 
ATOM     22  C   UNL     1      -0.076  10.545  20.998  0.00  0.00    +0.000 A 
ATOM     23  C   UNL     1      -1.029  11.574  21.063  0.00  0.00    +0.000 A 
ATOM     24  C   UNL     1      -1.537  12.136  19.875  0.00  0.00    +0.000 A 
ATOM     25  C   UNL     1      -1.083  11.621  18.636  0.00  0.00    +0.000 A 
ATOM     26  C   UNL     1      -0.133  10.583  18.584  0.00  0.00    +0.000 A 
BRANCH  21  28
ATOM     27  C   UNL     1       1.448   8.097  20.822  0.00  0.00    +0.000 C 
ATOM     28  O   UNL     1       1.263   9.006  19.799  0.00  0.00    +0.000 OA
ENDBRANCH  21  28
ENDBRANCH  19  24
ENDBRANCH   1  19
TORSDOF 3
ENDMDL
