MODEL 1
REMARK VINA RESULT:      -7.9      0.000      0.000
REMARK  Name = 
REMARK  5 active torsions:
REMARK  status: ('A' for Active; 'I' for Inactive)
REMARK    1  A    between atoms: C_1  and  C_2
REMARK    2  A    between atoms: C_3  and  C_4
REMARK    3  A    between atoms: N_6  and  N_7
REMARK    4  A    between atoms: N_10  and  N_11
REMARK    5  A    between atoms: N_11  and  C_12
REMARK                            x       y       z     vdW  Elec       q    Type
REMARK                         _______ _______ _______ _____ _____    ______ ____
ROOT
ATOM      1  C   UNL     1       4.597   5.920  16.466  0.00  0.00    +0.000 C 
ATOM      2  C   UNL     1       5.890   5.313  16.850  0.00  0.00    +0.000 A 
ATOM      3  C   UNL     1       6.944   4.796  16.109  0.00  0.00    +0.000 A 
ATOM      4  N   UNL     1       7.890   4.293  16.970  0.00  0.00    +0.000 NA
ATOM      5  N   UNL     1       7.442   4.440  18.203  0.00  0.00    +0.000 NA
ATOM      6  N   UNL     1       6.291   5.130  18.147  0.00  0.00    +0.000 N 
ENDROOT
BRANCH   3   7
ATOM      7  C   UNL     1       7.106   4.705  14.667  0.00  0.00    +0.000 C 
ATOM      8  O   UNL     1       7.799   5.473  14.005  0.00  0.00    +0.000 OA
ATOM      9  N   UNL     1       6.380   3.657  14.104  0.00  0.00    +0.000 N 
ATOM     10  H   UNL     1       5.889   3.013  14.725  0.00  0.00    +0.000 HD
BRANCH   9  11
ATOM     11  N   UNL     1       6.424   3.408  12.715  0.00  0.00    +0.000 NA
ATOM     12  H   UNL     1       7.254   3.889  12.345  0.00  0.00    +0.000 HD
ATOM     13  H   UNL     1       5.636   3.898  12.285  0.00  0.00    +0.000 HD
ENDBRANCH   9  11
ENDBRANCH   3   7
BRANCH   6  14
ATOM     14  N   UNL     1       5.614   5.439  19.308  0.00  0.00    +0.000 N 
ATOM     15  H   UNL     1       5.524   6.449  19.356  0.00  0.00    +0.000 HD
BRANCH  14  16
ATOM     16  C   UNL     1       4.366   4.822  19.603  0.00  0.00    +0.000 A 
ATOM     17  C   UNL     1       3.219   5.580  19.885  0.00  0.00    +0.000 A 
ATOM     18  C   UNL     1       2.029   4.959  20.267  0.00  0.00    +0.000 A 
ATOM     19  C   UNL     1       1.971   3.575  20.322  0.00  0.00    +0.000 A 
ATOM     20  F   UNL     1       0.843   2.976  20.725  0.00  0.00    +0.000 F 
ATOM     21  C   UNL     1       3.068   2.800  19.966  0.00  0.00    +0.000 A 
ATOM     22  C   UNL     1       4.262   3.423  19.587  0.00  0.00    +0.000 A 
ENDBRANCH  14  16
ENDBRANCH   6  14
TORSDOF 4
ENDMDL
MODEL 2
REMARK VINA RESULT:      -7.9      0.249      1.165
REMARK  Name = 
REMARK  5 active torsions:
REMARK  status: ('A' for Active; 'I' for Inactive)
REMARK    1  A    between atoms: C_1  and  C_2
REMARK    2  A    between atoms: C_3  and  C_4
REMARK    3  A    between atoms: N_6  and  N_7
REMARK    4  A    between atoms: N_10  and  N_11
REMARK    5  A    between atoms: N_11  and  C_12
REMARK                            x       y       z     vdW  Elec       q    Type
REMARK                         _______ _______ _______ _____ _____    ______ ____
ROOT
ATOM      1  C   UNL     1       4.478   5.665  16.512  0.00  0.00    +0.000 C 
ATOM      2  C   UNL     1       5.819   5.172  16.897  0.00  0.00    +0.000 A 
ATOM      3  C   UNL     1       6.911   4.743  16.157  0.00  0.00    +0.000 A 
ATOM      4  N   UNL     1       7.898   4.327  17.019  0.00  0.00    +0.000 NA
ATOM      5  N   UNL     1       7.441   4.441  18.251  0.00  0.00    +0.000 NA
ATOM      6  N   UNL     1       6.235   5.031  18.194  0.00  0.00    +0.000 N 
ENDROOT
BRANCH   3   7
ATOM      7  C   UNL     1       7.079   4.659  14.715  0.00  0.00    +0.000 C 
ATOM      8  O   UNL     1       7.777   5.429  14.060  0.00  0.00    +0.000 OA
ATOM      9  N   UNL     1       6.352   3.617  14.144  0.00  0.00    +0.000 N 
ATOM     10  H   UNL     1       5.856   2.971  14.760  0.00  0.00    +0.000 HD
BRANCH   9  11
ATOM     11  N   UNL     1       6.401   3.374  12.753  0.00  0.00    +0.000 NA
ATOM     12  H   UNL     1       6.469   2.356  12.623  0.00  0.00    +0.000 HD
ATOM     13  H   UNL     1       7.294   3.733  12.406  0.00  0.00    +0.000 HD
ENDBRANCH   9  11
ENDBRANCH   3   7
BRANCH   6  14
ATOM     14  N   UNL     1       5.536   5.287  19.354  0.00  0.00    +0.000 N 
ATOM     15  H   UNL     1       5.409   6.292  19.426  0.00  0.00    +0.000 HD
BRANCH  14  16
ATOM     16  C   UNL     1       4.309   4.618  19.621  0.00  0.00    +0.000 A 
ATOM     17  C   UNL     1       4.211   3.218  19.585  0.00  0.00    +0.000 A 
ATOM     18  C   UNL     1       2.979   2.584  19.754  0.00  0.00    +0.000 A 
ATOM     19  C   UNL     1       1.849   3.347  20.008  0.00  0.00    +0.000 A 
ATOM     20  F   UNL     1       0.659   2.747  20.132  0.00  0.00    +0.000 F 
ATOM     21  C   UNL     1       1.935   4.729  20.132  0.00  0.00    +0.000 A 
ATOM     22  C   UNL     1       3.170   5.364  19.959  0.00  0.00    +0.000 A 
ENDBRANCH  14  16
ENDBRANCH   6  14
TORSDOF 4
ENDMDL
MODEL 3
REMARK VINA RESULT:      -7.6      1.044      1.044
REMARK  Name = 
REMARK  5 active torsions:
REMARK  status: ('A' for Active; 'I' for Inactive)
REMARK    1  A    between atoms: C_1  and  C_2
REMARK    2  A    between atoms: C_3  and  C_4
REMARK    3  A    between atoms: N_6  and  N_7
REMARK    4  A    between atoms: N_10  and  N_11
REMARK    5  A    between atoms: N_11  and  C_12
REMARK                            x       y       z     vdW  Elec       q    Type
REMARK                         _______ _______ _______ _____ _____    ______ ____
ROOT
ATOM      1  C   UNL     1       4.525   5.767  16.546  0.00  0.00    +0.000 C 
ATOM      2  C   UNL     1       5.856   5.225  16.898  0.00  0.00    +0.000 A 
ATOM      3  C   UNL     1       6.923   4.777  16.131  0.00  0.00    +0.000 A 
ATOM      4  N   UNL     1       7.910   4.313  16.967  0.00  0.00    +0.000 NA
ATOM      5  N   UNL     1       7.477   4.417  18.210  0.00  0.00    +0.000 NA
ATOM      6  N   UNL     1       6.289   5.045  18.185  0.00  0.00    +0.000 N 
ENDROOT
BRANCH   3   7
ATOM      7  C   UNL     1       7.063   4.717  14.685  0.00  0.00    +0.000 C 
ATOM      8  O   UNL     1       6.418   3.961  13.964  0.00  0.00    +0.000 OA
ATOM      9  N   UNL     1       8.021   5.604  14.196  0.00  0.00    +0.000 N 
ATOM     10  H   UNL     1       8.462   6.256  14.845  0.00  0.00    +0.000 HD
BRANCH   9  11
ATOM     11  N   UNL     1       8.287   5.693  12.811  0.00  0.00    +0.000 NA
ATOM     12  H   UNL     1       8.051   4.782  12.396  0.00  0.00    +0.000 HD
ATOM     13  H   UNL     1       9.300   5.770  12.693  0.00  0.00    +0.000 HD
ENDBRANCH   9  11
ENDBRANCH   3   7
BRANCH   6  14
ATOM     14  N   UNL     1       5.618   5.299  19.361  0.00  0.00    +0.000 N 
ATOM     15  H   UNL     1       5.541   6.307  19.465  0.00  0.00    +0.000 HD
BRANCH  14  16
ATOM     16  C   UNL     1       4.363   4.683  19.625  0.00  0.00    +0.000 A 
ATOM     17  C   UNL     1       3.222   5.442  19.935  0.00  0.00    +0.000 A 
ATOM     18  C   UNL     1       2.024   4.817  20.285  0.00  0.00    +0.000 A 
ATOM     19  C   UNL     1       1.951   3.432  20.281  0.00  0.00    +0.000 A 
ATOM     20  F   UNL     1       0.815   2.829  20.653  0.00  0.00    +0.000 F 
ATOM     21  C   UNL     1       3.042   2.662  19.896  0.00  0.00    +0.000 A 
ATOM     22  C   UNL     1       4.244   3.288  19.549  0.00  0.00    +0.000 A 
ENDBRANCH  14  16
ENDBRANCH   6  14
TORSDOF 4
ENDMDL
MODEL 4
REMARK VINA RESULT:      -7.6      1.058      1.554
REMARK  Name = 
REMARK  5 active torsions:
REMARK  status: ('A' for Active; 'I' for Inactive)
REMARK    1  A    between atoms: C_1  and  C_2
REMARK    2  A    between atoms: C_3  and  C_4
REMARK    3  A    between atoms: N_6  and  N_7
REMARK    4  A    between atoms: N_10  and  N_11
REMARK    5  A    between atoms: N_11  and  C_12
REMARK                            x       y       z     vdW  Elec       q    Type
REMARK                         _______ _______ _______ _____ _____    ______ ____
ROOT
ATOM      1  C   UNL     1       4.496   5.700  16.550  0.00  0.00    +0.000 C 
ATOM      2  C   UNL     1       5.835   5.183  16.909  0.00  0.00    +0.000 A 
ATOM      3  C   UNL     1       6.912   4.749  16.148  0.00  0.00    +0.000 A 
ATOM      4  N   UNL     1       7.904   4.307  16.991  0.00  0.00    +0.000 NA
ATOM      5  N   UNL     1       7.465   4.411  18.231  0.00  0.00    +0.000 NA
ATOM      6  N   UNL     1       6.267   5.018  18.199  0.00  0.00    +0.000 N 
ENDROOT
BRANCH   3   7
ATOM      7  C   UNL     1       7.058   4.682  14.703  0.00  0.00    +0.000 C 
ATOM      8  O   UNL     1       6.423   3.916  13.984  0.00  0.00    +0.000 OA
ATOM      9  N   UNL     1       8.008   5.576  14.213  0.00  0.00    +0.000 N 
ATOM     10  H   UNL     1       8.440   6.236  14.860  0.00  0.00    +0.000 HD
BRANCH   9  11
ATOM     11  N   UNL     1       8.278   5.661  12.829  0.00  0.00    +0.000 NA
ATOM     12  H   UNL     1       7.905   6.561  12.500  0.00  0.00    +0.000 HD
ATOM     13  H   UNL     1       7.701   4.960  12.355  0.00  0.00    +0.000 HD
ENDBRANCH   9  11
ENDBRANCH   3   7
BRANCH   6  14
ATOM     14  N   UNL     1       5.588   5.268  19.372  0.00  0.00    +0.000 N 
ATOM     15  H   UNL     1       5.506   6.275  19.476  0.00  0.00    +0.000 HD
BRANCH  14  16
ATOM     16  C   UNL     1       4.333   4.647  19.627  0.00  0.00    +0.000 A 
ATOM     17  C   UNL     1       4.180   3.252  19.577  0.00  0.00    +0.000 A 
ATOM     18  C   UNL     1       2.922   2.666  19.735  0.00  0.00    +0.000 A 
ATOM     19  C   UNL     1       1.823   3.473  19.990  0.00  0.00    +0.000 A 
ATOM     20  F   UNL     1       0.609   2.919  20.104  0.00  0.00    +0.000 F 
ATOM     21  C   UNL     1       1.964   4.848  20.128  0.00  0.00    +0.000 A 
ATOM     22  C   UNL     1       3.224   5.435  19.966  0.00  0.00    +0.000 A 
ENDBRANCH  14  16
ENDBRANCH   6  14
TORSDOF 4
ENDMDL
MODEL 5
REMARK VINA RESULT:      -7.5      1.841      2.272
REMARK  Name = 
REMARK  5 active torsions:
REMARK  status: ('A' for Active; 'I' for Inactive)
REMARK    1  A    between atoms: C_1  and  C_2
REMARK    2  A    between atoms: C_3  and  C_4
REMARK    3  A    between atoms: N_6  and  N_7
REMARK    4  A    between atoms: N_10  and  N_11
REMARK    5  A    between atoms: N_11  and  C_12
REMARK                            x       y       z     vdW  Elec       q    Type
REMARK                         _______ _______ _______ _____ _____    ______ ____
ROOT
ATOM      1  C   UNL     1       4.136   7.051  17.362  0.00  0.00    +0.000 C 
ATOM      2  C   UNL     1       5.136   6.217  18.064  0.00  0.00    +0.000 A 
ATOM      3  C   UNL     1       6.445   5.865  17.765  0.00  0.00    +0.000 A 
ATOM      4  N   UNL     1       6.909   5.007  18.733  0.00  0.00    +0.000 NA
ATOM      5  N   UNL     1       5.928   4.785  19.588  0.00  0.00    +0.000 NA
ATOM      6  N   UNL     1       4.895   5.573  19.249  0.00  0.00    +0.000 N 
ENDROOT
BRANCH   3   7
ATOM      7  C   UNL     1       7.268   6.240  16.626  0.00  0.00    +0.000 C 
ATOM      8  O   UNL     1       7.964   7.251  16.587  0.00  0.00    +0.000 OA
ATOM      9  N   UNL     1       7.177   5.336  15.570  0.00  0.00    +0.000 N 
ATOM     10  H   UNL     1       6.639   4.479  15.704  0.00  0.00    +0.000 HD
BRANCH   9  11
ATOM     11  N   UNL     1       7.916   5.531  14.382  0.00  0.00    +0.000 NA
ATOM     12  H   UNL     1       7.275   5.931  13.686  0.00  0.00    +0.000 HD
ATOM     13  H   UNL     1       8.153   4.608  14.007  0.00  0.00    +0.000 HD
ENDBRANCH   9  11
ENDBRANCH   3   7
BRANCH   6  14
ATOM     14  N   UNL     1       3.736   5.550  19.995  0.00  0.00    +0.000 N 
ATOM     15  H   UNL     1       3.351   6.490  20.002  0.00  0.00    +0.000 HD
BRANCH  14  16
ATOM     16  C   UNL     1       2.711   4.605  19.709  0.00  0.00    +0.000 A 
ATOM     17  C   UNL     1       2.094   3.860  20.727  0.00  0.00    +0.000 A 
ATOM     18  C   UNL     1       1.160   2.869  20.419  0.00  0.00    +0.000 A 
ATOM     19  C   UNL     1       0.805   2.655  19.095  0.00  0.00    +0.000 A 
ATOM     20  F   UNL     1      -0.061   1.680  18.792  0.00  0.00    +0.000 F 
ATOM     21  C   UNL     1       1.339   3.438  18.079  0.00  0.00    +0.000 A 
ATOM     22  C   UNL     1       2.278   4.428  18.387  0.00  0.00    +0.000 A 
ENDBRANCH  14  16
ENDBRANCH   6  14
TORSDOF 4
ENDMDL
MODEL 6
REMARK VINA RESULT:      -7.5      1.807      2.375
REMARK  Name = 
REMARK  5 active torsions:
REMARK  status: ('A' for Active; 'I' for Inactive)
REMARK    1  A    between atoms: C_1  and  C_2
REMARK    2  A    between atoms: C_3  and  C_4
REMARK    3  A    between atoms: N_6  and  N_7
REMARK    4  A    between atoms: N_10  and  N_11
REMARK    5  A    between atoms: N_11  and  C_12
REMARK                            x       y       z     vdW  Elec       q    Type
REMARK                         _______ _______ _______ _____ _____    ______ ____
ROOT
ATOM      1  C   UNL     1       4.071   6.466  17.336  0.00  0.00    +0.000 C 
ATOM      2  C   UNL     1       5.207   5.927  18.116  0.00  0.00    +0.000 A 
ATOM      3  C   UNL     1       6.564   5.815  17.848  0.00  0.00    +0.000 A 
ATOM      4  N   UNL     1       7.175   5.174  18.900  0.00  0.00    +0.000 NA
ATOM      5  N   UNL     1       6.245   4.852  19.779  0.00  0.00    +0.000 NA
ATOM      6  N   UNL     1       5.080   5.377  19.364  0.00  0.00    +0.000 N 
ENDROOT
BRANCH   3   7
ATOM      7  C   UNL     1       7.312   6.225  16.671  0.00  0.00    +0.000 C 
ATOM      8  O   UNL     1       7.948   7.273  16.593  0.00  0.00    +0.000 OA
ATOM      9  N   UNL     1       7.227   5.307  15.626  0.00  0.00    +0.000 N 
ATOM     10  H   UNL     1       6.745   4.422  15.790  0.00  0.00    +0.000 HD
BRANCH   9  11
ATOM     11  N   UNL     1       7.900   5.532  14.405  0.00  0.00    +0.000 NA
ATOM     12  H   UNL     1       8.252   4.622  14.079  0.00  0.00    +0.000 HD
ATOM     13  H   UNL     1       8.746   6.071  14.610  0.00  0.00    +0.000 HD
ENDBRANCH   9  11
ENDBRANCH   3   7
BRANCH   6  14
ATOM     14  N   UNL     1       3.938   5.202  20.115  0.00  0.00    +0.000 N 
ATOM     15  H   UNL     1       3.493   6.108  20.223  0.00  0.00    +0.000 HD
BRANCH  14  16
ATOM     16  C   UNL     1       2.972   4.224  19.745  0.00  0.00    +0.000 A 
ATOM     17  C   UNL     1       3.323   3.091  18.994  0.00  0.00    +0.000 A 
ATOM     18  C   UNL     1       2.347   2.194  18.558  0.00  0.00    +0.000 A 
ATOM     19  C   UNL     1       1.023   2.403  18.913  0.00  0.00    +0.000 A 
ATOM     20  F   UNL     1       0.078   1.566  18.465  0.00  0.00    +0.000 F 
ATOM     21  C   UNL     1       0.662   3.470  19.726  0.00  0.00    +0.000 A 
ATOM     22  C   UNL     1       1.641   4.371  20.160  0.00  0.00    +0.000 A 
ENDBRANCH  14  16
ENDBRANCH   6  14
TORSDOF 4
ENDMDL
MODEL 7
REMARK VINA RESULT:      -7.4      2.026      2.336
REMARK  Name = 
REMARK  5 active torsions:
REMARK  status: ('A' for Active; 'I' for Inactive)
REMARK    1  A    between atoms: C_1  and  C_2
REMARK    2  A    between atoms: C_3  and  C_4
REMARK    3  A    between atoms: N_6  and  N_7
REMARK    4  A    between atoms: N_10  and  N_11
REMARK    5  A    between atoms: N_11  and  C_12
REMARK                            x       y       z     vdW  Elec       q    Type
REMARK                         _______ _______ _______ _____ _____    ______ ____
ROOT
ATOM      1  C   UNL     1       5.047   6.966  17.339  0.00  0.00    +0.000 C 
ATOM      2  C   UNL     1       4.856   5.545  16.974  0.00  0.00    +0.000 A 
ATOM      3  C   UNL     1       5.648   4.635  16.288  0.00  0.00    +0.000 A 
ATOM      4  N   UNL     1       4.964   3.449  16.168  0.00  0.00    +0.000 NA
ATOM      5  N   UNL     1       3.772   3.607  16.712  0.00  0.00    +0.000 NA
ATOM      6  N   UNL     1       3.731   4.825  17.277  0.00  0.00    +0.000 N 
ENDROOT
BRANCH   3   7
ATOM      7  C   UNL     1       6.970   4.810  15.708  0.00  0.00    +0.000 C 
ATOM      8  O   UNL     1       8.015   4.514  16.283  0.00  0.00    +0.000 OA
ATOM      9  N   UNL     1       6.933   5.362  14.430  0.00  0.00    +0.000 N 
ATOM     10  H   UNL     1       6.026   5.510  13.986  0.00  0.00    +0.000 HD
BRANCH   9  11
ATOM     11  N   UNL     1       8.123   5.594  13.705  0.00  0.00    +0.000 NA
ATOM     12  H   UNL     1       8.860   5.021  14.136  0.00  0.00    +0.000 HD
ATOM     13  H   UNL     1       8.415   6.558  13.885  0.00  0.00    +0.000 HD
ENDBRANCH   9  11
ENDBRANCH   3   7
BRANCH   6  14
ATOM     14  N   UNL     1       2.593   5.243  17.935  0.00  0.00    +0.000 N 
ATOM     15  H   UNL     1       1.846   5.314  17.251  0.00  0.00    +0.000 HD
BRANCH  14  16
ATOM     16  C   UNL     1       2.133   4.555  19.092  0.00  0.00    +0.000 A 
ATOM     17  C   UNL     1       2.646   4.838  20.368  0.00  0.00    +0.000 A 
ATOM     18  C   UNL     1       2.253   4.087  21.477  0.00  0.00    +0.000 A 
ATOM     19  C   UNL     1       1.310   3.082  21.320  0.00  0.00    +0.000 A 
ATOM     20  F   UNL     1       0.959   2.334  22.374  0.00  0.00    +0.000 F 
ATOM     21  C   UNL     1       0.726   2.840  20.083  0.00  0.00    +0.000 A 
ATOM     22  C   UNL     1       1.123   3.590  18.971  0.00  0.00    +0.000 A 
ENDBRANCH  14  16
ENDBRANCH   6  14
TORSDOF 4
ENDMDL
MODEL 8
REMARK VINA RESULT:      -7.3      2.048      2.617
REMARK  Name = 
REMARK  5 active torsions:
REMARK  status: ('A' for Active; 'I' for Inactive)
REMARK    1  A    between atoms: C_1  and  C_2
REMARK    2  A    between atoms: C_3  and  C_4
REMARK    3  A    between atoms: N_6  and  N_7
REMARK    4  A    between atoms: N_10  and  N_11
REMARK    5  A    between atoms: N_11  and  C_12
REMARK                            x       y       z     vdW  Elec       q    Type
REMARK                         _______ _______ _______ _____ _____    ______ ____
ROOT
ATOM      1  C   UNL     1       4.062   3.512  16.737  0.00  0.00    +0.000 C 
ATOM      2  C   UNL     1       4.393   4.936  16.961  0.00  0.00    +0.000 A 
ATOM      3  C   UNL     1       5.534   5.687  16.714  0.00  0.00    +0.000 A 
ATOM      4  N   UNL     1       5.333   6.967  17.174  0.00  0.00    +0.000 NA
ATOM      5  N   UNL     1       4.138   7.020  17.730  0.00  0.00    +0.000 NA
ATOM      6  N   UNL     1       3.531   5.839  17.526  0.00  0.00    +0.000 N 
ENDROOT
BRANCH   3   7
ATOM      7  C   UNL     1       6.798   5.283  16.121  0.00  0.00    +0.000 C 
ATOM      8  O   UNL     1       7.696   4.716  16.739  0.00  0.00    +0.000 OA
ATOM      9  N   UNL     1       6.896   5.617  14.772  0.00  0.00    +0.000 N 
ATOM     10  H   UNL     1       6.080   6.017  14.306  0.00  0.00    +0.000 HD
BRANCH   9  11
ATOM     11  N   UNL     1       8.051   5.293  14.026  0.00  0.00    +0.000 NA
ATOM     12  H   UNL     1       7.757   4.665  13.266  0.00  0.00    +0.000 HD
ATOM     13  H   UNL     1       8.650   4.712  14.616  0.00  0.00    +0.000 HD
ENDBRANCH   9  11
ENDBRANCH   3   7
BRANCH   6  14
ATOM     14  N   UNL     1       2.252   5.629  17.995  0.00  0.00    +0.000 N 
ATOM     15  H   UNL     1       1.665   5.389  17.202  0.00  0.00    +0.000 HD
BRANCH  14  16
ATOM     16  C   UNL     1       2.015   4.728  19.070  0.00  0.00    +0.000 A 
ATOM     17  C   UNL     1       1.219   3.582  18.908  0.00  0.00    +0.000 A 
ATOM     18  C   UNL     1       0.918   2.762  19.997  0.00  0.00    +0.000 A 
ATOM     19  C   UNL     1       1.452   3.060  21.242  0.00  0.00    +0.000 A 
ATOM     20  F   UNL     1       1.135   2.299  22.297  0.00  0.00    +0.000 F 
ATOM     21  C   UNL     1       2.310   4.140  21.410  0.00  0.00    +0.000 A 
ATOM     22  C   UNL     1       2.608   4.964  20.319  0.00  0.00    +0.000 A 
ENDBRANCH  14  16
ENDBRANCH   6  14
TORSDOF 4
ENDMDL
MODEL 9
REMARK VINA RESULT:      -7.3      2.440      3.648
REMARK  Name = 
REMARK  5 active torsions:
REMARK  status: ('A' for Active; 'I' for Inactive)
REMARK    1  A    between atoms: C_1  and  C_2
REMARK    2  A    between atoms: C_3  and  C_4
REMARK    3  A    between atoms: N_6  and  N_7
REMARK    4  A    between atoms: N_10  and  N_11
REMARK    5  A    between atoms: N_11  and  C_12
REMARK                            x       y       z     vdW  Elec       q    Type
REMARK                         _______ _______ _______ _____ _____    ______ ____
ROOT
ATOM      1  C   UNL     1       5.452   6.251  15.842  0.00  0.00    +0.000 C 
ATOM      2  C   UNL     1       6.144   5.736  17.045  0.00  0.00    +0.000 A 
ATOM      3  C   UNL     1       7.089   6.290  17.896  0.00  0.00    +0.000 A 
ATOM      4  N   UNL     1       7.450   5.351  18.833  0.00  0.00    +0.000 NA
ATOM      5  N   UNL     1       6.800   4.234  18.566  0.00  0.00    +0.000 NA
ATOM      6  N   UNL     1       5.949   4.480  17.556  0.00  0.00    +0.000 N 
ENDROOT
BRANCH   3   7
ATOM      7  C   UNL     1       7.700   7.609  17.870  0.00  0.00    +0.000 C 
ATOM      8  O   UNL     1       7.542   8.420  16.961  0.00  0.00    +0.000 OA
ATOM      9  N   UNL     1       8.499   7.859  18.984  0.00  0.00    +0.000 N 
ATOM     10  H   UNL     1       8.521   7.169  19.736  0.00  0.00    +0.000 HD
BRANCH   9  11
ATOM     11  N   UNL     1       9.166   9.095  19.136  0.00  0.00    +0.000 NA
ATOM     12  H   UNL     1       8.931   9.455  20.070  0.00  0.00    +0.000 HD
ATOM     13  H   UNL     1       8.734   9.763  18.492  0.00  0.00    +0.000 HD
ENDBRANCH   9  11
ENDBRANCH   3   7
BRANCH   6  14
ATOM     14  N   UNL     1       5.128   3.478  17.085  0.00  0.00    +0.000 N 
ATOM     15  H   UNL     1       5.666   2.617  17.069  0.00  0.00    +0.000 HD
BRANCH  14  16
ATOM     16  C   UNL     1       3.855   3.248  17.676  0.00  0.00    +0.000 A 
ATOM     17  C   UNL     1       3.601   2.109  18.456  0.00  0.00    +0.000 A 
ATOM     18  C   UNL     1       2.320   1.851  18.948  0.00  0.00    +0.000 A 
ATOM     19  C   UNL     1       1.300   2.758  18.699  0.00  0.00    +0.000 A 
ATOM     20  F   UNL     1       0.062   2.497  19.135  0.00  0.00    +0.000 F 
ATOM     21  C   UNL     1       1.546   3.934  18.002  0.00  0.00    +0.000 A 
ATOM     22  C   UNL     1       2.829   4.190  17.506  0.00  0.00    +0.000 A 
ENDBRANCH  14  16
ENDBRANCH   6  14
TORSDOF 4
ENDMDL
