MODEL 1
REMARK VINA RESULT:      -7.6      0.000      0.000
REMARK  Name = 
REMARK  4 active torsions:
REMARK  status: ('A' for Active; 'I' for Inactive)
REMARK    1  A    between atoms: C_1  and  C_2
REMARK    2  A    between atoms: N_12  and  C_13
REMARK    3  A    between atoms: C_13  and  C_14
REMARK    4  A    between atoms: C_17  and  N_18
REMARK                            x       y       z     vdW  Elec       q    Type
REMARK                         _______ _______ _______ _____ _____    ______ ____
ROOT
ATOM      1  C   UNL     1       1.109   3.470  18.351  0.00  0.00    +0.000 C 
ATOM      2  C   UNL     1       2.512   3.793  17.977  0.00  0.00    +0.000 A 
ATOM      3  C   UNL     1       3.217   3.406  16.845  0.00  0.00    +0.000 A 
ATOM      4  C   UNL     1       4.501   3.943  16.971  0.00  0.00    +0.000 A 
ATOM      5  N   UNL     1       5.542   3.844  16.048  0.00  0.00    +0.000 NA
ATOM      6  C   UNL     1       6.636   4.449  16.415  0.00  0.00    +0.000 A 
ATOM      7  N   UNL     1       7.699   4.474  15.571  0.00  0.00    +0.000 N 
ATOM      8  N   UNL     1       6.815   5.080  17.622  0.00  0.00    +0.000 N 
ATOM      9  C   UNL     1       5.839   5.175  18.587  0.00  0.00    +0.000 A 
ATOM     10  O   UNL     1       6.059   5.704  19.674  0.00  0.00    +0.000 OA
ATOM     11  C   UNL     1       4.604   4.600  18.165  0.00  0.00    +0.000 A 
ATOM     12  N   UNL     1       3.355   4.588  18.747  0.00  0.00    +0.000 N 
ATOM     13  H   UNL     1       7.610   3.811  14.808  0.00  0.00    +0.000 HD
ATOM     14  H   UNL     1       8.627   4.533  15.960  0.00  0.00    +0.000 HD
ATOM     15  H   UNL     1       7.694   5.514  17.838  0.00  0.00    +0.000 HD
ENDROOT
BRANCH  12  16
ATOM     16  C   UNL     1       2.989   5.253  19.996  0.00  0.00    +0.000 C 
BRANCH  16  17
ATOM     17  C   UNL     1       2.462   6.663  19.802  0.00  0.00    +0.000 A 
ATOM     18  C   UNL     1       2.585   7.299  18.554  0.00  0.00    +0.000 A 
ATOM     19  C   UNL     1       1.971   8.534  18.313  0.00  0.00    +0.000 A 
ATOM     20  C   UNL     1       1.232   9.146  19.331  0.00  0.00    +0.000 A 
ATOM     21  C   UNL     1       1.143   8.556  20.595  0.00  0.00    +0.000 A 
ATOM     22  C   UNL     1       1.758   7.321  20.825  0.00  0.00    +0.000 A 
BRANCH  20  23
ATOM     23  N   UNL     1       0.505  10.393  19.055  0.00  0.00    +0.000 N 
ATOM     24  O   UNL     1       0.779  11.386  19.743  0.00  0.00    +0.000 OA
ATOM     25  O   UNL     1      -0.329  10.384  18.136  0.00  0.00    +0.000 OA
ENDBRANCH  20  23
ENDBRANCH  16  17
ENDBRANCH  12  16
TORSDOF 3
ENDMDL
MODEL 2
REMARK VINA RESULT:      -7.5      0.296      1.253
REMARK  Name = 
REMARK  4 active torsions:
REMARK  status: ('A' for Active; 'I' for Inactive)
REMARK    1  A    between atoms: C_1  and  C_2
REMARK    2  A    between atoms: N_12  and  C_13
REMARK    3  A    between atoms: C_13  and  C_14
REMARK    4  A    between atoms: C_17  and  N_18
REMARK                            x       y       z     vdW  Elec       q    Type
REMARK                         _______ _______ _______ _____ _____    ______ ____
ROOT
ATOM      1  C   UNL     1       1.140   3.605  18.299  0.00  0.00    +0.000 C 
ATOM      2  C   UNL     1       2.550   3.905  17.933  0.00  0.00    +0.000 A 
ATOM      3  C   UNL     1       3.248   3.523  16.797  0.00  0.00    +0.000 A 
ATOM      4  C   UNL     1       4.543   4.031  16.933  0.00  0.00    +0.000 A 
ATOM      5  N   UNL     1       5.583   3.927  16.010  0.00  0.00    +0.000 NA
ATOM      6  C   UNL     1       6.690   4.502  16.389  0.00  0.00    +0.000 A 
ATOM      7  N   UNL     1       7.755   4.519  15.548  0.00  0.00    +0.000 N 
ATOM      8  N   UNL     1       6.879   5.108  17.607  0.00  0.00    +0.000 N 
ATOM      9  C   UNL     1       5.904   5.208  18.572  0.00  0.00    +0.000 A 
ATOM     10  O   UNL     1       6.133   5.713  19.668  0.00  0.00    +0.000 OA
ATOM     11  C   UNL     1       4.658   4.665  18.139  0.00  0.00    +0.000 A 
ATOM     12  N   UNL     1       3.407   4.670  18.718  0.00  0.00    +0.000 N 
ATOM     13  H   UNL     1       7.653   3.871  14.773  0.00  0.00    +0.000 HD
ATOM     14  H   UNL     1       8.683   4.552  15.939  0.00  0.00    +0.000 HD
ATOM     15  H   UNL     1       7.766   5.521  17.832  0.00  0.00    +0.000 HD
ENDROOT
BRANCH  12  16
ATOM     16  C   UNL     1       3.053   5.320  19.978  0.00  0.00    +0.000 C 
BRANCH  16  17
ATOM     17  C   UNL     1       2.338   6.646  19.797  0.00  0.00    +0.000 A 
ATOM     18  C   UNL     1       1.619   7.214  20.864  0.00  0.00    +0.000 A 
ATOM     19  C   UNL     1       1.084   8.504  20.764  0.00  0.00    +0.000 A 
ATOM     20  C   UNL     1       1.262   9.235  19.584  0.00  0.00    +0.000 A 
ATOM     21  C   UNL     1       1.927   8.667  18.494  0.00  0.00    +0.000 A 
ATOM     22  C   UNL     1       2.460   7.379  18.604  0.00  0.00    +0.000 A 
BRANCH  20  23
ATOM     23  N   UNL     1       0.789  10.624  19.509  0.00  0.00    +0.000 N 
ATOM     24  O   UNL     1       0.091  10.945  18.536  0.00  0.00    +0.000 OA
ATOM     25  O   UNL     1       1.102  11.392  20.432  0.00  0.00    +0.000 OA
ENDBRANCH  20  23
ENDBRANCH  16  17
ENDBRANCH  12  16
TORSDOF 3
ENDMDL
MODEL 3
REMARK VINA RESULT:      -7.5      1.116      1.662
REMARK  Name = 
REMARK  4 active torsions:
REMARK  status: ('A' for Active; 'I' for Inactive)
REMARK    1  A    between atoms: C_1  and  C_2
REMARK    2  A    between atoms: N_12  and  C_13
REMARK    3  A    between atoms: C_13  and  C_14
REMARK    4  A    between atoms: C_17  and  N_18
REMARK                            x       y       z     vdW  Elec       q    Type
REMARK                         _______ _______ _______ _____ _____    ______ ____
ROOT
ATOM      1  C   UNL     1       2.362   3.158  18.311  0.00  0.00    +0.000 C 
ATOM      2  C   UNL     1       3.533   3.735  17.599  0.00  0.00    +0.000 A 
ATOM      3  C   UNL     1       4.082   3.351  16.384  0.00  0.00    +0.000 A 
ATOM      4  C   UNL     1       5.182   4.184  16.160  0.00  0.00    +0.000 A 
ATOM      5  N   UNL     1       6.014   4.187  15.040  0.00  0.00    +0.000 NA
ATOM      6  C   UNL     1       6.962   5.079  15.086  0.00  0.00    +0.000 A 
ATOM      7  N   UNL     1       7.799   5.218  14.027  0.00  0.00    +0.000 N 
ATOM      8  N   UNL     1       7.201   5.914  16.150  0.00  0.00    +0.000 N 
ATOM      9  C   UNL     1       6.439   5.930  17.296  0.00  0.00    +0.000 A 
ATOM     10  O   UNL     1       6.719   6.658  18.245  0.00  0.00    +0.000 OA
ATOM     11  C   UNL     1       5.339   5.025  17.226  0.00  0.00    +0.000 A 
ATOM     12  N   UNL     1       4.272   4.814  18.072  0.00  0.00    +0.000 N 
ATOM     13  H   UNL     1       7.740   4.441  13.376  0.00  0.00    +0.000 HD
ATOM     14  H   UNL     1       8.737   5.550  14.188  0.00  0.00    +0.000 HD
ATOM     15  H   UNL     1       7.961   6.569  16.117  0.00  0.00    +0.000 HD
ENDROOT
BRANCH  12  16
ATOM     16  C   UNL     1       3.994   5.563  19.297  0.00  0.00    +0.000 C 
BRANCH  16  17
ATOM     17  C   UNL     1       3.036   6.722  19.096  0.00  0.00    +0.000 A 
ATOM     18  C   UNL     1       2.206   7.145  20.150  0.00  0.00    +0.000 A 
ATOM     19  C   UNL     1       1.430   8.305  20.033  0.00  0.00    +0.000 A 
ATOM     20  C   UNL     1       1.478   9.049  18.849  0.00  0.00    +0.000 A 
ATOM     21  C   UNL     1       2.255   8.616  17.771  0.00  0.00    +0.000 A 
ATOM     22  C   UNL     1       3.028   7.457  17.899  0.00  0.00    +0.000 A 
BRANCH  20  23
ATOM     23  N   UNL     1       0.743  10.318  18.756  0.00  0.00    +0.000 N 
ATOM     24  O   UNL     1      -0.462  10.269  18.469  0.00  0.00    +0.000 OA
ATOM     25  O   UNL     1       1.367  11.365  18.987  0.00  0.00    +0.000 OA
ENDBRANCH  20  23
ENDBRANCH  16  17
ENDBRANCH  12  16
TORSDOF 3
ENDMDL
MODEL 4
REMARK VINA RESULT:      -7.5      3.858      6.850
REMARK  Name = 
REMARK  4 active torsions:
REMARK  status: ('A' for Active; 'I' for Inactive)
REMARK    1  A    between atoms: C_1  and  C_2
REMARK    2  A    between atoms: N_12  and  C_13
REMARK    3  A    between atoms: C_13  and  C_14
REMARK    4  A    between atoms: C_17  and  N_18
REMARK                            x       y       z     vdW  Elec       q    Type
REMARK                         _______ _______ _______ _____ _____    ______ ____
ROOT
ATOM      1  C   UNL     1       4.338   7.302  17.355  0.00  0.00    +0.000 C 
ATOM      2  C   UNL     1       3.808   6.210  18.215  0.00  0.00    +0.000 A 
ATOM      3  C   UNL     1       2.559   6.107  18.810  0.00  0.00    +0.000 A 
ATOM      4  C   UNL     1       2.558   4.911  19.534  0.00  0.00    +0.000 A 
ATOM      5  N   UNL     1       1.495   4.376  20.262  0.00  0.00    +0.000 NA
ATOM      6  C   UNL     1       1.765   3.237  20.836  0.00  0.00    +0.000 A 
ATOM      7  N   UNL     1       0.790   2.589  21.523  0.00  0.00    +0.000 N 
ATOM      8  N   UNL     1       2.991   2.618  20.809  0.00  0.00    +0.000 N 
ATOM      9  C   UNL     1       4.086   3.117  20.142  0.00  0.00    +0.000 A 
ATOM     10  O   UNL     1       5.178   2.556  20.187  0.00  0.00    +0.000 OA
ATOM     11  C   UNL     1       3.784   4.316  19.430  0.00  0.00    +0.000 A 
ATOM     12  N   UNL     1       4.527   5.066  18.544  0.00  0.00    +0.000 N 
ATOM     13  H   UNL     1      -0.013   3.179  21.713  0.00  0.00    +0.000 HD
ATOM     14  H   UNL     1       1.052   1.988  22.288  0.00  0.00    +0.000 HD
ATOM     15  H   UNL     1       3.126   1.745  21.287  0.00  0.00    +0.000 HD
ENDROOT
BRANCH  12  16
ATOM     16  C   UNL     1       5.873   4.743  18.073  0.00  0.00    +0.000 C 
BRANCH  16  17
ATOM     17  C   UNL     1       5.973   4.611  16.565  0.00  0.00    +0.000 A 
ATOM     18  C   UNL     1       7.118   5.071  15.889  0.00  0.00    +0.000 A 
ATOM     19  C   UNL     1       7.295   4.820  14.523  0.00  0.00    +0.000 A 
ATOM     20  C   UNL     1       6.317   4.107  13.821  0.00  0.00    +0.000 A 
ATOM     21  C   UNL     1       5.148   3.688  14.463  0.00  0.00    +0.000 A 
ATOM     22  C   UNL     1       4.981   3.942  15.828  0.00  0.00    +0.000 A 
BRANCH  20  23
ATOM     23  N   UNL     1       6.542   3.755  12.411  0.00  0.00    +0.000 N 
ATOM     24  O   UNL     1       5.891   2.811  11.941  0.00  0.00    +0.000 OA
ATOM     25  O   UNL     1       7.359   4.434  11.770  0.00  0.00    +0.000 OA
ENDBRANCH  20  23
ENDBRANCH  16  17
ENDBRANCH  12  16
TORSDOF 3
ENDMDL
MODEL 5
REMARK VINA RESULT:      -7.4      3.772      6.818
REMARK  Name = 
REMARK  4 active torsions:
REMARK  status: ('A' for Active; 'I' for Inactive)
REMARK    1  A    between atoms: C_1  and  C_2
REMARK    2  A    between atoms: N_12  and  C_13
REMARK    3  A    between atoms: C_13  and  C_14
REMARK    4  A    between atoms: C_17  and  N_18
REMARK                            x       y       z     vdW  Elec       q    Type
REMARK                         _______ _______ _______ _____ _____    ______ ____
ROOT
ATOM      1  C   UNL     1       4.383   7.564  17.168  0.00  0.00    +0.000 C 
ATOM      2  C   UNL     1       3.826   6.443  17.973  0.00  0.00    +0.000 A 
ATOM      3  C   UNL     1       2.534   6.282  18.452  0.00  0.00    +0.000 A 
ATOM      4  C   UNL     1       2.520   5.082  19.169  0.00  0.00    +0.000 A 
ATOM      5  N   UNL     1       1.421   4.495  19.795  0.00  0.00    +0.000 NA
ATOM      6  C   UNL     1       1.687   3.366  20.387  0.00  0.00    +0.000 A 
ATOM      7  N   UNL     1       0.684   2.670  20.980  0.00  0.00    +0.000 N 
ATOM      8  N   UNL     1       2.937   2.801  20.471  0.00  0.00    +0.000 N 
ATOM      9  C   UNL     1       4.064   3.352  19.907  0.00  0.00    +0.000 A 
ATOM     10  O   UNL     1       5.172   2.839  20.050  0.00  0.00    +0.000 OA
ATOM     11  C   UNL     1       3.776   4.542  19.175  0.00  0.00    +0.000 A 
ATOM     12  N   UNL     1       4.563   5.330  18.363  0.00  0.00    +0.000 N 
ATOM     13  H   UNL     1      -0.159   3.223  21.099  0.00  0.00    +0.000 HD
ATOM     14  H   UNL     1       0.901   2.076  21.765  0.00  0.00    +0.000 HD
ATOM     15  H   UNL     1       3.066   1.932  20.955  0.00  0.00    +0.000 HD
ENDROOT
BRANCH  12  16
ATOM     16  C   UNL     1       5.959   5.070  18.015  0.00  0.00    +0.000 C 
BRANCH  16  17
ATOM     17  C   UNL     1       6.153   4.620  16.579  0.00  0.00    +0.000 A 
ATOM     18  C   UNL     1       5.262   3.700  15.998  0.00  0.00    +0.000 A 
ATOM     19  C   UNL     1       5.334   3.392  14.635  0.00  0.00    +0.000 A 
ATOM     20  C   UNL     1       6.310   4.004  13.841  0.00  0.00    +0.000 A 
ATOM     21  C   UNL     1       7.239   4.880  14.410  0.00  0.00    +0.000 A 
ATOM     22  C   UNL     1       7.157   5.183  15.773  0.00  0.00    +0.000 A 
BRANCH  20  23
ATOM     23  N   UNL     1       6.329   3.761  12.391  0.00  0.00    +0.000 N 
ATOM     24  O   UNL     1       5.375   3.143  11.897  0.00  0.00    +0.000 OA
ATOM     25  O   UNL     1       7.291   4.203  11.744  0.00  0.00    +0.000 OA
ENDBRANCH  20  23
ENDBRANCH  16  17
ENDBRANCH  12  16
TORSDOF 3
ENDMDL
MODEL 6
REMARK VINA RESULT:      -7.3      1.090      1.114
REMARK  Name = 
REMARK  4 active torsions:
REMARK  status: ('A' for Active; 'I' for Inactive)
REMARK    1  A    between atoms: C_1  and  C_2
REMARK    2  A    between atoms: N_12  and  C_13
REMARK    3  A    between atoms: C_13  and  C_14
REMARK    4  A    between atoms: C_17  and  N_18
REMARK                            x       y       z     vdW  Elec       q    Type
REMARK                         _______ _______ _______ _____ _____    ______ ____
ROOT
ATOM      1  C   UNL     1       2.193   3.233  18.218  0.00  0.00    +0.000 C 
ATOM      2  C   UNL     1       3.402   3.795  17.559  0.00  0.00    +0.000 A 
ATOM      3  C   UNL     1       3.966   3.442  16.341  0.00  0.00    +0.000 A 
ATOM      4  C   UNL     1       5.100   4.242  16.179  0.00  0.00    +0.000 A 
ATOM      5  N   UNL     1       5.959   4.261  15.080  0.00  0.00    +0.000 NA
ATOM      6  C   UNL     1       6.939   5.114  15.187  0.00  0.00    +0.000 A 
ATOM      7  N   UNL     1       7.806   5.266  14.154  0.00  0.00    +0.000 N 
ATOM      8  N   UNL     1       7.181   5.894  16.291  0.00  0.00    +0.000 N 
ATOM      9  C   UNL     1       6.392   5.890  17.418  0.00  0.00    +0.000 A 
ATOM     10  O   UNL     1       6.675   6.567  18.403  0.00  0.00    +0.000 OA
ATOM     11  C   UNL     1       5.262   5.031  17.283  0.00  0.00    +0.000 A 
ATOM     12  N   UNL     1       4.167   4.825  18.095  0.00  0.00    +0.000 N 
ATOM     13  H   UNL     1       7.735   4.520  13.469  0.00  0.00    +0.000 HD
ATOM     14  H   UNL     1       8.751   5.556  14.350  0.00  0.00    +0.000 HD
ATOM     15  H   UNL     1       7.965   6.521  16.303  0.00  0.00    +0.000 HD
ENDROOT
BRANCH  12  16
ATOM     16  C   UNL     1       3.886   5.531  19.344  0.00  0.00    +0.000 C 
BRANCH  16  17
ATOM     17  C   UNL     1       3.098   6.813  19.153  0.00  0.00    +0.000 A 
ATOM     18  C   UNL     1       3.144   7.496  17.924  0.00  0.00    +0.000 A 
ATOM     19  C   UNL     1       2.307   8.591  17.678  0.00  0.00    +0.000 A 
ATOM     20  C   UNL     1       1.418   9.015  18.672  0.00  0.00    +0.000 A 
ATOM     21  C   UNL     1       1.395   8.384  19.918  0.00  0.00    +0.000 A 
ATOM     22  C   UNL     1       2.234   7.289  20.153  0.00  0.00    +0.000 A 
BRANCH  20  23
ATOM     23  N   UNL     1       0.469  10.100  18.385  0.00  0.00    +0.000 N 
ATOM     24  O   UNL     1       0.776  11.246  18.745  0.00  0.00    +0.000 OA
ATOM     25  O   UNL     1      -0.578   9.809  17.785  0.00  0.00    +0.000 OA
ENDBRANCH  20  23
ENDBRANCH  16  17
ENDBRANCH  12  16
TORSDOF 3
ENDMDL
MODEL 7
REMARK VINA RESULT:      -7.1      0.842      1.332
REMARK  Name = 
REMARK  4 active torsions:
REMARK  status: ('A' for Active; 'I' for Inactive)
REMARK    1  A    between atoms: C_1  and  C_2
REMARK    2  A    between atoms: N_12  and  C_13
REMARK    3  A    between atoms: C_13  and  C_14
REMARK    4  A    between atoms: C_17  and  N_18
REMARK                            x       y       z     vdW  Elec       q    Type
REMARK                         _______ _______ _______ _____ _____    ______ ____
ROOT
ATOM      1  C   UNL     1       1.461   3.644  19.073  0.00  0.00    +0.000 C 
ATOM      2  C   UNL     1       2.652   3.987  18.250  0.00  0.00    +0.000 A 
ATOM      3  C   UNL     1       3.092   3.393  17.076  0.00  0.00    +0.000 A 
ATOM      4  C   UNL     1       4.264   4.057  16.706  0.00  0.00    +0.000 A 
ATOM      5  N   UNL     1       5.034   3.824  15.567  0.00  0.00    +0.000 NA
ATOM      6  C   UNL     1       6.077   4.598  15.462  0.00  0.00    +0.000 A 
ATOM      7  N   UNL     1       6.869   4.505  14.364  0.00  0.00    +0.000 N 
ATOM      8  N   UNL     1       6.461   5.525  16.400  0.00  0.00    +0.000 N 
ATOM      9  C   UNL     1       5.765   5.772  17.561  0.00  0.00    +0.000 A 
ATOM     10  O   UNL     1       6.172   6.575  18.396  0.00  0.00    +0.000 OA
ATOM     11  C   UNL     1       4.569   5.000  17.648  0.00  0.00    +0.000 A 
ATOM     12  N   UNL     1       3.529   5.023  18.553  0.00  0.00    +0.000 N 
ATOM     13  H   UNL     1       6.690   3.666  13.821  0.00  0.00    +0.000 HD
ATOM     14  H   UNL     1       7.845   4.743  14.446  0.00  0.00    +0.000 HD
ATOM     15  H   UNL     1       7.286   6.078  16.254  0.00  0.00    +0.000 HD
ENDROOT
BRANCH  12  16
ATOM     16  C   UNL     1       3.399   5.945  19.680  0.00  0.00    +0.000 C 
BRANCH  16  17
ATOM     17  C   UNL     1       2.511   7.140  19.387  0.00  0.00    +0.000 A 
ATOM     18  C   UNL     1       1.777   7.747  20.423  0.00  0.00    +0.000 A 
ATOM     19  C   UNL     1       1.076   8.939  20.204  0.00  0.00    +0.000 A 
ATOM     20  C   UNL     1       1.101   9.530  18.936  0.00  0.00    +0.000 A 
ATOM     21  C   UNL     1       1.780   8.914  17.880  0.00  0.00    +0.000 A 
ATOM     22  C   UNL     1       2.479   7.724  18.110  0.00  0.00    +0.000 A 
BRANCH  20  23
ATOM     23  N   UNL     1       0.450  10.831  18.725  0.00  0.00    +0.000 N 
ATOM     24  O   UNL     1       1.089  11.851  19.017  0.00  0.00    +0.000 OA
ATOM     25  O   UNL     1      -0.697  10.832  18.250  0.00  0.00    +0.000 OA
ENDBRANCH  20  23
ENDBRANCH  16  17
ENDBRANCH  12  16
TORSDOF 3
ENDMDL
MODEL 8
REMARK VINA RESULT:      -7.1      0.818      1.033
REMARK  Name = 
REMARK  4 active torsions:
REMARK  status: ('A' for Active; 'I' for Inactive)
REMARK    1  A    between atoms: C_1  and  C_2
REMARK    2  A    between atoms: N_12  and  C_13
REMARK    3  A    between atoms: C_13  and  C_14
REMARK    4  A    between atoms: C_17  and  N_18
REMARK                            x       y       z     vdW  Elec       q    Type
REMARK                         _______ _______ _______ _____ _____    ______ ____
ROOT
ATOM      1  C   UNL     1       0.972   3.682  19.326  0.00  0.00    +0.000 C 
ATOM      2  C   UNL     1       2.209   3.861  18.519  0.00  0.00    +0.000 A 
ATOM      3  C   UNL     1       2.588   3.199  17.360  0.00  0.00    +0.000 A 
ATOM      4  C   UNL     1       3.840   3.706  17.001  0.00  0.00    +0.000 A 
ATOM      5  N   UNL     1       4.591   3.361  15.878  0.00  0.00    +0.000 NA
ATOM      6  C   UNL     1       5.725   3.997  15.781  0.00  0.00    +0.000 A 
ATOM      7  N   UNL     1       6.515   3.790  14.697  0.00  0.00    +0.000 N 
ATOM      8  N   UNL     1       6.207   4.884  16.712  0.00  0.00    +0.000 N 
ATOM      9  C   UNL     1       5.530   5.234  17.858  0.00  0.00    +0.000 A 
ATOM     10  O   UNL     1       6.021   5.993  18.689  0.00  0.00    +0.000 OA
ATOM     11  C   UNL     1       4.245   4.619  17.935  0.00  0.00    +0.000 A 
ATOM     12  N   UNL     1       3.203   4.785  18.822  0.00  0.00    +0.000 N 
ATOM     13  H   UNL     1       6.242   2.971  14.164  0.00  0.00    +0.000 HD
ATOM     14  H   UNL     1       7.512   3.906  14.793  0.00  0.00    +0.000 HD
ATOM     15  H   UNL     1       7.097   5.328  16.573  0.00  0.00    +0.000 HD
ENDROOT
BRANCH  12  16
ATOM     16  C   UNL     1       3.172   5.734  19.934  0.00  0.00    +0.000 C 
BRANCH  16  17
ATOM     17  C   UNL     1       2.515   7.056  19.586  0.00  0.00    +0.000 A 
ATOM     18  C   UNL     1       2.571   7.549  18.269  0.00  0.00    +0.000 A 
ATOM     19  C   UNL     1       1.843   8.685  17.896  0.00  0.00    +0.000 A 
ATOM     20  C   UNL     1       1.055   9.342  18.847  0.00  0.00    +0.000 A 
ATOM     21  C   UNL     1       1.029   8.899  20.173  0.00  0.00    +0.000 A 
ATOM     22  C   UNL     1       1.758   7.762  20.535  0.00  0.00    +0.000 A 
BRANCH  20  23
ATOM     23  N   UNL     1       0.212  10.475  18.439  0.00  0.00    +0.000 N 
ATOM     24  O   UNL     1      -0.858  10.223  17.868  0.00  0.00    +0.000 OA
ATOM     25  O   UNL     1       0.614  11.619  18.706  0.00  0.00    +0.000 OA
ENDBRANCH  20  23
ENDBRANCH  16  17
ENDBRANCH  12  16
TORSDOF 3
ENDMDL
MODEL 9
REMARK VINA RESULT:      -6.8      3.559      6.142
REMARK  Name = 
REMARK  4 active torsions:
REMARK  status: ('A' for Active; 'I' for Inactive)
REMARK    1  A    between atoms: C_1  and  C_2
REMARK    2  A    between atoms: N_12  and  C_13
REMARK    3  A    between atoms: C_13  and  C_14
REMARK    4  A    between atoms: C_17  and  N_18
REMARK                            x       y       z     vdW  Elec       q    Type
REMARK                         _______ _______ _______ _____ _____    ______ ____
ROOT
ATOM      1  C   UNL     1      -0.286  10.298  22.434  0.00  0.00    +0.000 C 
ATOM      2  C   UNL     1       0.447   9.503  21.413  0.00  0.00    +0.000 A 
ATOM      3  C   UNL     1       1.014   8.243  21.541  0.00  0.00    +0.000 A 
ATOM      4  C   UNL     1       1.607   7.944  20.311  0.00  0.00    +0.000 A 
ATOM      5  N   UNL     1       2.262   6.763  19.964  0.00  0.00    +0.000 NA
ATOM      6  C   UNL     1       2.715   6.746  18.743  0.00  0.00    +0.000 A 
ATOM      7  N   UNL     1       3.318   5.625  18.271  0.00  0.00    +0.000 N 
ATOM      8  N   UNL     1       2.637   7.799  17.864  0.00  0.00    +0.000 N 
ATOM      9  C   UNL     1       2.039   9.001  18.162  0.00  0.00    +0.000 A 
ATOM     10  O   UNL     1       2.038   9.934  17.363  0.00  0.00    +0.000 OA
ATOM     11  C   UNL     1       1.455   9.006  19.463  0.00  0.00    +0.000 A 
ATOM     12  N   UNL     1       0.662   9.931  20.107  0.00  0.00    +0.000 N 
ATOM     13  H   UNL     1       3.561   4.970  19.008  0.00  0.00    +0.000 HD
ATOM     14  H   UNL     1       4.019   5.715  17.552  0.00  0.00    +0.000 HD
ATOM     15  H   UNL     1       3.021   7.714  16.940  0.00  0.00    +0.000 HD
ENDROOT
BRANCH  12  16
ATOM     16  C   UNL     1       0.175  11.184  19.532  0.00  0.00    +0.000 C 
BRANCH  16  17
ATOM     17  C   UNL     1      -1.291  11.145  19.145  0.00  0.00    +0.000 A 
ATOM     18  C   UNL     1      -2.199  12.055  19.717  0.00  0.00    +0.000 A 
ATOM     19  C   UNL     1      -3.520  12.136  19.261  0.00  0.00    +0.000 A 
ATOM     20  C   UNL     1      -3.944  11.295  18.225  0.00  0.00    +0.000 A 
ATOM     21  C   UNL     1      -3.072  10.348  17.680  0.00  0.00    +0.000 A 
ATOM     22  C   UNL     1      -1.754  10.277  18.142  0.00  0.00    +0.000 A 
BRANCH  20  23
ATOM     23  N   UNL     1      -5.299  11.443  17.675  0.00  0.00    +0.000 N 
ATOM     24  O   UNL     1      -6.201  10.749  18.167  0.00  0.00    +0.000 OA
ATOM     25  O   UNL     1      -5.465  12.266  16.762  0.00  0.00    +0.000 OA
ENDBRANCH  20  23
ENDBRANCH  16  17
ENDBRANCH  12  16
TORSDOF 3
ENDMDL
