MODEL 1
REMARK VINA RESULT:      -7.4      0.000      0.000
REMARK  Name = 
REMARK  12 active torsions:
REMARK  status: ('A' for Active; 'I' for Inactive)
REMARK    1  A    between atoms: C_1  and  O_2
REMARK    2  A    between atoms: O_2  and  C_3
REMARK    3  A    between atoms: C_5  and  C_6
REMARK    4  A    between atoms: N_8  and  C_9
REMARK    5  A    between atoms: C_9  and  C_10
REMARK    6  A    between atoms: C_10  and  C_11
REMARK    7  A    between atoms: C_17  and  N_18
REMARK    8  A    between atoms: N_18  and  C_19
REMARK    9  A    between atoms: N_18  and  S_20
REMARK   10  A    between atoms: S_20  and  C_21
REMARK   11  A    between atoms: C_25  and  O_26
REMARK   12  A    between atoms: O_26  and  C_27
REMARK                            x       y       z     vdW  Elec       q    Type
REMARK                         _______ _______ _______ _____ _____    ______ ____
ROOT
ATOM      1  C   UNL     1       5.580   6.492  16.956  0.00  0.00    +0.000 A 
ATOM      2  C   UNL     1       4.496   7.100  17.597  0.00  0.00    +0.000 A 
ATOM      3  C   UNL     1       3.452   6.353  18.189  0.00  0.00    +0.000 A 
ATOM      4  C   UNL     1       3.384   4.969  17.983  0.00  0.00    +0.000 A 
ATOM      5  C   UNL     1       4.455   4.368  17.308  0.00  0.00    +0.000 A 
ATOM      6  C   UNL     1       5.548   5.098  16.803  0.00  0.00    +0.000 A 
ENDROOT
BRANCH   3   7
ATOM      7  C   UNL     1       2.550   7.167  19.044  0.00  0.00    +0.000 C 
ATOM      8  O   UNL     1       2.290   6.775  20.171  0.00  0.00    +0.000 OA
ATOM      9  N   UNL     1       2.091   8.357  18.531  0.00  0.00    +0.000 N 
ATOM     10  H   UNL     1       2.238   8.546  17.551  0.00  0.00    +0.000 HD
BRANCH   9  11
ATOM     11  C   UNL     1       1.152   9.177  19.273  0.00  0.00    +0.000 C 
BRANCH  11  12
ATOM     12  C   UNL     1       0.795  10.476  18.539  0.00  0.00    +0.000 C 
BRANCH  12  13
ATOM     13  C   UNL     1      -0.695  10.633  18.391  0.00  0.00    +0.000 A 
ATOM     14  C   UNL     1      -1.391   9.898  17.421  0.00  0.00    +0.000 A 
ATOM     15  C   UNL     1      -2.755  10.108  17.223  0.00  0.00    +0.000 A 
ATOM     16  C   UNL     1      -3.433  11.051  17.994  0.00  0.00    +0.000 A 
ATOM     17  C   UNL     1      -2.753  11.768  18.978  0.00  0.00    +0.000 A 
ATOM     18  C   UNL     1      -1.390  11.558  19.179  0.00  0.00    +0.000 A 
ENDBRANCH  12  13
ENDBRANCH  11  12
ENDBRANCH   9  11
ENDBRANCH   3   7
BRANCH   1  20
ATOM     19  C   UNL     1       7.569   7.657  17.504  0.00  0.00    +0.000 C 
ATOM     20  O   UNL     1       6.630   7.243  16.498  0.00  0.00    +0.000 OA
ENDBRANCH   1  20
BRANCH   4  21
ATOM     21  N   UNL     1       2.278   4.143  18.421  0.00  0.00    +0.000 N 
ATOM     22  C   UNL     1       1.122   3.949  17.523  0.00  0.00    +0.000 C 
BRANCH  21  23
ATOM     23  S   UNL     1       2.538   2.908  19.558  0.00  0.00    +0.000 S 
ATOM     24  C   UNL     1       1.193   3.112  20.722  0.00  0.00    +0.000 C 
ATOM     25  O   UNL     1       2.381   1.628  18.907  0.00  0.00    +0.000 OA
ATOM     26  O   UNL     1       3.764   3.252  20.259  0.00  0.00    +0.000 OA
ENDBRANCH  21  23
ENDBRANCH   4  21
BRANCH   6  27
ATOM     27  O   UNL     1       6.467   4.259  16.231  0.00  0.00    +0.000 OA
ATOM     28  C   UNL     1       6.514   4.056  14.830  0.00  0.00    +0.000 C 
ENDBRANCH   6  27
TORSDOF 8
ENDMDL
MODEL 2
REMARK VINA RESULT:      -7.4      3.756      8.150
REMARK  Name = 
REMARK  12 active torsions:
REMARK  status: ('A' for Active; 'I' for Inactive)
REMARK    1  A    between atoms: C_1  and  O_2
REMARK    2  A    between atoms: O_2  and  C_3
REMARK    3  A    between atoms: C_5  and  C_6
REMARK    4  A    between atoms: N_8  and  C_9
REMARK    5  A    between atoms: C_9  and  C_10
REMARK    6  A    between atoms: C_10  and  C_11
REMARK    7  A    between atoms: C_17  and  N_18
REMARK    8  A    between atoms: N_18  and  C_19
REMARK    9  A    between atoms: N_18  and  S_20
REMARK   10  A    between atoms: S_20  and  C_21
REMARK   11  A    between atoms: C_25  and  O_26
REMARK   12  A    between atoms: O_26  and  C_27
REMARK                            x       y       z     vdW  Elec       q    Type
REMARK                         _______ _______ _______ _____ _____    ______ ____
ROOT
ATOM      1  C   UNL     1      -2.286   9.863  16.943  0.00  0.00    +0.000 A 
ATOM      2  C   UNL     1      -0.907   9.642  17.019  0.00  0.00    +0.000 A 
ATOM      3  C   UNL     1      -0.165   9.897  18.195  0.00  0.00    +0.000 A 
ATOM      4  C   UNL     1      -0.771  10.560  19.269  0.00  0.00    +0.000 A 
ATOM      5  C   UNL     1      -2.147  10.812  19.174  0.00  0.00    +0.000 A 
ATOM      6  C   UNL     1      -2.911  10.469  18.042  0.00  0.00    +0.000 A 
ENDROOT
BRANCH   3   7
ATOM      7  C   UNL     1       1.214   9.348  18.157  0.00  0.00    +0.000 C 
ATOM      8  O   UNL     1       2.095   9.998  17.616  0.00  0.00    +0.000 OA
ATOM      9  N   UNL     1       1.436   8.144  18.782  0.00  0.00    +0.000 N 
ATOM     10  H   UNL     1       0.639   7.606  19.085  0.00  0.00    +0.000 HD
BRANCH   9  11
ATOM     11  C   UNL     1       2.739   7.506  18.731  0.00  0.00    +0.000 C 
BRANCH  11  12
ATOM     12  C   UNL     1       2.701   6.146  18.021  0.00  0.00    +0.000 C 
BRANCH  12  13
ATOM     13  C   UNL     1       2.230   5.055  18.946  0.00  0.00    +0.000 A 
ATOM     14  C   UNL     1       1.457   3.994  18.454  0.00  0.00    +0.000 A 
ATOM     15  C   UNL     1       0.947   3.033  19.324  0.00  0.00    +0.000 A 
ATOM     16  C   UNL     1       1.207   3.122  20.691  0.00  0.00    +0.000 A 
ATOM     17  C   UNL     1       1.996   4.160  21.185  0.00  0.00    +0.000 A 
ATOM     18  C   UNL     1       2.510   5.122  20.316  0.00  0.00    +0.000 A 
ENDBRANCH  12  13
ENDBRANCH  11  12
ENDBRANCH   9  11
ENDBRANCH   3   7
BRANCH   1  20
ATOM     19  C   UNL     1      -3.165  10.531  14.846  0.00  0.00    +0.000 C 
ATOM     20  O   UNL     1      -2.991   9.494  15.826  0.00  0.00    +0.000 OA
ENDBRANCH   1  20
BRANCH   4  21
ATOM     21  N   UNL     1      -0.059  10.996  20.452  0.00  0.00    +0.000 N 
ATOM     22  C   UNL     1       0.013  12.439  20.761  0.00  0.00    +0.000 C 
BRANCH  21  23
ATOM     23  S   UNL     1       0.095   9.954  21.784  0.00  0.00    +0.000 S 
ATOM     24  C   UNL     1      -1.016  10.652  23.001  0.00  0.00    +0.000 C 
ATOM     25  O   UNL     1      -0.400   8.647  21.418  0.00  0.00    +0.000 OA
ATOM     26  O   UNL     1       1.447  10.134  22.287  0.00  0.00    +0.000 OA
ENDBRANCH  21  23
ENDBRANCH   4  21
BRANCH   6  27
ATOM     27  O   UNL     1      -4.229  10.787  18.234  0.00  0.00    +0.000 OA
ATOM     28  C   UNL     1      -4.750  12.048  17.854  0.00  0.00    +0.000 C 
ENDBRANCH   6  27
TORSDOF 8
ENDMDL
MODEL 3
REMARK VINA RESULT:      -7.3      2.324      4.613
REMARK  Name = 
REMARK  12 active torsions:
REMARK  status: ('A' for Active; 'I' for Inactive)
REMARK    1  A    between atoms: C_1  and  O_2
REMARK    2  A    between atoms: O_2  and  C_3
REMARK    3  A    between atoms: C_5  and  C_6
REMARK    4  A    between atoms: N_8  and  C_9
REMARK    5  A    between atoms: C_9  and  C_10
REMARK    6  A    between atoms: C_10  and  C_11
REMARK    7  A    between atoms: C_17  and  N_18
REMARK    8  A    between atoms: N_18  and  C_19
REMARK    9  A    between atoms: N_18  and  S_20
REMARK   10  A    between atoms: S_20  and  C_21
REMARK   11  A    between atoms: C_25  and  O_26
REMARK   12  A    between atoms: O_26  and  C_27
REMARK                            x       y       z     vdW  Elec       q    Type
REMARK                         _______ _______ _______ _____ _____    ______ ____
ROOT
ATOM      1  C   UNL     1       2.165   3.717  17.936  0.00  0.00    +0.000 A 
ATOM      2  C   UNL     1       2.287   5.109  18.009  0.00  0.00    +0.000 A 
ATOM      3  C   UNL     1       3.536   5.764  17.915  0.00  0.00    +0.000 A 
ATOM      4  C   UNL     1       4.718   5.012  17.933  0.00  0.00    +0.000 A 
ATOM      5  C   UNL     1       4.591   3.616  17.897  0.00  0.00    +0.000 A 
ATOM      6  C   UNL     1       3.344   2.961  17.889  0.00  0.00    +0.000 A 
ENDROOT
BRANCH   3   7
ATOM      7  C   UNL     1       3.424   7.234  17.743  0.00  0.00    +0.000 C 
ATOM      8  O   UNL     1       4.336   7.837  17.200  0.00  0.00    +0.000 OA
ATOM      9  N   UNL     1       2.264   7.837  18.168  0.00  0.00    +0.000 N 
ATOM     10  H   UNL     1       1.619   7.299  18.725  0.00  0.00    +0.000 HD
BRANCH   9  11
ATOM     11  C   UNL     1       2.104   9.278  18.100  0.00  0.00    +0.000 C 
BRANCH  11  12
ATOM     12  C   UNL     1       0.632   9.710  18.143  0.00  0.00    +0.000 C 
BRANCH  12  13
ATOM     13  C   UNL     1       0.207  10.077  19.540  0.00  0.00    +0.000 A 
ATOM     14  C   UNL     1      -0.527  11.249  19.772  0.00  0.00    +0.000 A 
ATOM     15  C   UNL     1      -0.843  11.635  21.073  0.00  0.00    +0.000 A 
ATOM     16  C   UNL     1      -0.432  10.854  22.152  0.00  0.00    +0.000 A 
ATOM     17  C   UNL     1       0.277   9.673  21.928  0.00  0.00    +0.000 A 
ATOM     18  C   UNL     1       0.592   9.284  20.627  0.00  0.00    +0.000 A 
ENDBRANCH  12  13
ENDBRANCH  11  12
ENDBRANCH   9  11
ENDBRANCH   3   7
BRANCH   1  20
ATOM     19  C   UNL     1       0.481   2.598  19.172  0.00  0.00    +0.000 C 
ATOM     20  O   UNL     1       0.928   3.126  17.912  0.00  0.00    +0.000 OA
ENDBRANCH   1  20
BRANCH   4  21
ATOM     21  N   UNL     1       6.042   5.594  17.991  0.00  0.00    +0.000 N 
ATOM     22  C   UNL     1       6.759   5.630  19.282  0.00  0.00    +0.000 C 
BRANCH  21  23
ATOM     23  S   UNL     1       7.026   5.609  16.607  0.00  0.00    +0.000 S 
ATOM     24  C   UNL     1       5.868   5.373  15.261  0.00  0.00    +0.000 C 
ATOM     25  O   UNL     1       7.621   6.918  16.466  0.00  0.00    +0.000 OA
ATOM     26  O   UNL     1       7.846   4.411  16.678  0.00  0.00    +0.000 OA
ENDBRANCH  21  23
ENDBRANCH   4  21
BRANCH   6  27
ATOM     27  O   UNL     1       3.512   1.605  17.807  0.00  0.00    +0.000 OA
ATOM     28  C   UNL     1       4.059   0.859  18.879  0.00  0.00    +0.000 C 
ENDBRANCH   6  27
TORSDOF 8
ENDMDL
MODEL 4
REMARK VINA RESULT:      -7.1      0.838      1.283
REMARK  Name = 
REMARK  12 active torsions:
REMARK  status: ('A' for Active; 'I' for Inactive)
REMARK    1  A    between atoms: C_1  and  O_2
REMARK    2  A    between atoms: O_2  and  C_3
REMARK    3  A    between atoms: C_5  and  C_6
REMARK    4  A    between atoms: N_8  and  C_9
REMARK    5  A    between atoms: C_9  and  C_10
REMARK    6  A    between atoms: C_10  and  C_11
REMARK    7  A    between atoms: C_17  and  N_18
REMARK    8  A    between atoms: N_18  and  C_19
REMARK    9  A    between atoms: N_18  and  S_20
REMARK   10  A    between atoms: S_20  and  C_21
REMARK   11  A    between atoms: C_25  and  O_26
REMARK   12  A    between atoms: O_26  and  C_27
REMARK                            x       y       z     vdW  Elec       q    Type
REMARK                         _______ _______ _______ _____ _____    ______ ____
ROOT
ATOM      1  C   UNL     1       5.656   6.560  16.955  0.00  0.00    +0.000 A 
ATOM      2  C   UNL     1       4.540   7.075  17.624  0.00  0.00    +0.000 A 
ATOM      3  C   UNL     1       3.524   6.244  18.149  0.00  0.00    +0.000 A 
ATOM      4  C   UNL     1       3.519   4.876  17.846  0.00  0.00    +0.000 A 
ATOM      5  C   UNL     1       4.623   4.371  17.144  0.00  0.00    +0.000 A 
ATOM      6  C   UNL     1       5.687   5.181  16.705  0.00  0.00    +0.000 A 
ENDROOT
BRANCH   3   7
ATOM      7  C   UNL     1       2.579   6.956  19.047  0.00  0.00    +0.000 C 
ATOM      8  O   UNL     1       2.253   6.429  20.099  0.00  0.00    +0.000 OA
ATOM      9  N   UNL     1       2.156   8.205  18.661  0.00  0.00    +0.000 N 
ATOM     10  H   UNL     1       2.359   8.513  17.723  0.00  0.00    +0.000 HD
BRANCH   9  11
ATOM     11  C   UNL     1       1.180   8.938  19.446  0.00  0.00    +0.000 C 
BRANCH  11  12
ATOM     12  C   UNL     1       0.986  10.377  18.952  0.00  0.00    +0.000 C 
BRANCH  12  13
ATOM     13  C   UNL     1      -0.439  10.629  18.535  0.00  0.00    +0.000 A 
ATOM     14  C   UNL     1      -1.199  11.619  19.174  0.00  0.00    +0.000 A 
ATOM     15  C   UNL     1      -2.543  11.791  18.849  0.00  0.00    +0.000 A 
ATOM     16  C   UNL     1      -3.138  10.979  17.885  0.00  0.00    +0.000 A 
ATOM     17  C   UNL     1      -2.382  10.009  17.227  0.00  0.00    +0.000 A 
ATOM     18  C   UNL     1      -1.036   9.836  17.548  0.00  0.00    +0.000 A 
ENDBRANCH  12  13
ENDBRANCH  11  12
ENDBRANCH   9  11
ENDBRANCH   3   7
BRANCH   1  20
ATOM     19  C   UNL     1       7.684   7.625  17.560  0.00  0.00    +0.000 C 
ATOM     20  O   UNL     1       6.676   7.387  16.564  0.00  0.00    +0.000 OA
ENDBRANCH   1  20
BRANCH   4  21
ATOM     21  N   UNL     1       2.447   3.974  18.211  0.00  0.00    +0.000 N 
ATOM     22  C   UNL     1       1.187   4.000  17.440  0.00  0.00    +0.000 C 
BRANCH  21  23
ATOM     23  S   UNL     1       2.799   2.506  18.990  0.00  0.00    +0.000 S 
ATOM     24  C   UNL     1       4.165   2.917  20.073  0.00  0.00    +0.000 C 
ATOM     25  O   UNL     1       1.672   2.126  19.810  0.00  0.00    +0.000 OA
ATOM     26  O   UNL     1       3.320   1.617  17.965  0.00  0.00    +0.000 OA
ENDBRANCH  21  23
ENDBRANCH   4  21
BRANCH   6  27
ATOM     27  O   UNL     1       6.647   4.425  16.088  0.00  0.00    +0.000 OA
ATOM     28  C   UNL     1       6.741   4.353  14.676  0.00  0.00    +0.000 C 
ENDBRANCH   6  27
TORSDOF 8
ENDMDL
MODEL 5
REMARK VINA RESULT:      -7.1      1.621      2.159
REMARK  Name = 
REMARK  12 active torsions:
REMARK  status: ('A' for Active; 'I' for Inactive)
REMARK    1  A    between atoms: C_1  and  O_2
REMARK    2  A    between atoms: O_2  and  C_3
REMARK    3  A    between atoms: C_5  and  C_6
REMARK    4  A    between atoms: N_8  and  C_9
REMARK    5  A    between atoms: C_9  and  C_10
REMARK    6  A    between atoms: C_10  and  C_11
REMARK    7  A    between atoms: C_17  and  N_18
REMARK    8  A    between atoms: N_18  and  C_19
REMARK    9  A    between atoms: N_18  and  S_20
REMARK   10  A    between atoms: S_20  and  C_21
REMARK   11  A    between atoms: C_25  and  O_26
REMARK   12  A    between atoms: O_26  and  C_27
REMARK                            x       y       z     vdW  Elec       q    Type
REMARK                         _______ _______ _______ _____ _____    ______ ____
ROOT
ATOM      1  C   UNL     1       5.610   6.570  16.967  0.00  0.00    +0.000 A 
ATOM      2  C   UNL     1       4.470   7.209  17.463  0.00  0.00    +0.000 A 
ATOM      3  C   UNL     1       3.390   6.494  18.032  0.00  0.00    +0.000 A 
ATOM      4  C   UNL     1       3.358   5.097  17.943  0.00  0.00    +0.000 A 
ATOM      5  C   UNL     1       4.490   4.462  17.411  0.00  0.00    +0.000 A 
ATOM      6  C   UNL     1       5.611   5.168  16.934  0.00  0.00    +0.000 A 
ENDROOT
BRANCH   3   7
ATOM      7  C   UNL     1       2.411   7.360  18.737  0.00  0.00    +0.000 C 
ATOM      8  O   UNL     1       2.153   7.129  19.908  0.00  0.00    +0.000 OA
ATOM      9  N   UNL     1       1.878   8.416  18.037  0.00  0.00    +0.000 N 
ATOM     10  H   UNL     1       2.034   8.461  17.042  0.00  0.00    +0.000 HD
BRANCH   9  11
ATOM     11  C   UNL     1       0.863   9.267  18.630  0.00  0.00    +0.000 C 
BRANCH  11  12
ATOM     12  C   UNL     1       1.456  10.323  19.573  0.00  0.00    +0.000 C 
BRANCH  12  13
ATOM     13  C   UNL     1       0.665  10.426  20.850  0.00  0.00    +0.000 A 
ATOM     14  C   UNL     1       0.549   9.318  21.702  0.00  0.00    +0.000 A 
ATOM     15  C   UNL     1      -0.256   9.386  22.838  0.00  0.00    +0.000 A 
ATOM     16  C   UNL     1      -0.948  10.559  23.133  0.00  0.00    +0.000 A 
ATOM     17  C   UNL     1      -0.817  11.673  22.304  0.00  0.00    +0.000 A 
ATOM     18  C   UNL     1      -0.011  11.609  21.168  0.00  0.00    +0.000 A 
ENDBRANCH  12  13
ENDBRANCH  11  12
ENDBRANCH   9  11
ENDBRANCH   3   7
BRANCH   1  20
ATOM     19  C   UNL     1       7.579   7.746  17.564  0.00  0.00    +0.000 C 
ATOM     20  O   UNL     1       6.684   7.301  16.531  0.00  0.00    +0.000 OA
ENDBRANCH   1  20
BRANCH   4  21
ATOM     21  N   UNL     1       2.232   4.288  18.361  0.00  0.00    +0.000 N 
ATOM     22  C   UNL     1       1.103   4.087  17.430  0.00  0.00    +0.000 C 
BRANCH  21  23
ATOM     23  S   UNL     1       2.444   3.074  19.529  0.00  0.00    +0.000 S 
ATOM     24  C   UNL     1       0.902   3.084  20.437  0.00  0.00    +0.000 C 
ATOM     25  O   UNL     1       2.568   1.798  18.863  0.00  0.00    +0.000 OA
ATOM     26  O   UNL     1       3.475   3.555  20.434  0.00  0.00    +0.000 OA
ENDBRANCH  21  23
ENDBRANCH   4  21
BRANCH   6  27
ATOM     27  O   UNL     1       6.584   4.302  16.514  0.00  0.00    +0.000 OA
ATOM     28  C   UNL     1       6.769   4.004  15.142  0.00  0.00    +0.000 C 
ENDBRANCH   6  27
TORSDOF 8
ENDMDL
MODEL 6
REMARK VINA RESULT:      -7.1      2.455      4.687
REMARK  Name = 
REMARK  12 active torsions:
REMARK  status: ('A' for Active; 'I' for Inactive)
REMARK    1  A    between atoms: C_1  and  O_2
REMARK    2  A    between atoms: O_2  and  C_3
REMARK    3  A    between atoms: C_5  and  C_6
REMARK    4  A    between atoms: N_8  and  C_9
REMARK    5  A    between atoms: C_9  and  C_10
REMARK    6  A    between atoms: C_10  and  C_11
REMARK    7  A    between atoms: C_17  and  N_18
REMARK    8  A    between atoms: N_18  and  C_19
REMARK    9  A    between atoms: N_18  and  S_20
REMARK   10  A    between atoms: S_20  and  C_21
REMARK   11  A    between atoms: C_25  and  O_26
REMARK   12  A    between atoms: O_26  and  C_27
REMARK                            x       y       z     vdW  Elec       q    Type
REMARK                         _______ _______ _______ _____ _____    ______ ____
ROOT
ATOM      1  C   UNL     1       2.688   3.594  19.366  0.00  0.00    +0.000 A 
ATOM      2  C   UNL     1       2.711   4.929  18.949  0.00  0.00    +0.000 A 
ATOM      3  C   UNL     1       3.886   5.550  18.466  0.00  0.00    +0.000 A 
ATOM      4  C   UNL     1       5.115   4.886  18.568  0.00  0.00    +0.000 A 
ATOM      5  C   UNL     1       5.092   3.559  19.020  0.00  0.00    +0.000 A 
ATOM      6  C   UNL     1       3.908   2.903  19.409  0.00  0.00    +0.000 A 
ENDROOT
BRANCH   3   7
ATOM      7  C   UNL     1       3.641   6.868  17.829  0.00  0.00    +0.000 C 
ATOM      8  O   UNL     1       4.272   7.167  16.826  0.00  0.00    +0.000 OA
ATOM      9  N   UNL     1       2.672   7.671  18.381  0.00  0.00    +0.000 N 
ATOM     10  H   UNL     1       2.293   7.418  19.280  0.00  0.00    +0.000 HD
BRANCH   9  11
ATOM     11  C   UNL     1       2.420   9.002  17.861  0.00  0.00    +0.000 C 
BRANCH  11  12
ATOM     12  C   UNL     1       0.943   9.405  17.964  0.00  0.00    +0.000 C 
BRANCH  12  13
ATOM     13  C   UNL     1       0.682  10.232  19.195  0.00  0.00    +0.000 A 
ATOM     14  C   UNL     1      -0.111   9.724  20.233  0.00  0.00    +0.000 A 
ATOM     15  C   UNL     1      -0.426  10.522  21.332  0.00  0.00    +0.000 A 
ATOM     16  C   UNL     1       0.051  11.830  21.404  0.00  0.00    +0.000 A 
ATOM     17  C   UNL     1       0.862  12.333  20.387  0.00  0.00    +0.000 A 
ATOM     18  C   UNL     1       1.180  11.537  19.288  0.00  0.00    +0.000 A 
ENDBRANCH  12  13
ENDBRANCH  11  12
ENDBRANCH   9  11
ENDBRANCH   3   7
BRANCH   1  20
ATOM     19  C   UNL     1       1.212   3.005  21.123  0.00  0.00    +0.000 C 
ATOM     20  O   UNL     1       1.508   2.993  19.716  0.00  0.00    +0.000 OA
ENDBRANCH   1  20
BRANCH   4  21
ATOM     21  N   UNL     1       6.388   5.493  18.240  0.00  0.00    +0.000 N 
ATOM     22  C   UNL     1       7.307   5.878  19.330  0.00  0.00    +0.000 C 
BRANCH  21  23
ATOM     23  S   UNL     1       7.123   5.171  16.743  0.00  0.00    +0.000 S 
ATOM     24  C   UNL     1       5.829   4.369  15.799  0.00  0.00    +0.000 C 
ATOM     25  O   UNL     1       7.443   6.423  16.097  0.00  0.00    +0.000 OA
ATOM     26  O   UNL     1       8.146   4.171  16.999  0.00  0.00    +0.000 OA
ENDBRANCH  21  23
ENDBRANCH   4  21
BRANCH   6  27
ATOM     27  O   UNL     1       4.168   1.607  19.763  0.00  0.00    +0.000 OA
ATOM     28  C   UNL     1       5.023   1.292  20.848  0.00  0.00    +0.000 C 
ENDBRANCH   6  27
TORSDOF 8
ENDMDL
MODEL 7
REMARK VINA RESULT:      -7.1      4.175      8.728
REMARK  Name = 
REMARK  12 active torsions:
REMARK  status: ('A' for Active; 'I' for Inactive)
REMARK    1  A    between atoms: C_1  and  O_2
REMARK    2  A    between atoms: O_2  and  C_3
REMARK    3  A    between atoms: C_5  and  C_6
REMARK    4  A    between atoms: N_8  and  C_9
REMARK    5  A    between atoms: C_9  and  C_10
REMARK    6  A    between atoms: C_10  and  C_11
REMARK    7  A    between atoms: C_17  and  N_18
REMARK    8  A    between atoms: N_18  and  C_19
REMARK    9  A    between atoms: N_18  and  S_20
REMARK   10  A    between atoms: S_20  and  C_21
REMARK   11  A    between atoms: C_25  and  O_26
REMARK   12  A    between atoms: O_26  and  C_27
REMARK                            x       y       z     vdW  Elec       q    Type
REMARK                         _______ _______ _______ _____ _____    ______ ____
ROOT
ATOM      1  C   UNL     1      -2.370  10.223  17.181  0.00  0.00    +0.000 A 
ATOM      2  C   UNL     1      -1.020   9.887  17.333  0.00  0.00    +0.000 A 
ATOM      3  C   UNL     1      -0.260  10.302  18.451  0.00  0.00    +0.000 A 
ATOM      4  C   UNL     1      -0.800  11.226  19.354  0.00  0.00    +0.000 A 
ATOM      5  C   UNL     1      -2.143  11.588  19.176  0.00  0.00    +0.000 A 
ATOM      6  C   UNL     1      -2.934  11.098  18.119  0.00  0.00    +0.000 A 
ENDROOT
BRANCH   3   7
ATOM      7  C   UNL     1       1.056   9.623  18.558  0.00  0.00    +0.000 C 
ATOM      8  O   UNL     1       2.023  10.115  17.998  0.00  0.00    +0.000 OA
ATOM      9  N   UNL     1       1.125   8.489  19.333  0.00  0.00    +0.000 N 
ATOM     10  H   UNL     1       0.265   8.071  19.650  0.00  0.00    +0.000 HD
BRANCH   9  11
ATOM     11  C   UNL     1       2.357   7.728  19.433  0.00  0.00    +0.000 C 
BRANCH  11  12
ATOM     12  C   UNL     1       2.470   6.645  18.352  0.00  0.00    +0.000 C 
BRANCH  12  13
ATOM     13  C   UNL     1       2.008   5.306  18.864  0.00  0.00    +0.000 A 
ATOM     14  C   UNL     1       1.718   4.268  17.968  0.00  0.00    +0.000 A 
ATOM     15  C   UNL     1       1.206   3.059  18.435  0.00  0.00    +0.000 A 
ATOM     16  C   UNL     1       0.982   2.877  19.799  0.00  0.00    +0.000 A 
ATOM     17  C   UNL     1       1.292   3.896  20.699  0.00  0.00    +0.000 A 
ATOM     18  C   UNL     1       1.807   5.106  20.234  0.00  0.00    +0.000 A 
ENDBRANCH  12  13
ENDBRANCH  11  12
ENDBRANCH   9  11
ENDBRANCH   3   7
BRANCH   1  20
ATOM     19  C   UNL     1      -3.101  10.494  14.943  0.00  0.00    +0.000 C 
ATOM     20  O   UNL     1      -3.103   9.706  16.145  0.00  0.00    +0.000 OA
ENDBRANCH   1  20
BRANCH   4  21
ATOM     21  N   UNL     1      -0.052  11.822  20.442  0.00  0.00    +0.000 N 
ATOM     22  C   UNL     1       0.249  11.011  21.639  0.00  0.00    +0.000 C 
BRANCH  21  23
ATOM     23  S   UNL     1       1.021  13.101  20.135  0.00  0.00    +0.000 S 
ATOM     24  C   UNL     1       0.131  14.547  20.704  0.00  0.00    +0.000 C 
ATOM     25  O   UNL     1       2.195  12.940  20.961  0.00  0.00    +0.000 OA
ATOM     26  O   UNL     1       1.126  13.207  18.689  0.00  0.00    +0.000 OA
ENDBRANCH  21  23
ENDBRANCH   4  21
BRANCH   6  27
ATOM     27  O   UNL     1      -4.213  11.578  18.211  0.00  0.00    +0.000 OA
ATOM     28  C   UNL     1      -4.671  12.250  19.370  0.00  0.00    +0.000 C 
ENDBRANCH   6  27
TORSDOF 8
ENDMDL
MODEL 8
REMARK VINA RESULT:      -7.1      1.762      2.277
REMARK  Name = 
REMARK  12 active torsions:
REMARK  status: ('A' for Active; 'I' for Inactive)
REMARK    1  A    between atoms: C_1  and  O_2
REMARK    2  A    between atoms: O_2  and  C_3
REMARK    3  A    between atoms: C_5  and  C_6
REMARK    4  A    between atoms: N_8  and  C_9
REMARK    5  A    between atoms: C_9  and  C_10
REMARK    6  A    between atoms: C_10  and  C_11
REMARK    7  A    between atoms: C_17  and  N_18
REMARK    8  A    between atoms: N_18  and  C_19
REMARK    9  A    between atoms: N_18  and  S_20
REMARK   10  A    between atoms: S_20  and  C_21
REMARK   11  A    between atoms: C_25  and  O_26
REMARK   12  A    between atoms: O_26  and  C_27
REMARK                            x       y       z     vdW  Elec       q    Type
REMARK                         _______ _______ _______ _____ _____    ______ ____
ROOT
ATOM      1  C   UNL     1       5.636   6.353  16.918  0.00  0.00    +0.000 A 
ATOM      2  C   UNL     1       4.618   6.755  17.789  0.00  0.00    +0.000 A 
ATOM      3  C   UNL     1       3.664   5.848  18.306  0.00  0.00    +0.000 A 
ATOM      4  C   UNL     1       3.604   4.542  17.805  0.00  0.00    +0.000 A 
ATOM      5  C   UNL     1       4.606   4.153  16.904  0.00  0.00    +0.000 A 
ATOM      6  C   UNL     1       5.619   5.026  16.463  0.00  0.00    +0.000 A 
ENDROOT
BRANCH   3   7
ATOM      7  C   UNL     1       2.846   6.412  19.410  0.00  0.00    +0.000 C 
ATOM      8  O   UNL     1       2.680   5.749  20.421  0.00  0.00    +0.000 OA
ATOM      9  N   UNL     1       2.355   7.686  19.250  0.00  0.00    +0.000 N 
ATOM     10  H   UNL     1       2.419   8.115  18.339  0.00  0.00    +0.000 HD
BRANCH   9  11
ATOM     11  C   UNL     1       1.490   8.283  20.250  0.00  0.00    +0.000 C 
BRANCH  11  12
ATOM     12  C   UNL     1       0.966   9.663  19.828  0.00  0.00    +0.000 C 
BRANCH  12  13
ATOM     13  C   UNL     1       0.049  10.246  20.871  0.00  0.00    +0.000 A 
ATOM     14  C   UNL     1      -0.760  11.349  20.565  0.00  0.00    +0.000 A 
ATOM     15  C   UNL     1      -1.541  11.944  21.554  0.00  0.00    +0.000 A 
ATOM     16  C   UNL     1      -1.522  11.441  22.854  0.00  0.00    +0.000 A 
ATOM     17  C   UNL     1      -0.740  10.328  23.160  0.00  0.00    +0.000 A 
ATOM     18  C   UNL     1       0.041   9.730  22.172  0.00  0.00    +0.000 A 
ENDBRANCH  12  13
ENDBRANCH  11  12
ENDBRANCH   9  11
ENDBRANCH   3   7
BRANCH   1  20
ATOM     19  C   UNL     1       7.538   7.610  17.565  0.00  0.00    +0.000 C 
ATOM     20  O   UNL     1       6.611   7.234  16.532  0.00  0.00    +0.000 OA
ENDBRANCH   1  20
BRANCH   4  21
ATOM     21  N   UNL     1       2.573   3.589  18.161  0.00  0.00    +0.000 N 
ATOM     22  C   UNL     1       1.305   3.581  17.404  0.00  0.00    +0.000 C 
BRANCH  21  23
ATOM     23  S   UNL     1       2.993   2.120  18.901  0.00  0.00    +0.000 S 
ATOM     24  C   UNL     1       4.267   2.583  20.071  0.00  0.00    +0.000 C 
ATOM     25  O   UNL     1       1.857   1.625  19.644  0.00  0.00    +0.000 OA
ATOM     26  O   UNL     1       3.631   1.313  17.874  0.00  0.00    +0.000 OA
ENDBRANCH  21  23
ENDBRANCH   4  21
BRANCH   6  27
ATOM     27  O   UNL     1       6.486   4.377  15.626  0.00  0.00    +0.000 OA
ATOM     28  C   UNL     1       6.358   4.458  14.218  0.00  0.00    +0.000 C 
ENDBRANCH   6  27
TORSDOF 8
ENDMDL
MODEL 9
REMARK VINA RESULT:      -7.0      4.292      8.823
REMARK  Name = 
REMARK  12 active torsions:
REMARK  status: ('A' for Active; 'I' for Inactive)
REMARK    1  A    between atoms: C_1  and  O_2
REMARK    2  A    between atoms: O_2  and  C_3
REMARK    3  A    between atoms: C_5  and  C_6
REMARK    4  A    between atoms: N_8  and  C_9
REMARK    5  A    between atoms: C_9  and  C_10
REMARK    6  A    between atoms: C_10  and  C_11
REMARK    7  A    between atoms: C_17  and  N_18
REMARK    8  A    between atoms: N_18  and  C_19
REMARK    9  A    between atoms: N_18  and  S_20
REMARK   10  A    between atoms: S_20  and  C_21
REMARK   11  A    between atoms: C_25  and  O_26
REMARK   12  A    between atoms: O_26  and  C_27
REMARK                            x       y       z     vdW  Elec       q    Type
REMARK                         _______ _______ _______ _____ _____    ______ ____
ROOT
ATOM      1  C   UNL     1      -2.460  10.255  17.172  0.00  0.00    +0.000 A 
ATOM      2  C   UNL     1      -1.141   9.941  17.516  0.00  0.00    +0.000 A 
ATOM      3  C   UNL     1      -0.525  10.443  18.685  0.00  0.00    +0.000 A 
ATOM      4  C   UNL     1      -1.170  11.429  19.442  0.00  0.00    +0.000 A 
ATOM      5  C   UNL     1      -2.480  11.766  19.073  0.00  0.00    +0.000 A 
ATOM      6  C   UNL     1      -3.135  11.194  17.966  0.00  0.00    +0.000 A 
ENDROOT
BRANCH   3   7
ATOM      7  C   UNL     1       0.767   9.784  19.005  0.00  0.00    +0.000 C 
ATOM      8  O   UNL     1       1.792  10.218  18.504  0.00  0.00    +0.000 OA
ATOM      9  N   UNL     1       0.742   8.738  19.896  0.00  0.00    +0.000 N 
ATOM     10  H   UNL     1      -0.151   8.352  20.161  0.00  0.00    +0.000 HD
BRANCH   9  11
ATOM     11  C   UNL     1       1.950   7.995  20.209  0.00  0.00    +0.000 C 
BRANCH  11  12
ATOM     12  C   UNL     1       2.414   7.109  19.045  0.00  0.00    +0.000 C 
BRANCH  12  13
ATOM     13  C   UNL     1       1.928   5.693  19.204  0.00  0.00    +0.000 A 
ATOM     14  C   UNL     1       1.598   5.196  20.473  0.00  0.00    +0.000 A 
ATOM     15  C   UNL     1       1.234   3.860  20.632  0.00  0.00    +0.000 A 
ATOM     16  C   UNL     1       1.195   3.012  19.527  0.00  0.00    +0.000 A 
ATOM     17  C   UNL     1       1.497   3.505  18.258  0.00  0.00    +0.000 A 
ATOM     18  C   UNL     1       1.859   4.842  18.095  0.00  0.00    +0.000 A 
ENDBRANCH  12  13
ENDBRANCH  11  12
ENDBRANCH   9  11
ENDBRANCH   3   7
BRANCH   1  20
ATOM     19  C   UNL     1      -2.962  10.385  14.860  0.00  0.00    +0.000 C 
ATOM     20  O   UNL     1      -3.061   9.657  16.095  0.00  0.00    +0.000 OA
ENDBRANCH   1  20
BRANCH   4  21
ATOM     21  N   UNL     1      -0.561  12.108  20.567  0.00  0.00    +0.000 N 
ATOM     22  C   UNL     1      -0.595  11.472  21.899  0.00  0.00    +0.000 C 
BRANCH  21  23
ATOM     23  S   UNL     1       0.710  13.204  20.310  0.00  0.00    +0.000 S 
ATOM     24  C   UNL     1       0.174  14.684  21.163  0.00  0.00    +0.000 C 
ATOM     25  O   UNL     1       1.898  12.709  20.968  0.00  0.00    +0.000 OA
ATOM     26  O   UNL     1       0.706  13.506  18.888  0.00  0.00    +0.000 OA
ENDBRANCH  21  23
ENDBRANCH   4  21
BRANCH   6  27
ATOM     27  O   UNL     1      -4.414  11.670  17.862  0.00  0.00    +0.000 OA
ATOM     28  C   UNL     1      -5.523  10.923  18.331  0.00  0.00    +0.000 C 
ENDBRANCH   6  27
TORSDOF 8
ENDMDL
