MODEL 1
REMARK VINA RESULT:      -7.5      0.000      0.000
REMARK  Name = 
REMARK  5 active torsions:
REMARK  status: ('A' for Active; 'I' for Inactive)
REMARK    1  A    between atoms: C_1  and  C_2
REMARK    2  A    between atoms: C_2  and  C_3
REMARK    3  A    between atoms: N_4  and  N_5
REMARK    4  A    between atoms: N_5  and  C_6
REMARK    5  A    between atoms: C_13  and  N_14
REMARK                            x       y       z     vdW  Elec       q    Type
REMARK                         _______ _______ _______ _____ _____    ______ ____
ROOT
ATOM      1  C   UNL     1       5.949   4.227  15.776  0.00  0.00    +0.000 A 
ATOM      2  C   UNL     1       7.315   4.428  15.941  0.00  0.00    +0.000 A 
ATOM      3  N   UNL     1       7.903   4.586  17.140  0.00  0.00    +0.000 NA
ATOM      4  N   UNL     1       7.133   4.556  18.261  0.00  0.00    +0.000 NA
ATOM      5  C   UNL     1       5.804   4.392  18.185  0.00  0.00    +0.000 A 
ATOM      6  C   UNL     1       5.063   4.389  19.366  0.00  0.00    +0.000 A 
ATOM      7  C   UNL     1       3.673   4.238  19.375  0.00  0.00    +0.000 A 
ATOM      8  C   UNL     1       3.007   4.098  18.162  0.00  0.00    +0.000 A 
ATOM      9  C   UNL     1       3.728   4.116  16.965  0.00  0.00    +0.000 A 
ATOM     10  C   UNL     1       5.143   4.238  16.947  0.00  0.00    +0.000 A 
ENDROOT
BRANCH   8  11
ATOM     11  N   UNL     1       1.549   3.924  18.130  0.00  0.00    +0.000 N 
ATOM     12  O   UNL     1       0.996   3.524  19.167  0.00  0.00    +0.000 OA
ATOM     13  O   UNL     1       0.955   4.188  17.075  0.00  0.00    +0.000 OA
ENDBRANCH   8  11
BRANCH   1  14
ATOM     14  N   UNL     1       5.461   4.122  14.440  0.00  0.00    +0.000 N 
ATOM     15  H   UNL     1       4.543   3.670  14.446  0.00  0.00    +0.000 HD
BRANCH  14  19
ATOM     16  C   UNL     1       6.940   2.748  11.393  0.00  0.00    +0.000 C 
ATOM     17  C   UNL     1       5.913   3.306  12.347  0.00  0.00    +0.000 C 
ATOM     18  C   UNL     1       4.472   3.353  11.911  0.00  0.00    +0.000 C 
ATOM     19  N   UNL     1       6.348   3.693  13.508  0.00  0.00    +0.000 NA
ENDBRANCH  14  19
ENDBRANCH   1  14
TORSDOF 3
ENDMDL
MODEL 2
REMARK VINA RESULT:      -7.2      1.026      1.026
REMARK  Name = 
REMARK  5 active torsions:
REMARK  status: ('A' for Active; 'I' for Inactive)
REMARK    1  A    between atoms: C_1  and  C_2
REMARK    2  A    between atoms: C_2  and  C_3
REMARK    3  A    between atoms: N_4  and  N_5
REMARK    4  A    between atoms: N_5  and  C_6
REMARK    5  A    between atoms: C_13  and  N_14
REMARK                            x       y       z     vdW  Elec       q    Type
REMARK                         _______ _______ _______ _____ _____    ______ ____
ROOT
ATOM      1  C   UNL     1       5.843   4.691  15.268  0.00  0.00    +0.000 A 
ATOM      2  C   UNL     1       6.982   5.487  15.211  0.00  0.00    +0.000 A 
ATOM      3  N   UNL     1       7.536   6.069  16.289  0.00  0.00    +0.000 NA
ATOM      4  N   UNL     1       6.960   5.883  17.508  0.00  0.00    +0.000 NA
ATOM      5  C   UNL     1       5.845   5.150  17.643  0.00  0.00    +0.000 A 
ATOM      6  C   UNL     1       5.287   5.011  18.914  0.00  0.00    +0.000 A 
ATOM      7  C   UNL     1       4.120   4.277  19.140  0.00  0.00    +0.000 A 
ATOM      8  C   UNL     1       3.487   3.674  18.057  0.00  0.00    +0.000 A 
ATOM      9  C   UNL     1       4.019   3.815  16.773  0.00  0.00    +0.000 A 
ATOM     10  C   UNL     1       5.221   4.534  16.536  0.00  0.00    +0.000 A 
ENDROOT
BRANCH   8  11
ATOM     11  N   UNL     1       2.266   2.883  18.256  0.00  0.00    +0.000 N 
ATOM     12  O   UNL     1       2.365   1.825  18.898  0.00  0.00    +0.000 OA
ATOM     13  O   UNL     1       1.209   3.315  17.775  0.00  0.00    +0.000 OA
ENDBRANCH   8  11
BRANCH   1  14
ATOM     14  N   UNL     1       5.343   4.177  14.035  0.00  0.00    +0.000 N 
ATOM     15  H   UNL     1       4.448   3.709  14.198  0.00  0.00    +0.000 HD
BRANCH  14  19
ATOM     16  C   UNL     1       6.863   2.248  11.327  0.00  0.00    +0.000 C 
ATOM     17  C   UNL     1       5.845   3.041  12.109  0.00  0.00    +0.000 C 
ATOM     18  C   UNL     1       4.456   3.189  11.545  0.00  0.00    +0.000 C 
ATOM     19  N   UNL     1       6.237   3.530  13.246  0.00  0.00    +0.000 NA
ENDBRANCH  14  19
ENDBRANCH   1  14
TORSDOF 3
ENDMDL
MODEL 3
REMARK VINA RESULT:      -7.2      1.232      1.536
REMARK  Name = 
REMARK  5 active torsions:
REMARK  status: ('A' for Active; 'I' for Inactive)
REMARK    1  A    between atoms: C_1  and  C_2
REMARK    2  A    between atoms: C_2  and  C_3
REMARK    3  A    between atoms: N_4  and  N_5
REMARK    4  A    between atoms: N_5  and  C_6
REMARK    5  A    between atoms: C_13  and  N_14
REMARK                            x       y       z     vdW  Elec       q    Type
REMARK                         _______ _______ _______ _____ _____    ______ ____
ROOT
ATOM      1  C   UNL     1       6.246   4.282  16.914  0.00  0.00    +0.000 A 
ATOM      2  C   UNL     1       7.460   4.702  17.445  0.00  0.00    +0.000 A 
ATOM      3  N   UNL     1       7.613   5.106  18.719  0.00  0.00    +0.000 NA
ATOM      4  N   UNL     1       6.530   5.117  19.542  0.00  0.00    +0.000 NA
ATOM      5  C   UNL     1       5.318   4.751  19.097  0.00  0.00    +0.000 A 
ATOM      6  C   UNL     1       4.240   4.801  19.981  0.00  0.00    +0.000 A 
ATOM      7  C   UNL     1       2.943   4.450  19.595  0.00  0.00    +0.000 A 
ATOM      8  C   UNL     1       2.720   4.049  18.283  0.00  0.00    +0.000 A 
ATOM      9  C   UNL     1       3.782   4.009  17.376  0.00  0.00    +0.000 A 
ATOM     10  C   UNL     1       5.110   4.334  17.765  0.00  0.00    +0.000 A 
ENDROOT
BRANCH   8  11
ATOM     11  N   UNL     1       1.374   3.660  17.842  0.00  0.00    +0.000 N 
ATOM     12  O   UNL     1       0.807   4.392  17.016  0.00  0.00    +0.000 OA
ATOM     13  O   UNL     1       0.882   2.626  18.317  0.00  0.00    +0.000 OA
ENDBRANCH   8  11
BRANCH   1  14
ATOM     14  N   UNL     1       6.227   3.924  15.533  0.00  0.00    +0.000 N 
ATOM     15  H   UNL     1       6.326   2.910  15.442  0.00  0.00    +0.000 HD
BRANCH  14  19
ATOM     16  C   UNL     1       7.843   5.308  12.561  0.00  0.00    +0.000 C 
ATOM     17  C   UNL     1       6.909   4.492  13.421  0.00  0.00    +0.000 C 
ATOM     18  C   UNL     1       5.993   3.501  12.752  0.00  0.00    +0.000 C 
ATOM     19  N   UNL     1       6.978   4.689  14.702  0.00  0.00    +0.000 NA
ENDBRANCH  14  19
ENDBRANCH   1  14
TORSDOF 3
ENDMDL
MODEL 4
REMARK VINA RESULT:      -7.1      1.338      1.713
REMARK  Name = 
REMARK  5 active torsions:
REMARK  status: ('A' for Active; 'I' for Inactive)
REMARK    1  A    between atoms: C_1  and  C_2
REMARK    2  A    between atoms: C_2  and  C_3
REMARK    3  A    between atoms: N_4  and  N_5
REMARK    4  A    between atoms: N_5  and  C_6
REMARK    5  A    between atoms: C_13  and  N_14
REMARK                            x       y       z     vdW  Elec       q    Type
REMARK                         _______ _______ _______ _____ _____    ______ ____
ROOT
ATOM      1  C   UNL     1       6.205   4.252  14.893  0.00  0.00    +0.000 A 
ATOM      2  C   UNL     1       7.309   5.086  14.760  0.00  0.00    +0.000 A 
ATOM      3  N   UNL     1       7.624   6.048  15.647  0.00  0.00    +0.000 NA
ATOM      4  N   UNL     1       6.826   6.230  16.734  0.00  0.00    +0.000 NA
ATOM      5  C   UNL     1       5.728   5.483  16.920  0.00  0.00    +0.000 A 
ATOM      6  C   UNL     1       4.936   5.728  18.042  0.00  0.00    +0.000 A 
ATOM      7  C   UNL     1       3.769   5.004  18.303  0.00  0.00    +0.000 A 
ATOM      8  C   UNL     1       3.379   4.015  17.407  0.00  0.00    +0.000 A 
ATOM      9  C   UNL     1       4.147   3.765  16.267  0.00  0.00    +0.000 A 
ATOM     10  C   UNL     1       5.351   4.473  16.007  0.00  0.00    +0.000 A 
ENDROOT
BRANCH   8  11
ATOM     11  N   UNL     1       2.166   3.225  17.653  0.00  0.00    +0.000 N 
ATOM     12  O   UNL     1       1.077   3.820  17.626  0.00  0.00    +0.000 OA
ATOM     13  O   UNL     1       2.296   2.011  17.872  0.00  0.00    +0.000 OA
ENDBRANCH   8  11
BRANCH   1  14
ATOM     14  N   UNL     1       5.972   3.308  13.850  0.00  0.00    +0.000 N 
ATOM     15  H   UNL     1       6.866   2.997  13.464  0.00  0.00    +0.000 HD
BRANCH  14  19
ATOM     16  C   UNL     1       3.891   3.448  10.848  0.00  0.00    +0.000 C 
ATOM     17  C   UNL     1       4.935   2.982  11.832  0.00  0.00    +0.000 C 
ATOM     18  C   UNL     1       5.841   1.845  11.440  0.00  0.00    +0.000 C 
ATOM     19  N   UNL     1       4.996   3.622  12.961  0.00  0.00    +0.000 NA
ENDBRANCH  14  19
ENDBRANCH   1  14
TORSDOF 3
ENDMDL
MODEL 5
REMARK VINA RESULT:      -7.1      3.152      5.759
REMARK  Name = 
REMARK  5 active torsions:
REMARK  status: ('A' for Active; 'I' for Inactive)
REMARK    1  A    between atoms: C_1  and  C_2
REMARK    2  A    between atoms: C_2  and  C_3
REMARK    3  A    between atoms: N_4  and  N_5
REMARK    4  A    between atoms: N_5  and  C_6
REMARK    5  A    between atoms: C_13  and  N_14
REMARK                            x       y       z     vdW  Elec       q    Type
REMARK                         _______ _______ _______ _____ _____    ______ ____
ROOT
ATOM      1  C   UNL     1       5.478   4.590  16.058  0.00  0.00    +0.000 A 
ATOM      2  C   UNL     1       6.237   5.421  16.874  0.00  0.00    +0.000 A 
ATOM      3  N   UNL     1       7.348   6.056  16.460  0.00  0.00    +0.000 NA
ATOM      4  N   UNL     1       7.769   5.880  15.178  0.00  0.00    +0.000 NA
ATOM      5  C   UNL     1       7.107   5.073  14.336  0.00  0.00    +0.000 A 
ATOM      6  C   UNL     1       7.597   4.916  13.040  0.00  0.00    +0.000 A 
ATOM      7  C   UNL     1       6.975   4.084  12.104  0.00  0.00    +0.000 A 
ATOM      8  C   UNL     1       5.836   3.381  12.483  0.00  0.00    +0.000 A 
ATOM      9  C   UNL     1       5.339   3.510  13.783  0.00  0.00    +0.000 A 
ATOM     10  C   UNL     1       5.945   4.376  14.733  0.00  0.00    +0.000 A 
ENDROOT
BRANCH   8  11
ATOM     11  N   UNL     1       5.147   2.508  11.525  0.00  0.00    +0.000 N 
ATOM     12  O   UNL     1       5.702   1.439  11.221  0.00  0.00    +0.000 OA
ATOM     13  O   UNL     1       4.054   2.883  11.077  0.00  0.00    +0.000 OA
ENDBRANCH   8  11
BRANCH   1  14
ATOM     14  N   UNL     1       4.350   3.949  16.648  0.00  0.00    +0.000 N 
ATOM     15  H   UNL     1       3.497   4.453  16.392  0.00  0.00    +0.000 HD
BRANCH  14  19
ATOM     16  C   UNL     1       3.717   2.543  19.962  0.00  0.00    +0.000 C 
ATOM     17  C   UNL     1       3.567   2.830  18.489  0.00  0.00    +0.000 C 
ATOM     18  C   UNL     1       2.380   2.259  17.758  0.00  0.00    +0.000 C 
ATOM     19  N   UNL     1       4.477   3.583  17.948  0.00  0.00    +0.000 NA
ENDBRANCH  14  19
ENDBRANCH   1  14
TORSDOF 3
ENDMDL
MODEL 6
REMARK VINA RESULT:      -7.1      3.039      5.788
REMARK  Name = 
REMARK  5 active torsions:
REMARK  status: ('A' for Active; 'I' for Inactive)
REMARK    1  A    between atoms: C_1  and  C_2
REMARK    2  A    between atoms: C_2  and  C_3
REMARK    3  A    between atoms: N_4  and  N_5
REMARK    4  A    between atoms: N_5  and  C_6
REMARK    5  A    between atoms: C_13  and  N_14
REMARK                            x       y       z     vdW  Elec       q    Type
REMARK                         _______ _______ _______ _____ _____    ______ ____
ROOT
ATOM      1  C   UNL     1       5.416   4.387  16.281  0.00  0.00    +0.000 A 
ATOM      2  C   UNL     1       6.152   5.180  17.154  0.00  0.00    +0.000 A 
ATOM      3  N   UNL     1       7.245   5.873  16.785  0.00  0.00    +0.000 NA
ATOM      4  N   UNL     1       7.667   5.799  15.494  0.00  0.00    +0.000 NA
ATOM      5  C   UNL     1       7.026   5.036  14.597  0.00  0.00    +0.000 A 
ATOM      6  C   UNL     1       7.517   4.984  13.292  0.00  0.00    +0.000 A 
ATOM      7  C   UNL     1       6.916   4.204  12.300  0.00  0.00    +0.000 A 
ATOM      8  C   UNL     1       5.799   3.445  12.630  0.00  0.00    +0.000 A 
ATOM      9  C   UNL     1       5.301   3.468  13.935  0.00  0.00    +0.000 A 
ATOM     10  C   UNL     1       5.885   4.281  14.944  0.00  0.00    +0.000 A 
ENDROOT
BRANCH   8  11
ATOM     11  N   UNL     1       5.132   2.622  11.613  0.00  0.00    +0.000 N 
ATOM     12  O   UNL     1       4.052   3.032  11.160  0.00  0.00    +0.000 OA
ATOM     13  O   UNL     1       5.685   1.569  11.262  0.00  0.00    +0.000 OA
ENDBRANCH   8  11
BRANCH   1  14
ATOM     14  N   UNL     1       4.307   3.674  16.825  0.00  0.00    +0.000 N 
ATOM     15  H   UNL     1       3.500   3.772  16.203  0.00  0.00    +0.000 HD
BRANCH  14  19
ATOM     16  C   UNL     1       2.722   4.397  20.038  0.00  0.00    +0.000 C 
ATOM     17  C   UNL     1       2.884   4.133  18.562  0.00  0.00    +0.000 C 
ATOM     18  C   UNL     1       1.677   4.257  17.669  0.00  0.00    +0.000 C 
ATOM     19  N   UNL     1       4.080   3.836  18.152  0.00  0.00    +0.000 NA
ENDBRANCH  14  19
ENDBRANCH   1  14
TORSDOF 3
ENDMDL
MODEL 7
REMARK VINA RESULT:      -6.9      3.755      7.139
REMARK  Name = 
REMARK  5 active torsions:
REMARK  status: ('A' for Active; 'I' for Inactive)
REMARK    1  A    between atoms: C_1  and  C_2
REMARK    2  A    between atoms: C_2  and  C_3
REMARK    3  A    between atoms: N_4  and  N_5
REMARK    4  A    between atoms: N_5  and  C_6
REMARK    5  A    between atoms: C_13  and  N_14
REMARK                            x       y       z     vdW  Elec       q    Type
REMARK                         _______ _______ _______ _____ _____    ______ ____
ROOT
ATOM      1  C   UNL     1       2.346   5.862  19.824  0.00  0.00    +0.000 A 
ATOM      2  C   UNL     1       1.528   5.003  20.549  0.00  0.00    +0.000 A 
ATOM      3  N   UNL     1       1.449   3.680  20.318  0.00  0.00    +0.000 NA
ATOM      4  N   UNL     1       2.199   3.139  19.321  0.00  0.00    +0.000 NA
ATOM      5  C   UNL     1       2.995   3.905  18.559  0.00  0.00    +0.000 A 
ATOM      6  C   UNL     1       3.726   3.298  17.538  0.00  0.00    +0.000 A 
ATOM      7  C   UNL     1       4.567   4.024  16.690  0.00  0.00    +0.000 A 
ATOM      8  C   UNL     1       4.669   5.400  16.865  0.00  0.00    +0.000 A 
ATOM      9  C   UNL     1       3.931   6.032  17.870  0.00  0.00    +0.000 A 
ATOM     10  C   UNL     1       3.097   5.299  18.757  0.00  0.00    +0.000 A 
ENDROOT
BRANCH   8  11
ATOM     11  N   UNL     1       5.552   6.196  16.003  0.00  0.00    +0.000 N 
ATOM     12  O   UNL     1       5.019   7.008  15.230  0.00  0.00    +0.000 OA
ATOM     13  O   UNL     1       6.774   6.016  16.097  0.00  0.00    +0.000 OA
ENDBRANCH   8  11
BRANCH   1  14
ATOM     14  N   UNL     1       2.292   7.248  20.153  0.00  0.00    +0.000 N 
ATOM     15  H   UNL     1       3.241   7.607  20.281  0.00  0.00    +0.000 HD
BRANCH  14  19
ATOM     16  C   UNL     1      -0.187   9.134  22.067  0.00  0.00    +0.000 C 
ATOM     17  C   UNL     1       0.751   8.745  20.950  0.00  0.00    +0.000 C 
ATOM     18  C   UNL     1       0.927   9.692  19.792  0.00  0.00    +0.000 C 
ATOM     19  N   UNL     1       1.370   7.611  21.080  0.00  0.00    +0.000 NA
ENDBRANCH  14  19
ENDBRANCH   1  14
TORSDOF 3
ENDMDL
MODEL 8
REMARK VINA RESULT:      -6.8      3.726      7.057
REMARK  Name = 
REMARK  5 active torsions:
REMARK  status: ('A' for Active; 'I' for Inactive)
REMARK    1  A    between atoms: C_1  and  C_2
REMARK    2  A    between atoms: C_2  and  C_3
REMARK    3  A    between atoms: N_4  and  N_5
REMARK    4  A    between atoms: N_5  and  C_6
REMARK    5  A    between atoms: C_13  and  N_14
REMARK                            x       y       z     vdW  Elec       q    Type
REMARK                         _______ _______ _______ _____ _____    ______ ____
ROOT
ATOM      1  C   UNL     1       2.299   5.726  19.990  0.00  0.00    +0.000 A 
ATOM      2  C   UNL     1       1.403   4.837  20.574  0.00  0.00    +0.000 A 
ATOM      3  N   UNL     1       1.207   3.583  20.131  0.00  0.00    +0.000 NA
ATOM      4  N   UNL     1       1.910   3.147  19.051  0.00  0.00    +0.000 NA
ATOM      5  C   UNL     1       2.774   3.953  18.416  0.00  0.00    +0.000 A 
ATOM      6  C   UNL     1       3.452   3.459  17.302  0.00  0.00    +0.000 A 
ATOM      7  C   UNL     1       4.359   4.236  16.575  0.00  0.00    +0.000 A 
ATOM      8  C   UNL     1       4.583   5.550  16.971  0.00  0.00    +0.000 A 
ATOM      9  C   UNL     1       3.901   6.072  18.074  0.00  0.00    +0.000 A 
ATOM     10  C   UNL     1       3.000   5.281  18.838  0.00  0.00    +0.000 A 
ENDROOT
BRANCH   8  11
ATOM     11  N   UNL     1       5.537   6.394  16.241  0.00  0.00    +0.000 N 
ATOM     12  O   UNL     1       6.658   6.563  16.747  0.00  0.00    +0.000 OA
ATOM     13  O   UNL     1       5.173   6.887  15.164  0.00  0.00    +0.000 OA
ENDBRANCH   8  11
BRANCH   1  14
ATOM     14  N   UNL     1       2.368   7.040  20.541  0.00  0.00    +0.000 N 
ATOM     15  H   UNL     1       2.262   6.990  21.558  0.00  0.00    +0.000 HD
BRANCH  14  19
ATOM     16  C   UNL     1       0.193   9.888  19.823  0.00  0.00    +0.000 C 
ATOM     17  C   UNL     1       1.045   8.911  20.593  0.00  0.00    +0.000 C 
ATOM     18  C   UNL     1       1.109   9.034  22.093  0.00  0.00    +0.000 C 
ATOM     19  N   UNL     1       1.657   8.000  19.899  0.00  0.00    +0.000 NA
ENDBRANCH  14  19
ENDBRANCH   1  14
TORSDOF 3
ENDMDL
MODEL 9
REMARK VINA RESULT:      -6.8      3.949      4.932
REMARK  Name = 
REMARK  5 active torsions:
REMARK  status: ('A' for Active; 'I' for Inactive)
REMARK    1  A    between atoms: C_1  and  C_2
REMARK    2  A    between atoms: C_2  and  C_3
REMARK    3  A    between atoms: N_4  and  N_5
REMARK    4  A    between atoms: N_5  and  C_6
REMARK    5  A    between atoms: C_13  and  N_14
REMARK                            x       y       z     vdW  Elec       q    Type
REMARK                         _______ _______ _______ _____ _____    ______ ____
ROOT
ATOM      1  C   UNL     1       4.024   6.598  17.813  0.00  0.00    +0.000 A 
ATOM      2  C   UNL     1       3.336   7.805  17.844  0.00  0.00    +0.000 A 
ATOM      3  N   UNL     1       2.309   8.053  18.677  0.00  0.00    +0.000 NA
ATOM      4  N   UNL     1       1.907   7.078  19.536  0.00  0.00    +0.000 NA
ATOM      5  C   UNL     1       2.503   5.877  19.549  0.00  0.00    +0.000 A 
ATOM      6  C   UNL     1       2.035   4.908  20.437  0.00  0.00    +0.000 A 
ATOM      7  C   UNL     1       2.590   3.628  20.505  0.00  0.00    +0.000 A 
ATOM      8  C   UNL     1       3.638   3.305  19.649  0.00  0.00    +0.000 A 
ATOM      9  C   UNL     1       4.111   4.254  18.739  0.00  0.00    +0.000 A 
ATOM     10  C   UNL     1       3.574   5.569  18.682  0.00  0.00    +0.000 A 
ENDROOT
BRANCH   8  11
ATOM     11  N   UNL     1       4.257   1.975  19.699  0.00  0.00    +0.000 N 
ATOM     12  O   UNL     1       3.898   1.143  18.851  0.00  0.00    +0.000 OA
ATOM     13  O   UNL     1       5.102   1.758  20.580  0.00  0.00    +0.000 OA
ENDBRANCH   8  11
BRANCH   1  14
ATOM     14  N   UNL     1       5.063   6.464  16.844  0.00  0.00    +0.000 N 
ATOM     15  H   UNL     1       5.368   5.489  16.803  0.00  0.00    +0.000 HD
BRANCH  14  19
ATOM     16  C   UNL     1       8.118   8.316  17.619  0.00  0.00    +0.000 C 
ATOM     17  C   UNL     1       7.121   7.186  17.549  0.00  0.00    +0.000 C 
ATOM     18  C   UNL     1       7.429   5.905  18.279  0.00  0.00    +0.000 C 
ATOM     19  N   UNL     1       6.036   7.409  16.871  0.00  0.00    +0.000 NA
ENDBRANCH  14  19
ENDBRANCH   1  14
TORSDOF 3
ENDMDL
