MODEL 1
REMARK VINA RESULT:      -8.7      0.000      0.000
REMARK  Name = 
REMARK  11 active torsions:
REMARK  status: ('A' for Active; 'I' for Inactive)
REMARK    1  A    between atoms: C_1  and  C_2
REMARK    2  A    between atoms: C_2  and  O_3
REMARK    3  A    between atoms: O_3  and  C_4
REMARK    4  A    between atoms: C_4  and  C_6
REMARK    5  A    between atoms: C_9  and  C_10
REMARK    6  A    between atoms: C_11  and  C_12
REMARK    7  A    between atoms: C_12  and  C_13
REMARK    8  A    between atoms: C_15  and  O_16
REMARK    9  A    between atoms: N_19  and  C_20
REMARK   10  A    between atoms: C_20  and  C_21
REMARK   11  A    between atoms: C_21  and  C_22
REMARK                            x       y       z     vdW  Elec       q    Type
REMARK                         _______ _______ _______ _____ _____    ______ ____
ROOT
ATOM      1  C   UNL     1       2.448   5.324  18.139  0.00  0.00    +0.000 C 
ATOM      2  C   UNL     1       2.514   4.575  19.431  0.00  0.00    +0.000 C 
ATOM      3  C   UNL     1       2.359   5.377  20.487  0.00  0.00    +0.000 C 
ATOM      4  C   UNL     1       2.096   6.743  19.955  0.00  0.00    +0.000 C 
ATOM      5  O   UNL     1       1.731   7.700  20.623  0.00  0.00    +0.000 OA
ATOM      6  N   UNL     1       2.313   6.692  18.587  0.00  0.00    +0.000 N 
ENDROOT
BRANCH   1  10
ATOM      7  C   UNL     1       5.800   4.810  15.473  0.00  0.00    +0.000 A 
ATOM      8  C   UNL     1       5.519   6.069  16.015  0.00  0.00    +0.000 A 
ATOM      9  C   UNL     1       4.463   6.227  16.911  0.00  0.00    +0.000 A 
ATOM     10  C   UNL     1       3.665   5.128  17.266  0.00  0.00    +0.000 A 
ATOM     11  C   UNL     1       3.974   3.863  16.742  0.00  0.00    +0.000 A 
ATOM     12  C   UNL     1       5.029   3.705  15.848  0.00  0.00    +0.000 A 
BRANCH   7  13
ATOM     13  C   UNL     1       6.870   4.712  14.450  0.00  0.00    +0.000 C 
ATOM     14  O   UNL     1       7.688   5.597  14.254  0.00  0.00    +0.000 OA
BRANCH  13  15
ATOM     15  O   UNL     1       6.712   3.587  13.714  0.00  0.00    +0.000 OA
BRANCH  15  17
ATOM     16  C   UNL     1       5.103   3.330  11.968  0.00  0.00    +0.000 C 
ATOM     17  C   UNL     1       6.507   3.796  12.312  0.00  0.00    +0.000 C 
ENDBRANCH  15  17
ENDBRANCH  13  15
ENDBRANCH   7  13
ENDBRANCH   1  10
BRANCH   2  18
ATOM     18  C   UNL     1       2.822   3.137  19.585  0.00  0.00    +0.000 C 
ATOM     19  C   UNL     1       1.846   2.089  19.156  0.00  0.00    +0.000 C 
ATOM     20  O   UNL     1       3.870   2.820  20.153  0.00  0.00    +0.000 OA
ENDBRANCH   2  18
BRANCH   3  21
ATOM     21  O   UNL     1       2.399   5.051  21.819  0.00  0.00    +0.000 OA
ATOM     22  H   UNL     1       1.752   4.323  21.950  0.00  0.00    +0.000 HD
ENDBRANCH   3  21
BRANCH   6  23
ATOM     23  C   UNL     1       1.910   7.753  17.670  0.00  0.00    +0.000 C 
BRANCH  23  24
ATOM     24  C   UNL     1       2.314   9.181  18.031  0.00  0.00    +0.000 C 
BRANCH  24  25
ATOM     25  C   UNL     1       1.242  10.151  18.420  0.00  0.00    +0.000 A 
ATOM     26  C   UNL     1       1.510  11.267  19.193  0.00  0.00    +0.000 A 
ATOM     27  N   UNL     1       0.361  11.457  19.899  0.00  0.00    +0.000 N 
ATOM     28  C   UNL     1      -0.688  11.161  19.075  0.00  0.00    +0.000 A 
ATOM     29  C   UNL     1      -2.013  11.607  19.109  0.00  0.00    +0.000 A 
ATOM     30  C   UNL     1      -2.859  11.091  18.151  0.00  0.00    +0.000 A 
ATOM     31  C   UNL     1      -2.438  10.064  17.293  0.00  0.00    +0.000 A 
ATOM     32  C   UNL     1      -1.114   9.580  17.327  0.00  0.00    +0.000 A 
ATOM     33  C   UNL     1      -0.182  10.209  18.180  0.00  0.00    +0.000 A 
ATOM     34  H   UNL     1       0.304  11.623  20.895  0.00  0.00    +0.000 HD
ENDBRANCH  24  25
ENDBRANCH  23  24
ENDBRANCH   6  23
TORSDOF 9
ENDMDL
MODEL 2
REMARK VINA RESULT:      -8.3      2.351      7.908
REMARK  Name = 
REMARK  11 active torsions:
REMARK  status: ('A' for Active; 'I' for Inactive)
REMARK    1  A    between atoms: C_1  and  C_2
REMARK    2  A    between atoms: C_2  and  O_3
REMARK    3  A    between atoms: O_3  and  C_4
REMARK    4  A    between atoms: C_4  and  C_6
REMARK    5  A    between atoms: C_9  and  C_10
REMARK    6  A    between atoms: C_11  and  C_12
REMARK    7  A    between atoms: C_12  and  C_13
REMARK    8  A    between atoms: C_15  and  O_16
REMARK    9  A    between atoms: N_19  and  C_20
REMARK   10  A    between atoms: C_20  and  C_21
REMARK   11  A    between atoms: C_21  and  C_22
REMARK                            x       y       z     vdW  Elec       q    Type
REMARK                         _______ _______ _______ _____ _____    ______ ____
ROOT
ATOM      1  C   UNL     1       3.536   4.861  19.385  0.00  0.00    +0.000 C 
ATOM      2  C   UNL     1       2.584   3.712  19.470  0.00  0.00    +0.000 C 
ATOM      3  C   UNL     1       2.739   2.854  18.458  0.00  0.00    +0.000 C 
ATOM      4  C   UNL     1       3.888   3.347  17.648  0.00  0.00    +0.000 C 
ATOM      5  O   UNL     1       4.431   2.724  16.747  0.00  0.00    +0.000 OA
ATOM      6  N   UNL     1       4.218   4.600  18.137  0.00  0.00    +0.000 N 
ENDROOT
BRANCH   1  10
ATOM      7  C   UNL     1       1.402   8.609  19.370  0.00  0.00    +0.000 A 
ATOM      8  C   UNL     1       1.599   7.917  20.570  0.00  0.00    +0.000 A 
ATOM      9  C   UNL     1       2.327   6.729  20.582  0.00  0.00    +0.000 A 
ATOM     10  C   UNL     1       2.855   6.209  19.390  0.00  0.00    +0.000 A 
ATOM     11  C   UNL     1       2.679   6.927  18.197  0.00  0.00    +0.000 A 
ATOM     12  C   UNL     1       1.953   8.114  18.184  0.00  0.00    +0.000 A 
BRANCH   7  13
ATOM     13  C   UNL     1       0.538   9.816  19.393  0.00  0.00    +0.000 C 
ATOM     14  O   UNL     1       0.252  10.412  20.419  0.00  0.00    +0.000 OA
BRANCH  13  15
ATOM     15  O   UNL     1       0.037  10.056  18.158  0.00  0.00    +0.000 OA
BRANCH  15  17
ATOM     16  C   UNL     1      -2.135   9.925  17.174  0.00  0.00    +0.000 C 
ATOM     17  C   UNL     1      -1.245  10.696  18.132  0.00  0.00    +0.000 C 
ENDBRANCH  15  17
ENDBRANCH  13  15
ENDBRANCH   7  13
ENDBRANCH   1  10
BRANCH   2  18
ATOM     18  C   UNL     1       1.507   3.550  20.469  0.00  0.00    +0.000 C 
ATOM     19  C   UNL     1       1.814   3.151  21.876  0.00  0.00    +0.000 C 
ATOM     20  O   UNL     1       0.338   3.670  20.094  0.00  0.00    +0.000 OA
ENDBRANCH   2  18
BRANCH   3  21
ATOM     21  O   UNL     1       2.024   1.714  18.190  0.00  0.00    +0.000 OA
ATOM     22  H   UNL     1       2.484   1.260  17.450  0.00  0.00    +0.000 HD
ENDBRANCH   3  21
BRANCH   6  23
ATOM     23  C   UNL     1       5.449   5.300  17.785  0.00  0.00    +0.000 C 
BRANCH  23  24
ATOM     24  C   UNL     1       5.504   5.978  16.419  0.00  0.00    +0.000 C 
BRANCH  24  25
ATOM     25  C   UNL     1       6.303   5.332  15.330  0.00  0.00    +0.000 A 
ATOM     26  C   UNL     1       7.687   5.345  15.331  0.00  0.00    +0.000 A 
ATOM     27  N   UNL     1       8.013   5.360  14.009  0.00  0.00    +0.000 N 
ATOM     28  C   UNL     1       7.118   4.562  13.350  0.00  0.00    +0.000 A 
ATOM     29  C   UNL     1       7.247   3.872  12.142  0.00  0.00    +0.000 A 
ATOM     30  C   UNL     1       6.139   3.174  11.711  0.00  0.00    +0.000 A 
ATOM     31  C   UNL     1       4.911   3.284  12.382  0.00  0.00    +0.000 A 
ATOM     32  C   UNL     1       4.789   4.046  13.562  0.00  0.00    +0.000 A 
ATOM     33  C   UNL     1       5.947   4.631  14.117  0.00  0.00    +0.000 A 
ATOM     34  H   UNL     1       8.685   5.977  13.575  0.00  0.00    +0.000 HD
ENDBRANCH  24  25
ENDBRANCH  23  24
ENDBRANCH   6  23
TORSDOF 9
ENDMDL
MODEL 3
REMARK VINA RESULT:      -8.2      2.557      8.227
REMARK  Name = 
REMARK  11 active torsions:
REMARK  status: ('A' for Active; 'I' for Inactive)
REMARK    1  A    between atoms: C_1  and  C_2
REMARK    2  A    between atoms: C_2  and  O_3
REMARK    3  A    between atoms: O_3  and  C_4
REMARK    4  A    between atoms: C_4  and  C_6
REMARK    5  A    between atoms: C_9  and  C_10
REMARK    6  A    between atoms: C_11  and  C_12
REMARK    7  A    between atoms: C_12  and  C_13
REMARK    8  A    between atoms: C_15  and  O_16
REMARK    9  A    between atoms: N_19  and  C_20
REMARK   10  A    between atoms: C_20  and  C_21
REMARK   11  A    between atoms: C_21  and  C_22
REMARK                            x       y       z     vdW  Elec       q    Type
REMARK                         _______ _______ _______ _____ _____    ______ ____
ROOT
ATOM      1  C   UNL     1       3.473   5.039  19.298  0.00  0.00    +0.000 C 
ATOM      2  C   UNL     1       2.540   3.883  19.461  0.00  0.00    +0.000 C 
ATOM      3  C   UNL     1       2.612   3.029  18.437  0.00  0.00    +0.000 C 
ATOM      4  C   UNL     1       3.682   3.533  17.532  0.00  0.00    +0.000 C 
ATOM      5  O   UNL     1       4.149   2.917  16.584  0.00  0.00    +0.000 OA
ATOM      6  N   UNL     1       4.046   4.787  17.995  0.00  0.00    +0.000 N 
ENDROOT
BRANCH   1  10
ATOM      7  C   UNL     1       1.322   8.774  19.463  0.00  0.00    +0.000 A 
ATOM      8  C   UNL     1       1.528   8.029  20.629  0.00  0.00    +0.000 A 
ATOM      9  C   UNL     1       2.261   6.845  20.584  0.00  0.00    +0.000 A 
ATOM     10  C   UNL     1       2.786   6.382  19.368  0.00  0.00    +0.000 A 
ATOM     11  C   UNL     1       2.601   7.153  18.209  0.00  0.00    +0.000 A 
ATOM     12  C   UNL     1       1.870   8.336  18.253  0.00  0.00    +0.000 A 
BRANCH   7  13
ATOM     13  C   UNL     1       0.453   9.975  19.544  0.00  0.00    +0.000 C 
ATOM     14  O   UNL     1       0.658  10.991  18.900  0.00  0.00    +0.000 OA
BRANCH  13  15
ATOM     15  O   UNL     1      -0.486   9.809  20.505  0.00  0.00    +0.000 OA
BRANCH  15  17
ATOM     16  C   UNL     1      -0.592  10.380  22.821  0.00  0.00    +0.000 C 
ATOM     17  C   UNL     1      -0.646  10.915  21.401  0.00  0.00    +0.000 C 
ENDBRANCH  15  17
ENDBRANCH  13  15
ENDBRANCH   7  13
ENDBRANCH   1  10
BRANCH   2  18
ATOM     18  C   UNL     1       1.555   3.710  20.550  0.00  0.00    +0.000 C 
ATOM     19  C   UNL     1       1.967   3.182  21.886  0.00  0.00    +0.000 C 
ATOM     20  O   UNL     1       0.367   3.934  20.306  0.00  0.00    +0.000 OA
ENDBRANCH   2  18
BRANCH   3  21
ATOM     21  O   UNL     1       1.884   1.885  18.228  0.00  0.00    +0.000 OA
ATOM     22  H   UNL     1       1.131   2.133  17.648  0.00  0.00    +0.000 HD
ENDBRANCH   3  21
BRANCH   6  23
ATOM     23  C   UNL     1       5.236   5.496  17.540  0.00  0.00    +0.000 C 
BRANCH  23  24
ATOM     24  C   UNL     1       5.246   5.996  16.097  0.00  0.00    +0.000 C 
BRANCH  24  25
ATOM     25  C   UNL     1       6.143   5.317  15.110  0.00  0.00    +0.000 A 
ATOM     26  C   UNL     1       7.522   5.353  15.226  0.00  0.00    +0.000 A 
ATOM     27  N   UNL     1       7.958   5.315  13.937  0.00  0.00    +0.000 N 
ATOM     28  C   UNL     1       7.132   4.475  13.242  0.00  0.00    +0.000 A 
ATOM     29  C   UNL     1       7.372   3.735  12.081  0.00  0.00    +0.000 A 
ATOM     30  C   UNL     1       6.313   3.000  11.591  0.00  0.00    +0.000 A 
ATOM     31  C   UNL     1       5.032   3.119  12.151  0.00  0.00    +0.000 A 
ATOM     32  C   UNL     1       4.801   3.930  13.280  0.00  0.00    +0.000 A 
ATOM     33  C   UNL     1       5.900   4.558  13.904  0.00  0.00    +0.000 A 
ATOM     34  H   UNL     1       8.656   5.925  13.534  0.00  0.00    +0.000 HD
ENDBRANCH  24  25
ENDBRANCH  23  24
ENDBRANCH   6  23
TORSDOF 9
ENDMDL
MODEL 4
REMARK VINA RESULT:      -8.2      2.334      7.955
REMARK  Name = 
REMARK  11 active torsions:
REMARK  status: ('A' for Active; 'I' for Inactive)
REMARK    1  A    between atoms: C_1  and  C_2
REMARK    2  A    between atoms: C_2  and  O_3
REMARK    3  A    between atoms: O_3  and  C_4
REMARK    4  A    between atoms: C_4  and  C_6
REMARK    5  A    between atoms: C_9  and  C_10
REMARK    6  A    between atoms: C_11  and  C_12
REMARK    7  A    between atoms: C_12  and  C_13
REMARK    8  A    between atoms: C_15  and  O_16
REMARK    9  A    between atoms: N_19  and  C_20
REMARK   10  A    between atoms: C_20  and  C_21
REMARK   11  A    between atoms: C_21  and  C_22
REMARK                            x       y       z     vdW  Elec       q    Type
REMARK                         _______ _______ _______ _____ _____    ______ ____
ROOT
ATOM      1  C   UNL     1       3.443   4.881  19.325  0.00  0.00    +0.000 C 
ATOM      2  C   UNL     1       2.565   3.676  19.423  0.00  0.00    +0.000 C 
ATOM      3  C   UNL     1       2.797   2.802  18.439  0.00  0.00    +0.000 C 
ATOM      4  C   UNL     1       3.929   3.347  17.639  0.00  0.00    +0.000 C 
ATOM      5  O   UNL     1       4.531   2.738  16.766  0.00  0.00    +0.000 OA
ATOM      6  N   UNL     1       4.167   4.632  18.099  0.00  0.00    +0.000 N 
ENDROOT
BRANCH   1  10
ATOM      7  C   UNL     1       1.442   8.701  19.219  0.00  0.00    +0.000 A 
ATOM      8  C   UNL     1       1.906   8.117  18.035  0.00  0.00    +0.000 A 
ATOM      9  C   UNL     1       2.513   6.863  18.063  0.00  0.00    +0.000 A 
ATOM     10  C   UNL     1       2.676   6.182  19.279  0.00  0.00    +0.000 A 
ATOM     11  C   UNL     1       2.179   6.762  20.457  0.00  0.00    +0.000 A 
ATOM     12  C   UNL     1       1.572   8.014  20.430  0.00  0.00    +0.000 A 
BRANCH   7  13
ATOM     13  C   UNL     1       0.893  10.078  19.151  0.00  0.00    +0.000 C 
ATOM     14  O   UNL     1       1.594  11.077  19.169  0.00  0.00    +0.000 OA
BRANCH  13  15
ATOM     15  O   UNL     1      -0.460  10.046  19.196  0.00  0.00    +0.000 OA
BRANCH  15  17
ATOM     16  C   UNL     1      -2.511  11.112  18.599  0.00  0.00    +0.000 C 
ATOM     17  C   UNL     1      -1.125  10.720  18.121  0.00  0.00    +0.000 C 
ENDBRANCH  15  17
ENDBRANCH  13  15
ENDBRANCH   7  13
ENDBRANCH   1  10
BRANCH   2  18
ATOM     18  C   UNL     1       1.479   3.470  20.405  0.00  0.00    +0.000 C 
ATOM     19  C   UNL     1       1.781   3.137  21.831  0.00  0.00    +0.000 C 
ATOM     20  O   UNL     1       0.314   3.498  20.003  0.00  0.00    +0.000 OA
ENDBRANCH   2  18
BRANCH   3  21
ATOM     21  O   UNL     1       2.163   1.612  18.189  0.00  0.00    +0.000 OA
ATOM     22  H   UNL     1       1.544   1.774  17.444  0.00  0.00    +0.000 HD
ENDBRANCH   3  21
BRANCH   6  23
ATOM     23  C   UNL     1       5.358   5.401  17.752  0.00  0.00    +0.000 C 
BRANCH  23  24
ATOM     24  C   UNL     1       5.409   6.024  16.360  0.00  0.00    +0.000 C 
BRANCH  24  25
ATOM     25  C   UNL     1       6.250   5.365  15.311  0.00  0.00    +0.000 A 
ATOM     26  C   UNL     1       7.633   5.393  15.357  0.00  0.00    +0.000 A 
ATOM     27  N   UNL     1       8.002   5.385  14.046  0.00  0.00    +0.000 N 
ATOM     28  C   UNL     1       7.137   4.565  13.375  0.00  0.00    +0.000 A 
ATOM     29  C   UNL     1       7.313   3.854  12.185  0.00  0.00    +0.000 A 
ATOM     30  C   UNL     1       6.226   3.135  11.732  0.00  0.00    +0.000 A 
ATOM     31  C   UNL     1       4.977   3.246  12.360  0.00  0.00    +0.000 A 
ATOM     32  C   UNL     1       4.808   4.029  13.520  0.00  0.00    +0.000 A 
ATOM     33  C   UNL     1       5.941   4.637  14.101  0.00  0.00    +0.000 A 
ATOM     34  H   UNL     1       8.682   6.001  13.623  0.00  0.00    +0.000 HD
ENDBRANCH  24  25
ENDBRANCH  23  24
ENDBRANCH   6  23
TORSDOF 9
ENDMDL
MODEL 5
REMARK VINA RESULT:      -8.1      1.295      2.078
REMARK  Name = 
REMARK  11 active torsions:
REMARK  status: ('A' for Active; 'I' for Inactive)
REMARK    1  A    between atoms: C_1  and  C_2
REMARK    2  A    between atoms: C_2  and  O_3
REMARK    3  A    between atoms: O_3  and  C_4
REMARK    4  A    between atoms: C_4  and  C_6
REMARK    5  A    between atoms: C_9  and  C_10
REMARK    6  A    between atoms: C_11  and  C_12
REMARK    7  A    between atoms: C_12  and  C_13
REMARK    8  A    between atoms: C_15  and  O_16
REMARK    9  A    between atoms: N_19  and  C_20
REMARK   10  A    between atoms: C_20  and  C_21
REMARK   11  A    between atoms: C_21  and  C_22
REMARK                            x       y       z     vdW  Elec       q    Type
REMARK                         _______ _______ _______ _____ _____    ______ ____
ROOT
ATOM      1  C   UNL     1       2.398   5.856  18.009  0.00  0.00    +0.000 C 
ATOM      2  C   UNL     1       2.093   4.833  19.055  0.00  0.00    +0.000 C 
ATOM      3  C   UNL     1       1.989   5.373  20.273  0.00  0.00    +0.000 C 
ATOM      4  C   UNL     1       2.148   6.844  20.105  0.00  0.00    +0.000 C 
ATOM      5  O   UNL     1       1.936   7.678  20.975  0.00  0.00    +0.000 OA
ATOM      6  N   UNL     1       2.539   7.062  18.794  0.00  0.00    +0.000 N 
ENDROOT
BRANCH   1  10
ATOM      7  C   UNL     1       5.832   4.988  15.548  0.00  0.00    +0.000 A 
ATOM      8  C   UNL     1       5.509   6.312  15.861  0.00  0.00    +0.000 A 
ATOM      9  C   UNL     1       4.426   6.592  16.693  0.00  0.00    +0.000 A 
ATOM     10  C   UNL     1       3.643   5.548  17.211  0.00  0.00    +0.000 A 
ATOM     11  C   UNL     1       3.994   4.221  16.916  0.00  0.00    +0.000 A 
ATOM     12  C   UNL     1       5.076   3.942  16.086  0.00  0.00    +0.000 A 
BRANCH   7  13
ATOM     13  C   UNL     1       6.932   4.746  14.581  0.00  0.00    +0.000 C 
ATOM     14  O   UNL     1       7.866   5.518  14.427  0.00  0.00    +0.000 OA
BRANCH  13  15
ATOM     15  O   UNL     1       6.669   3.645  13.838  0.00  0.00    +0.000 OA
BRANCH  15  17
ATOM     16  C   UNL     1       5.243   3.160  11.986  0.00  0.00    +0.000 C 
ATOM     17  C   UNL     1       6.503   3.879  12.435  0.00  0.00    +0.000 C 
ENDBRANCH  15  17
ENDBRANCH  13  15
ENDBRANCH   7  13
ENDBRANCH   1  10
BRANCH   2  18
ATOM     18  C   UNL     1       2.013   3.372  18.843  0.00  0.00    +0.000 C 
ATOM     19  C   UNL     1       3.004   2.447  19.473  0.00  0.00    +0.000 C 
ATOM     20  O   UNL     1       1.159   2.939  18.066  0.00  0.00    +0.000 OA
ENDBRANCH   2  18
BRANCH   3  21
ATOM     21  O   UNL     1       1.755   4.742  21.468  0.00  0.00    +0.000 OA
ATOM     22  H   UNL     1       2.622   4.403  21.782  0.00  0.00    +0.000 HD
ENDBRANCH   3  21
BRANCH   6  23
ATOM     23  C   UNL     1       2.545   8.379  18.166  0.00  0.00    +0.000 C 
BRANCH  23  24
ATOM     24  C   UNL     1       1.193   9.042  17.917  0.00  0.00    +0.000 C 
BRANCH  24  25
ATOM     25  C   UNL     1       0.847  10.276  18.691  0.00  0.00    +0.000 A 
ATOM     26  C   UNL     1      -0.152  10.283  19.649  0.00  0.00    +0.000 A 
ATOM     27  N   UNL     1      -0.648  11.550  19.591  0.00  0.00    +0.000 N 
ATOM     28  C   UNL     1       0.402  12.399  19.376  0.00  0.00    +0.000 A 
ATOM     29  C   UNL     1       0.541  13.755  19.687  0.00  0.00    +0.000 A 
ATOM     30  C   UNL     1       1.721  14.355  19.302  0.00  0.00    +0.000 A 
ATOM     31  C   UNL     1       2.654  13.670  18.509  0.00  0.00    +0.000 A 
ATOM     32  C   UNL     1       2.456  12.322  18.147  0.00  0.00    +0.000 A 
ATOM     33  C   UNL     1       1.340  11.635  18.670  0.00  0.00    +0.000 A 
ATOM     34  H   UNL     1      -1.627  11.797  19.548  0.00  0.00    +0.000 HD
ENDBRANCH  24  25
ENDBRANCH  23  24
ENDBRANCH   6  23
TORSDOF 9
ENDMDL
MODEL 6
REMARK VINA RESULT:      -8.1      2.606      8.156
REMARK  Name = 
REMARK  11 active torsions:
REMARK  status: ('A' for Active; 'I' for Inactive)
REMARK    1  A    between atoms: C_1  and  C_2
REMARK    2  A    between atoms: C_2  and  O_3
REMARK    3  A    between atoms: O_3  and  C_4
REMARK    4  A    between atoms: C_4  and  C_6
REMARK    5  A    between atoms: C_9  and  C_10
REMARK    6  A    between atoms: C_11  and  C_12
REMARK    7  A    between atoms: C_12  and  C_13
REMARK    8  A    between atoms: C_15  and  O_16
REMARK    9  A    between atoms: N_19  and  C_20
REMARK   10  A    between atoms: C_20  and  C_21
REMARK   11  A    between atoms: C_21  and  C_22
REMARK                            x       y       z     vdW  Elec       q    Type
REMARK                         _______ _______ _______ _____ _____    ______ ____
ROOT
ATOM      1  C   UNL     1       3.400   4.925  19.380  0.00  0.00    +0.000 C 
ATOM      2  C   UNL     1       2.529   3.717  19.500  0.00  0.00    +0.000 C 
ATOM      3  C   UNL     1       2.703   2.867  18.484  0.00  0.00    +0.000 C 
ATOM      4  C   UNL     1       3.788   3.432  17.633  0.00  0.00    +0.000 C 
ATOM      5  O   UNL     1       4.338   2.843  16.713  0.00  0.00    +0.000 OA
ATOM      6  N   UNL     1       4.053   4.706  18.109  0.00  0.00    +0.000 N 
ENDROOT
BRANCH   1  10
ATOM      7  C   UNL     1       1.396   8.743  19.502  0.00  0.00    +0.000 A 
ATOM      8  C   UNL     1       1.906   8.255  18.294  0.00  0.00    +0.000 A 
ATOM      9  C   UNL     1       2.513   7.002  18.245  0.00  0.00    +0.000 A 
ATOM     10  C   UNL     1       2.633   6.226  19.409  0.00  0.00    +0.000 A 
ATOM     11  C   UNL     1       2.091   6.711  20.609  0.00  0.00    +0.000 A 
ATOM     12  C   UNL     1       1.483   7.962  20.659  0.00  0.00    +0.000 A 
BRANCH   7  13
ATOM     13  C   UNL     1       0.847  10.122  19.523  0.00  0.00    +0.000 C 
ATOM     14  O   UNL     1       0.398  10.676  18.532  0.00  0.00    +0.000 OA
BRANCH  13  15
ATOM     15  O   UNL     1       1.041  10.684  20.739  0.00  0.00    +0.000 OA
BRANCH  15  17
ATOM     16  C   UNL     1      -0.052  12.735  21.288  0.00  0.00    +0.000 C 
ATOM     17  C   UNL     1      -0.134  11.221  21.359  0.00  0.00    +0.000 C 
ENDBRANCH  15  17
ENDBRANCH  13  15
ENDBRANCH   7  13
ENDBRANCH   1  10
BRANCH   2  18
ATOM     18  C   UNL     1       1.501   3.488  20.537  0.00  0.00    +0.000 C 
ATOM     19  C   UNL     1       1.878   3.030  21.909  0.00  0.00    +0.000 C 
ATOM     20  O   UNL     1       0.314   3.603  20.221  0.00  0.00    +0.000 OA
ENDBRANCH   2  18
BRANCH   3  21
ATOM     21  O   UNL     1       2.055   1.683  18.242  0.00  0.00    +0.000 OA
ATOM     22  H   UNL     1       1.291   1.893  17.662  0.00  0.00    +0.000 HD
ENDBRANCH   3  21
BRANCH   6  23
ATOM     23  C   UNL     1       5.222   5.483  17.713  0.00  0.00    +0.000 C 
BRANCH  23  24
ATOM     24  C   UNL     1       5.248   6.033  16.288  0.00  0.00    +0.000 C 
BRANCH  24  25
ATOM     25  C   UNL     1       6.152   5.384  15.287  0.00  0.00    +0.000 A 
ATOM     26  C   UNL     1       7.530   5.432  15.404  0.00  0.00    +0.000 A 
ATOM     27  N   UNL     1       7.967   5.426  14.114  0.00  0.00    +0.000 N 
ATOM     28  C   UNL     1       7.151   4.592  13.402  0.00  0.00    +0.000 A 
ATOM     29  C   UNL     1       7.398   3.879  12.226  0.00  0.00    +0.000 A 
ATOM     30  C   UNL     1       6.347   3.143  11.720  0.00  0.00    +0.000 A 
ATOM     31  C   UNL     1       5.065   3.237  12.283  0.00  0.00    +0.000 A 
ATOM     32  C   UNL     1       4.825   4.021  13.429  0.00  0.00    +0.000 A 
ATOM     33  C   UNL     1       5.917   4.647  14.066  0.00  0.00    +0.000 A 
ATOM     34  H   UNL     1       8.659   6.051  13.725  0.00  0.00    +0.000 HD
ENDBRANCH  24  25
ENDBRANCH  23  24
ENDBRANCH   6  23
TORSDOF 9
ENDMDL
MODEL 7
REMARK VINA RESULT:      -8.1      2.636      8.176
REMARK  Name = 
REMARK  11 active torsions:
REMARK  status: ('A' for Active; 'I' for Inactive)
REMARK    1  A    between atoms: C_1  and  C_2
REMARK    2  A    between atoms: C_2  and  O_3
REMARK    3  A    between atoms: O_3  and  C_4
REMARK    4  A    between atoms: C_4  and  C_6
REMARK    5  A    between atoms: C_9  and  C_10
REMARK    6  A    between atoms: C_11  and  C_12
REMARK    7  A    between atoms: C_12  and  C_13
REMARK    8  A    between atoms: C_15  and  O_16
REMARK    9  A    between atoms: N_19  and  C_20
REMARK   10  A    between atoms: C_20  and  C_21
REMARK   11  A    between atoms: C_21  and  C_22
REMARK                            x       y       z     vdW  Elec       q    Type
REMARK                         _______ _______ _______ _____ _____    ______ ____
ROOT
ATOM      1  C   UNL     1       3.750   4.791  19.479  0.00  0.00    +0.000 C 
ATOM      2  C   UNL     1       3.026   3.505  19.712  0.00  0.00    +0.000 C 
ATOM      3  C   UNL     1       3.188   2.646  18.702  0.00  0.00    +0.000 C 
ATOM      4  C   UNL     1       4.118   3.291  17.734  0.00  0.00    +0.000 C 
ATOM      5  O   UNL     1       4.634   2.733  16.776  0.00  0.00    +0.000 OA
ATOM      6  N   UNL     1       4.294   4.600  18.154  0.00  0.00    +0.000 N 
ENDROOT
BRANCH   1  10
ATOM      7  C   UNL     1       1.374   8.380  19.765  0.00  0.00    +0.000 A 
ATOM      8  C   UNL     1       2.003   8.047  18.560  0.00  0.00    +0.000 A 
ATOM      9  C   UNL     1       2.734   6.866  18.454  0.00  0.00    +0.000 A 
ATOM     10  C   UNL     1       2.857   6.007  19.558  0.00  0.00    +0.000 A 
ATOM     11  C   UNL     1       2.196   6.334  20.753  0.00  0.00    +0.000 A 
ATOM     12  C   UNL     1       1.465   7.514  20.859  0.00  0.00    +0.000 A 
BRANCH   7  13
ATOM     13  C   UNL     1       0.690   9.694  19.857  0.00  0.00    +0.000 C 
ATOM     14  O   UNL     1       1.067  10.685  19.251  0.00  0.00    +0.000 OA
BRANCH  13  15
ATOM     15  O   UNL     1      -0.295   9.646  20.784  0.00  0.00    +0.000 OA
BRANCH  15  17
ATOM     16  C   UNL     1      -0.357   9.798  23.167  0.00  0.00    +0.000 C 
ATOM     17  C   UNL     1      -0.155  10.567  21.873  0.00  0.00    +0.000 C 
ENDBRANCH  15  17
ENDBRANCH  13  15
ENDBRANCH   7  13
ENDBRANCH   1  10
BRANCH   2  18
ATOM     18  C   UNL     1       2.135   3.205  20.852  0.00  0.00    +0.000 C 
ATOM     19  C   UNL     1       0.650   3.171  20.682  0.00  0.00    +0.000 C 
ATOM     20  O   UNL     1       2.639   3.062  21.969  0.00  0.00    +0.000 OA
ENDBRANCH   2  18
BRANCH   3  21
ATOM     21  O   UNL     1       2.647   1.394  18.552  0.00  0.00    +0.000 OA
ATOM     22  H   UNL     1       2.873   1.096  17.644  0.00  0.00    +0.000 HD
ENDBRANCH   3  21
BRANCH   6  23
ATOM     23  C   UNL     1       5.331   5.480  17.625  0.00  0.00    +0.000 C 
BRANCH  23  24
ATOM     24  C   UNL     1       5.208   5.910  16.166  0.00  0.00    +0.000 C 
BRANCH  24  25
ATOM     25  C   UNL     1       6.119   5.285  15.155  0.00  0.00    +0.000 A 
ATOM     26  C   UNL     1       7.496   5.370  15.260  0.00  0.00    +0.000 A 
ATOM     27  N   UNL     1       7.920   5.376  13.966  0.00  0.00    +0.000 N 
ATOM     28  C   UNL     1       7.120   4.520  13.261  0.00  0.00    +0.000 A 
ATOM     29  C   UNL     1       7.375   3.814  12.082  0.00  0.00    +0.000 A 
ATOM     30  C   UNL     1       6.339   3.050  11.587  0.00  0.00    +0.000 A 
ATOM     31  C   UNL     1       5.061   3.109  12.161  0.00  0.00    +0.000 A 
ATOM     32  C   UNL     1       4.810   3.887  13.310  0.00  0.00    +0.000 A 
ATOM     33  C   UNL     1       5.892   4.542  13.936  0.00  0.00    +0.000 A 
ATOM     34  H   UNL     1       8.592   6.019  13.570  0.00  0.00    +0.000 HD
ENDBRANCH  24  25
ENDBRANCH  23  24
ENDBRANCH   6  23
TORSDOF 9
ENDMDL
MODEL 8
REMARK VINA RESULT:      -8.1      0.975      1.576
REMARK  Name = 
REMARK  11 active torsions:
REMARK  status: ('A' for Active; 'I' for Inactive)
REMARK    1  A    between atoms: C_1  and  C_2
REMARK    2  A    between atoms: C_2  and  O_3
REMARK    3  A    between atoms: O_3  and  C_4
REMARK    4  A    between atoms: C_4  and  C_6
REMARK    5  A    between atoms: C_9  and  C_10
REMARK    6  A    between atoms: C_11  and  C_12
REMARK    7  A    between atoms: C_12  and  C_13
REMARK    8  A    between atoms: C_15  and  O_16
REMARK    9  A    between atoms: N_19  and  C_20
REMARK   10  A    between atoms: C_20  and  C_21
REMARK   11  A    between atoms: C_21  and  C_22
REMARK                            x       y       z     vdW  Elec       q    Type
REMARK                         _______ _______ _______ _____ _____    ______ ____
ROOT
ATOM      1  C   UNL     1       2.471   5.203  18.175  0.00  0.00    +0.000 C 
ATOM      2  C   UNL     1       2.539   4.404  19.435  0.00  0.00    +0.000 C 
ATOM      3  C   UNL     1       2.358   5.160  20.522  0.00  0.00    +0.000 C 
ATOM      4  C   UNL     1       2.075   6.541  20.042  0.00  0.00    +0.000 C 
ATOM      5  O   UNL     1       1.686   7.463  20.744  0.00  0.00    +0.000 OA
ATOM      6  N   UNL     1       2.306   6.549  18.676  0.00  0.00    +0.000 N 
ENDROOT
BRANCH   1  10
ATOM      7  C   UNL     1       5.854   4.831  15.524  0.00  0.00    +0.000 A 
ATOM      8  C   UNL     1       5.455   6.091  15.982  0.00  0.00    +0.000 A 
ATOM      9  C   UNL     1       4.390   6.208  16.874  0.00  0.00    +0.000 A 
ATOM     10  C   UNL     1       3.700   5.066  17.308  0.00  0.00    +0.000 A 
ATOM     11  C   UNL     1       4.128   3.803  16.867  0.00  0.00    +0.000 A 
ATOM     12  C   UNL     1       5.191   3.685  15.977  0.00  0.00    +0.000 A 
BRANCH   7  13
ATOM     13  C   UNL     1       6.927   4.766  14.501  0.00  0.00    +0.000 C 
ATOM     14  O   UNL     1       7.805   5.609  14.401  0.00  0.00    +0.000 OA
BRANCH  13  15
ATOM     15  O   UNL     1       6.704   3.735  13.653  0.00  0.00    +0.000 OA
BRANCH  15  17
ATOM     16  C   UNL     1       5.592   2.724  11.797  0.00  0.00    +0.000 C 
ATOM     17  C   UNL     1       5.647   3.938  12.708  0.00  0.00    +0.000 C 
ENDBRANCH  15  17
ENDBRANCH  13  15
ENDBRANCH   7  13
ENDBRANCH   1  10
BRANCH   2  18
ATOM     18  C   UNL     1       2.871   2.967  19.535  0.00  0.00    +0.000 C 
ATOM     19  C   UNL     1       1.959   1.923  18.974  0.00  0.00    +0.000 C 
ATOM     20  O   UNL     1       3.880   2.641  20.165  0.00  0.00    +0.000 OA
ENDBRANCH   2  18
BRANCH   3  21
ATOM     21  O   UNL     1       2.390   4.780  21.840  0.00  0.00    +0.000 OA
ATOM     22  H   UNL     1       3.236   5.116  22.209  0.00  0.00    +0.000 HD
ENDBRANCH   3  21
BRANCH   6  23
ATOM     23  C   UNL     1       1.894   7.640  17.799  0.00  0.00    +0.000 C 
BRANCH  23  24
ATOM     24  C   UNL     1       1.973   9.058  18.359  0.00  0.00    +0.000 C 
BRANCH  24  25
ATOM     25  C   UNL     1       0.697   9.801  18.610  0.00  0.00    +0.000 A 
ATOM     26  C   UNL     1      -0.312   9.865  17.665  0.00  0.00    +0.000 A 
ATOM     27  N   UNL     1      -0.886  11.080  17.885  0.00  0.00    +0.000 N 
ATOM     28  C   UNL     1      -0.899  11.296  19.235  0.00  0.00    +0.000 A 
ATOM     29  C   UNL     1      -1.740  12.100  20.009  0.00  0.00    +0.000 A 
ATOM     30  C   UNL     1      -1.475  12.143  21.362  0.00  0.00    +0.000 A 
ATOM     31  C   UNL     1      -0.330  11.531  21.892  0.00  0.00    +0.000 A 
ATOM     32  C   UNL     1       0.544  10.784  21.076  0.00  0.00    +0.000 A 
ATOM     33  C   UNL     1       0.204  10.582  19.722  0.00  0.00    +0.000 A 
ATOM     34  H   UNL     1      -1.106  11.764  17.174  0.00  0.00    +0.000 HD
ENDBRANCH  24  25
ENDBRANCH  23  24
ENDBRANCH   6  23
TORSDOF 9
ENDMDL
MODEL 9
REMARK VINA RESULT:      -8.0      1.337      1.746
REMARK  Name = 
REMARK  11 active torsions:
REMARK  status: ('A' for Active; 'I' for Inactive)
REMARK    1  A    between atoms: C_1  and  C_2
REMARK    2  A    between atoms: C_2  and  O_3
REMARK    3  A    between atoms: O_3  and  C_4
REMARK    4  A    between atoms: C_4  and  C_6
REMARK    5  A    between atoms: C_9  and  C_10
REMARK    6  A    between atoms: C_11  and  C_12
REMARK    7  A    between atoms: C_12  and  C_13
REMARK    8  A    between atoms: C_15  and  O_16
REMARK    9  A    between atoms: N_19  and  C_20
REMARK   10  A    between atoms: C_20  and  C_21
REMARK   11  A    between atoms: C_21  and  C_22
REMARK                            x       y       z     vdW  Elec       q    Type
REMARK                         _______ _______ _______ _____ _____    ______ ____
ROOT
ATOM      1  C   UNL     1       2.533   5.596  18.188  0.00  0.00    +0.000 C 
ATOM      2  C   UNL     1       2.367   4.602  19.291  0.00  0.00    +0.000 C 
ATOM      3  C   UNL     1       2.300   5.188  20.490  0.00  0.00    +0.000 C 
ATOM      4  C   UNL     1       2.343   6.658  20.254  0.00  0.00    +0.000 C 
ATOM      5  O   UNL     1       2.127   7.512  21.101  0.00  0.00    +0.000 OA
ATOM      6  N   UNL     1       2.636   6.843  18.912  0.00  0.00    +0.000 N 
ENDROOT
BRANCH   1  10
ATOM      7  C   UNL     1       5.874   4.914  15.545  0.00  0.00    +0.000 A 
ATOM      8  C   UNL     1       5.660   6.182  16.096  0.00  0.00    +0.000 A 
ATOM      9  C   UNL     1       4.608   6.393  16.984  0.00  0.00    +0.000 A 
ATOM     10  C   UNL     1       3.745   5.339  17.323  0.00  0.00    +0.000 A 
ATOM     11  C   UNL     1       3.986   4.062  16.790  0.00  0.00    +0.000 A 
ATOM     12  C   UNL     1       5.038   3.851  15.903  0.00  0.00    +0.000 A 
BRANCH   7  13
ATOM     13  C   UNL     1       6.946   4.764  14.530  0.00  0.00    +0.000 C 
ATOM     14  O   UNL     1       7.825   5.594  14.360  0.00  0.00    +0.000 OA
BRANCH  13  15
ATOM     15  O   UNL     1       6.720   3.667  13.769  0.00  0.00    +0.000 OA
BRANCH  15  17
ATOM     16  C   UNL     1       5.551   2.842  11.857  0.00  0.00    +0.000 C 
ATOM     17  C   UNL     1       6.478   3.924  12.381  0.00  0.00    +0.000 C 
ENDBRANCH  15  17
ENDBRANCH  13  15
ENDBRANCH   7  13
ENDBRANCH   1  10
BRANCH   2  18
ATOM     18  C   UNL     1       2.379   3.131  19.144  0.00  0.00    +0.000 C 
ATOM     19  C   UNL     1       1.238   2.411  18.501  0.00  0.00    +0.000 C 
ATOM     20  O   UNL     1       3.317   2.501  19.639  0.00  0.00    +0.000 OA
ENDBRANCH   2  18
BRANCH   3  21
ATOM     21  O   UNL     1       2.187   4.596  21.723  0.00  0.00    +0.000 OA
ATOM     22  H   UNL     1       1.334   4.900  22.104  0.00  0.00    +0.000 HD
ENDBRANCH   3  21
BRANCH   6  23
ATOM     23  C   UNL     1       2.509   8.127  18.233  0.00  0.00    +0.000 C 
BRANCH  23  24
ATOM     24  C   UNL     1       1.102   8.692  18.060  0.00  0.00    +0.000 C 
BRANCH  24  25
ATOM     25  C   UNL     1       0.710   9.897  18.857  0.00  0.00    +0.000 A 
ATOM     26  C   UNL     1       0.758  11.175  18.326  0.00  0.00    +0.000 A 
ATOM     27  N   UNL     1       1.049  11.961  19.399  0.00  0.00    +0.000 N 
ATOM     28  C   UNL     1       0.378  11.458  20.479  0.00  0.00    +0.000 A 
ATOM     29  C   UNL     1      -0.049  12.092  21.649  0.00  0.00    +0.000 A 
ATOM     30  C   UNL     1      -0.674  11.297  22.586  0.00  0.00    +0.000 A 
ATOM     31  C   UNL     1      -0.734   9.904  22.426  0.00  0.00    +0.000 A 
ATOM     32  C   UNL     1      -0.230   9.279  21.267  0.00  0.00    +0.000 A 
ATOM     33  C   UNL     1       0.260  10.086  20.218  0.00  0.00    +0.000 A 
ATOM     34  H   UNL     1       1.759  12.680  19.426  0.00  0.00    +0.000 HD
ENDBRANCH  24  25
ENDBRANCH  23  24
ENDBRANCH   6  23
TORSDOF 9
ENDMDL
