MODEL 1
REMARK VINA RESULT:      -8.9      0.000      0.000
REMARK  Name = 
REMARK  7 active torsions:
REMARK  status: ('A' for Active; 'I' for Inactive)
REMARK    1  A    between atoms: C_2  and  O_3
REMARK    2  A    between atoms: C_2  and  C_7
REMARK    3  A    between atoms: O_3  and  C_4
REMARK    4  A    between atoms: C_4  and  C_5
REMARK    5  A    between atoms: C_5  and  O_6
REMARK    6  A    between atoms: C_18  and  N_19
REMARK    7  A    between atoms: N_19  and  C_20
REMARK                            x       y       z     vdW  Elec       q    Type
REMARK                         _______ _______ _______ _____ _____    ______ ____
ROOT
ATOM      1  C   UNL     1      -4.418  12.866  20.790  0.00  0.00    +0.000 A 
ATOM      2  C   UNL     1      -4.410  12.782  22.192  0.00  0.00    +0.000 A 
ATOM      3  C   UNL     1      -3.255  12.391  22.877  0.00  0.00    +0.000 A 
ATOM      4  C   UNL     1      -2.085  12.052  22.180  0.00  0.00    +0.000 A 
ATOM      5  C   UNL     1      -2.099  12.106  20.783  0.00  0.00    +0.000 A 
ATOM      6  C   UNL     1      -3.250  12.535  20.095  0.00  0.00    +0.000 A 
ATOM      7  C   UNL     1      -0.917  11.772  19.967  0.00  0.00    +0.000 C 
ATOM      8  O   UNL     1      -0.672  12.517  19.018  0.00  0.00    +0.000 OA
ATOM      9  C   UNL     1      -0.087  10.546  20.171  0.00  0.00    +0.000 A 
ATOM     10  C   UNL     1       0.595  10.117  19.020  0.00  0.00    +0.000 A 
ATOM     11  C   UNL     1       1.388   8.974  19.028  0.00  0.00    +0.000 A 
ATOM     12  C   UNL     1       1.555   8.232  20.196  0.00  0.00    +0.000 A 
ATOM     13  C   UNL     1       0.849   8.629  21.336  0.00  0.00    +0.000 A 
ATOM     14  C   UNL     1       0.050   9.801  21.358  0.00  0.00    +0.000 A 
ATOM     15  C   UNL     1      -0.577  10.148  22.689  0.00  0.00    +0.000 C 
ATOM     16  C   UNL     1      -0.849  11.630  22.924  0.00  0.00    +0.000 C 
ENDROOT
BRANCH   1  18
ATOM     17  O   UNL     1      -5.776  14.114  19.269  0.00  0.00    +0.000 OA
ATOM     18  C   UNL     1      -5.689  13.226  20.101  0.00  0.00    +0.000 C 
BRANCH  18  19
ATOM     19  O   UNL     1      -6.725  12.495  20.583  0.00  0.00    +0.000 OA
BRANCH  19  20
ATOM     20  C   UNL     1      -7.497  11.746  19.618  0.00  0.00    +0.000 C 
BRANCH  20  21
ATOM     21  C   UNL     1      -6.743  10.587  18.970  0.00  0.00    +0.000 C 
BRANCH  21  22
ATOM     22  O   UNL     1      -7.501   9.382  19.050  0.00  0.00    +0.000 OA
ATOM     23  H   UNL     1      -8.234   9.476  18.416  0.00  0.00    +0.000 HD
ENDBRANCH  21  22
ENDBRANCH  20  21
ENDBRANCH  19  20
ENDBRANCH  18  19
ENDBRANCH   1  18
BRANCH  12  24
ATOM     24  N   UNL     1       2.398   7.098  20.246  0.00  0.00    +0.000 N 
ATOM     25  H   UNL     1       2.944   7.067  21.106  0.00  0.00    +0.000 HD
BRANCH  24  26
ATOM     26  C   UNL     1       2.042   5.800  19.799  0.00  0.00    +0.000 A 
ATOM     27  C   UNL     1       1.379   4.903  20.656  0.00  0.00    +0.000 A 
ATOM     28  C   UNL     1       1.076   3.606  20.240  0.00  0.00    +0.000 A 
ATOM     29  C   UNL     1       1.398   3.213  18.948  0.00  0.00    +0.000 A 
ATOM     30  F   UNL     1       1.119   1.964  18.557  0.00  0.00    +0.000 F 
ATOM     31  C   UNL     1       2.002   4.095  18.057  0.00  0.00    +0.000 A 
ATOM     32  C   UNL     1       2.313   5.381  18.490  0.00  0.00    +0.000 A 
ATOM     33  F   UNL     1       2.913   6.223  17.636  0.00  0.00    +0.000 F 
ENDBRANCH  24  26
ENDBRANCH  12  24
TORSDOF 7
ENDMDL
MODEL 2
REMARK VINA RESULT:      -8.5      1.021      1.024
REMARK  Name = 
REMARK  7 active torsions:
REMARK  status: ('A' for Active; 'I' for Inactive)
REMARK    1  A    between atoms: C_2  and  O_3
REMARK    2  A    between atoms: C_2  and  C_7
REMARK    3  A    between atoms: O_3  and  C_4
REMARK    4  A    between atoms: C_4  and  C_5
REMARK    5  A    between atoms: C_5  and  O_6
REMARK    6  A    between atoms: C_18  and  N_19
REMARK    7  A    between atoms: N_19  and  C_20
REMARK                            x       y       z     vdW  Elec       q    Type
REMARK                         _______ _______ _______ _____ _____    ______ ____
ROOT
ATOM      1  C   UNL     1      -4.028  12.923  20.783  0.00  0.00    +0.000 A 
ATOM      2  C   UNL     1      -4.110  12.735  22.172  0.00  0.00    +0.000 A 
ATOM      3  C   UNL     1      -3.022  12.227  22.890  0.00  0.00    +0.000 A 
ATOM      4  C   UNL     1      -1.832  11.871  22.235  0.00  0.00    +0.000 A 
ATOM      5  C   UNL     1      -1.758  12.030  20.849  0.00  0.00    +0.000 A 
ATOM      6  C   UNL     1      -2.840  12.576  20.132  0.00  0.00    +0.000 A 
ATOM      7  C   UNL     1      -0.549  11.687  20.077  0.00  0.00    +0.000 C 
ATOM      8  O   UNL     1      -0.206  12.485  19.205  0.00  0.00    +0.000 OA
ATOM      9  C   UNL     1       0.198  10.402  20.233  0.00  0.00    +0.000 A 
ATOM     10  C   UNL     1       0.925  10.021  19.092  0.00  0.00    +0.000 A 
ATOM     11  C   UNL     1       1.652   8.835  19.056  0.00  0.00    +0.000 A 
ATOM     12  C   UNL     1       1.707   7.999  20.171  0.00  0.00    +0.000 A 
ATOM     13  C   UNL     1       0.955   8.352  21.296  0.00  0.00    +0.000 A 
ATOM     14  C   UNL     1       0.222   9.565  21.364  0.00  0.00    +0.000 A 
ATOM     15  C   UNL     1      -0.466   9.848  22.680  0.00  0.00    +0.000 C 
ATOM     16  C   UNL     1      -0.669  11.322  23.014  0.00  0.00    +0.000 C 
ENDROOT
BRANCH   1  18
ATOM     17  O   UNL     1      -5.518  14.589  19.935  0.00  0.00    +0.000 OA
ATOM     18  C   UNL     1      -5.233  13.408  20.054  0.00  0.00    +0.000 C 
BRANCH  18  19
ATOM     19  O   UNL     1      -5.990  12.369  19.623  0.00  0.00    +0.000 OA
BRANCH  19  20
ATOM     20  C   UNL     1      -6.224  12.279  18.201  0.00  0.00    +0.000 C 
BRANCH  20  21
ATOM     21  C   UNL     1      -4.965  12.043  17.368  0.00  0.00    +0.000 C 
BRANCH  21  22
ATOM     22  O   UNL     1      -5.216  11.099  16.329  0.00  0.00    +0.000 OA
ATOM     23  H   UNL     1      -4.472  10.472  16.342  0.00  0.00    +0.000 HD
ENDBRANCH  21  22
ENDBRANCH  20  21
ENDBRANCH  19  20
ENDBRANCH  18  19
ENDBRANCH   1  18
BRANCH  12  24
ATOM     24  N   UNL     1       2.481   6.816  20.180  0.00  0.00    +0.000 N 
ATOM     25  H   UNL     1       3.068   6.752  21.011  0.00  0.00    +0.000 HD
BRANCH  24  26
ATOM     26  C   UNL     1       2.025   5.543  19.755  0.00  0.00    +0.000 A 
ATOM     27  C   UNL     1       1.361   4.683  20.648  0.00  0.00    +0.000 A 
ATOM     28  C   UNL     1       0.960   3.407  20.250  0.00  0.00    +0.000 A 
ATOM     29  C   UNL     1       1.185   3.000  18.942  0.00  0.00    +0.000 A 
ATOM     30  F   UNL     1       0.812   1.770  18.567  0.00  0.00    +0.000 F 
ATOM     31  C   UNL     1       1.786   3.848  18.018  0.00  0.00    +0.000 A 
ATOM     32  C   UNL     1       2.196   5.113  18.432  0.00  0.00    +0.000 A 
ATOM     33  F   UNL     1       2.794   5.922  17.545  0.00  0.00    +0.000 F 
ENDBRANCH  24  26
ENDBRANCH  12  24
TORSDOF 7
ENDMDL
MODEL 3
REMARK VINA RESULT:      -8.1      1.134      2.002
REMARK  Name = 
REMARK  7 active torsions:
REMARK  status: ('A' for Active; 'I' for Inactive)
REMARK    1  A    between atoms: C_2  and  O_3
REMARK    2  A    between atoms: C_2  and  C_7
REMARK    3  A    between atoms: O_3  and  C_4
REMARK    4  A    between atoms: C_4  and  C_5
REMARK    5  A    between atoms: C_5  and  O_6
REMARK    6  A    between atoms: C_18  and  N_19
REMARK    7  A    between atoms: N_19  and  C_20
REMARK                            x       y       z     vdW  Elec       q    Type
REMARK                         _______ _______ _______ _____ _____    ______ ____
ROOT
ATOM      1  C   UNL     1      -4.154  12.891  20.337  0.00  0.00    +0.000 A 
ATOM      2  C   UNL     1      -4.198  12.843  21.739  0.00  0.00    +0.000 A 
ATOM      3  C   UNL     1      -3.082  12.428  22.475  0.00  0.00    +0.000 A 
ATOM      4  C   UNL     1      -1.902  12.029  21.827  0.00  0.00    +0.000 A 
ATOM      5  C   UNL     1      -1.866  12.048  20.430  0.00  0.00    +0.000 A 
ATOM      6  C   UNL     1      -2.976  12.501  19.692  0.00  0.00    +0.000 A 
ATOM      7  C   UNL     1      -0.670  11.651  19.665  0.00  0.00    +0.000 C 
ATOM      8  O   UNL     1      -0.365  12.362  18.707  0.00  0.00    +0.000 OA
ATOM      9  C   UNL     1       0.106  10.401  19.928  0.00  0.00    +0.000 A 
ATOM     10  C   UNL     1       0.811   9.918  18.812  0.00  0.00    +0.000 A 
ATOM     11  C   UNL     1       1.560   8.748  18.876  0.00  0.00    +0.000 A 
ATOM     12  C   UNL     1       1.660   8.029  20.067  0.00  0.00    +0.000 A 
ATOM     13  C   UNL     1       0.929   8.481  21.171  0.00  0.00    +0.000 A 
ATOM     14  C   UNL     1       0.175   9.682  21.137  0.00  0.00    +0.000 A 
ATOM     15  C   UNL     1      -0.485  10.085  22.435  0.00  0.00    +0.000 C 
ATOM     16  C   UNL     1      -0.709  11.581  22.625  0.00  0.00    +0.000 C 
ENDROOT
BRANCH   1  18
ATOM     17  O   UNL     1      -5.678  12.836  18.496  0.00  0.00    +0.000 OA
ATOM     18  C   UNL     1      -5.386  13.280  19.594  0.00  0.00    +0.000 C 
BRANCH  18  19
ATOM     19  O   UNL     1      -6.075  14.235  20.266  0.00  0.00    +0.000 OA
BRANCH  19  20
ATOM     20  C   UNL     1      -5.792  15.608  19.916  0.00  0.00    +0.000 C 
BRANCH  20  21
ATOM     21  C   UNL     1      -6.588  16.133  18.723  0.00  0.00    +0.000 C 
BRANCH  21  22
ATOM     22  O   UNL     1      -6.029  17.352  18.238  0.00  0.00    +0.000 OA
ATOM     23  H   UNL     1      -6.419  17.502  17.359  0.00  0.00    +0.000 HD
ENDBRANCH  21  22
ENDBRANCH  20  21
ENDBRANCH  19  20
ENDBRANCH  18  19
ENDBRANCH   1  18
BRANCH  12  24
ATOM     24  N   UNL     1       2.457   6.867  20.174  0.00  0.00    +0.000 N 
ATOM     25  H   UNL     1       2.979   6.843  21.050  0.00  0.00    +0.000 HD
BRANCH  24  26
ATOM     26  C   UNL     1       2.064   5.570  19.757  0.00  0.00    +0.000 A 
ATOM     27  C   UNL     1       1.347   4.725  20.622  0.00  0.00    +0.000 A 
ATOM     28  C   UNL     1       1.007   3.428  20.236  0.00  0.00    +0.000 A 
ATOM     29  C   UNL     1       1.347   2.984  18.965  0.00  0.00    +0.000 A 
ATOM     30  F   UNL     1       1.031   1.734  18.603  0.00  0.00    +0.000 F 
ATOM     31  C   UNL     1       2.005   3.816  18.065  0.00  0.00    +0.000 A 
ATOM     32  C   UNL     1       2.353   5.103  18.468  0.00  0.00    +0.000 A 
ATOM     33  F   UNL     1       3.005   5.896  17.605  0.00  0.00    +0.000 F 
ENDBRANCH  24  26
ENDBRANCH  12  24
TORSDOF 7
ENDMDL
MODEL 4
REMARK VINA RESULT:      -8.0      4.991      9.635
REMARK  Name = 
REMARK  7 active torsions:
REMARK  status: ('A' for Active; 'I' for Inactive)
REMARK    1  A    between atoms: C_2  and  O_3
REMARK    2  A    between atoms: C_2  and  C_7
REMARK    3  A    between atoms: O_3  and  C_4
REMARK    4  A    between atoms: C_4  and  C_5
REMARK    5  A    between atoms: C_5  and  O_6
REMARK    6  A    between atoms: C_18  and  N_19
REMARK    7  A    between atoms: N_19  and  C_20
REMARK                            x       y       z     vdW  Elec       q    Type
REMARK                         _______ _______ _______ _____ _____    ______ ____
ROOT
ATOM      1  C   UNL     1       2.164   5.124  19.806  0.00  0.00    +0.000 A 
ATOM      2  C   UNL     1       2.548   5.315  18.470  0.00  0.00    +0.000 A 
ATOM      3  C   UNL     1       2.575   6.597  17.910  0.00  0.00    +0.000 A 
ATOM      4  C   UNL     1       2.195   7.718  18.664  0.00  0.00    +0.000 A 
ATOM      5  C   UNL     1       1.784   7.528  19.986  0.00  0.00    +0.000 A 
ATOM      6  C   UNL     1       1.793   6.242  20.560  0.00  0.00    +0.000 A 
ATOM      7  C   UNL     1       1.372   8.646  20.855  0.00  0.00    +0.000 C 
ATOM      8  O   UNL     1       1.789   8.629  22.013  0.00  0.00    +0.000 OA
ATOM      9  C   UNL     1       0.413   9.713  20.436  0.00  0.00    +0.000 A 
ATOM     10  C   UNL     1      -0.269  10.322  21.503  0.00  0.00    +0.000 A 
ATOM     11  C   UNL     1      -1.221  11.314  21.286  0.00  0.00    +0.000 A 
ATOM     12  C   UNL     1      -1.505  11.758  19.995  0.00  0.00    +0.000 A 
ATOM     13  C   UNL     1      -0.859  11.130  18.925  0.00  0.00    +0.000 A 
ATOM     14  C   UNL     1       0.128  10.130  19.122  0.00  0.00    +0.000 A 
ATOM     15  C   UNL     1       0.801   9.611  17.871  0.00  0.00    +0.000 C 
ATOM     16  C   UNL     1       2.223   9.092  18.054  0.00  0.00    +0.000 C 
ENDROOT
BRANCH   1  18
ATOM     17  O   UNL     1       2.117   3.468  21.530  0.00  0.00    +0.000 OA
ATOM     18  C   UNL     1       2.092   3.735  20.340  0.00  0.00    +0.000 C 
BRANCH  18  19
ATOM     19  O   UNL     1       2.078   2.829  19.331  0.00  0.00    +0.000 OA
BRANCH  19  20
ATOM     20  C   UNL     1       3.097   1.805  19.362  0.00  0.00    +0.000 C 
BRANCH  20  21
ATOM     21  C   UNL     1       4.514   2.331  19.583  0.00  0.00    +0.000 C 
BRANCH  21  22
ATOM     22  O   UNL     1       5.317   1.358  20.247  0.00  0.00    +0.000 OA
ATOM     23  H   UNL     1       4.708   0.818  20.782  0.00  0.00    +0.000 HD
ENDBRANCH  21  22
ENDBRANCH  20  21
ENDBRANCH  19  20
ENDBRANCH  18  19
ENDBRANCH   1  18
BRANCH  12  24
ATOM     24  N   UNL     1      -2.427  12.801  19.751  0.00  0.00    +0.000 N 
ATOM     25  H   UNL     1      -2.212  13.306  18.891  0.00  0.00    +0.000 HD
BRANCH  24  26
ATOM     26  C   UNL     1      -3.823  12.723  19.983  0.00  0.00    +0.000 A 
ATOM     27  C   UNL     1      -4.679  12.148  19.026  0.00  0.00    +0.000 A 
ATOM     28  C   UNL     1      -6.059  12.119  19.224  0.00  0.00    +0.000 A 
ATOM     29  C   UNL     1      -6.589  12.628  20.403  0.00  0.00    +0.000 A 
ATOM     30  F   UNL     1      -7.915  12.611  20.584  0.00  0.00    +0.000 F 
ATOM     31  C   UNL     1      -5.765  13.151  21.394  0.00  0.00    +0.000 A 
ATOM     32  C   UNL     1      -4.390  13.189  21.177  0.00  0.00    +0.000 A 
ATOM     33  F   UNL     1      -3.599  13.712  22.126  0.00  0.00    +0.000 F 
ENDBRANCH  24  26
ENDBRANCH  12  24
TORSDOF 7
ENDMDL
MODEL 5
REMARK VINA RESULT:      -8.0      4.993      9.691
REMARK  Name = 
REMARK  7 active torsions:
REMARK  status: ('A' for Active; 'I' for Inactive)
REMARK    1  A    between atoms: C_2  and  O_3
REMARK    2  A    between atoms: C_2  and  C_7
REMARK    3  A    between atoms: O_3  and  C_4
REMARK    4  A    between atoms: C_4  and  C_5
REMARK    5  A    between atoms: C_5  and  O_6
REMARK    6  A    between atoms: C_18  and  N_19
REMARK    7  A    between atoms: N_19  and  C_20
REMARK                            x       y       z     vdW  Elec       q    Type
REMARK                         _______ _______ _______ _____ _____    ______ ____
ROOT
ATOM      1  C   UNL     1       2.195   5.362  20.045  0.00  0.00    +0.000 A 
ATOM      2  C   UNL     1       2.585   5.521  18.706  0.00  0.00    +0.000 A 
ATOM      3  C   UNL     1       2.569   6.783  18.102  0.00  0.00    +0.000 A 
ATOM      4  C   UNL     1       2.141   7.914  18.813  0.00  0.00    +0.000 A 
ATOM      5  C   UNL     1       1.724   7.754  20.137  0.00  0.00    +0.000 A 
ATOM      6  C   UNL     1       1.775   6.491  20.756  0.00  0.00    +0.000 A 
ATOM      7  C   UNL     1       1.262   8.886  20.963  0.00  0.00    +0.000 C 
ATOM      8  O   UNL     1       1.668   8.925  22.124  0.00  0.00    +0.000 OA
ATOM      9  C   UNL     1       0.268   9.901  20.498  0.00  0.00    +0.000 A 
ATOM     10  C   UNL     1      -0.447  10.521  21.537  0.00  0.00    +0.000 A 
ATOM     11  C   UNL     1      -1.432  11.468  21.277  0.00  0.00    +0.000 A 
ATOM     12  C   UNL     1      -1.720  11.857  19.969  0.00  0.00    +0.000 A 
ATOM     13  C   UNL     1      -1.041  11.216  18.928  0.00  0.00    +0.000 A 
ATOM     14  C   UNL     1      -0.018  10.262  19.168  0.00  0.00    +0.000 A 
ATOM     15  C   UNL     1       0.685   9.725  17.942  0.00  0.00    +0.000 C 
ATOM     16  C   UNL     1       2.124   9.266  18.155  0.00  0.00    +0.000 C 
ENDROOT
BRANCH   1  18
ATOM     17  O   UNL     1       1.459   3.670  21.565  0.00  0.00    +0.000 OA
ATOM     18  C   UNL     1       2.169   3.990  20.626  0.00  0.00    +0.000 C 
BRANCH  18  19
ATOM     19  O   UNL     1       3.087   3.192  20.026  0.00  0.00    +0.000 OA
BRANCH  19  20
ATOM     20  C   UNL     1       2.578   2.081  19.255  0.00  0.00    +0.000 C 
BRANCH  20  21
ATOM     21  C   UNL     1       3.473   1.658  18.093  0.00  0.00    +0.000 C 
BRANCH  21  22
ATOM     22  O   UNL     1       4.358   0.613  18.490  0.00  0.00    +0.000 OA
ATOM     23  H   UNL     1       3.816  -0.042  18.963  0.00  0.00    +0.000 HD
ENDBRANCH  21  22
ENDBRANCH  20  21
ENDBRANCH  19  20
ENDBRANCH  18  19
ENDBRANCH   1  18
BRANCH  12  24
ATOM     24  N   UNL     1      -2.677  12.855  19.681  0.00  0.00    +0.000 N 
ATOM     25  H   UNL     1      -2.970  12.831  18.704  0.00  0.00    +0.000 HD
BRANCH  24  26
ATOM     26  C   UNL     1      -3.737  13.239  20.541  0.00  0.00    +0.000 A 
ATOM     27  C   UNL     1      -3.565  14.276  21.474  0.00  0.00    +0.000 A 
ATOM     28  C   UNL     1      -4.586  14.620  22.361  0.00  0.00    +0.000 A 
ATOM     29  C   UNL     1      -5.802  13.954  22.289  0.00  0.00    +0.000 A 
ATOM     30  F   UNL     1      -6.775  14.276  23.150  0.00  0.00    +0.000 F 
ATOM     31  C   UNL     1      -6.024  12.962  21.339  0.00  0.00    +0.000 A 
ATOM     32  C   UNL     1      -4.991  12.618  20.471  0.00  0.00    +0.000 A 
ATOM     33  F   UNL     1      -5.201  11.648  19.569  0.00  0.00    +0.000 F 
ENDBRANCH  24  26
ENDBRANCH  12  24
TORSDOF 7
ENDMDL
MODEL 6
REMARK VINA RESULT:      -7.9      2.923      5.094
REMARK  Name = 
REMARK  7 active torsions:
REMARK  status: ('A' for Active; 'I' for Inactive)
REMARK    1  A    between atoms: C_2  and  O_3
REMARK    2  A    between atoms: C_2  and  C_7
REMARK    3  A    between atoms: O_3  and  C_4
REMARK    4  A    between atoms: C_4  and  C_5
REMARK    5  A    between atoms: C_5  and  O_6
REMARK    6  A    between atoms: C_18  and  N_19
REMARK    7  A    between atoms: N_19  and  C_20
REMARK                            x       y       z     vdW  Elec       q    Type
REMARK                         _______ _______ _______ _____ _____    ______ ____
ROOT
ATOM      1  C   UNL     1       0.159  12.182  21.152  0.00  0.00    +0.000 A 
ATOM      2  C   UNL     1       0.398  12.657  19.853  0.00  0.00    +0.000 A 
ATOM      3  C   UNL     1       0.615  11.767  18.796  0.00  0.00    +0.000 A 
ATOM      4  C   UNL     1       0.623  10.380  19.014  0.00  0.00    +0.000 A 
ATOM      5  C   UNL     1       0.415   9.906  20.312  0.00  0.00    +0.000 A 
ATOM      6  C   UNL     1       0.160  10.801  21.369  0.00  0.00    +0.000 A 
ATOM      7  C   UNL     1       0.402   8.467  20.636  0.00  0.00    +0.000 C 
ATOM      8  O   UNL     1      -0.480   8.081  21.402  0.00  0.00    +0.000 OA
ATOM      9  C   UNL     1       1.445   7.502  20.170  0.00  0.00    +0.000 A 
ATOM     10  C   UNL     1       1.589   6.373  20.994  0.00  0.00    +0.000 A 
ATOM     11  C   UNL     1       2.537   5.391  20.721  0.00  0.00    +0.000 A 
ATOM     12  C   UNL     1       3.356   5.484  19.597  0.00  0.00    +0.000 A 
ATOM     13  C   UNL     1       3.245   6.623  18.794  0.00  0.00    +0.000 A 
ATOM     14  C   UNL     1       2.274   7.628  19.039  0.00  0.00    +0.000 A 
ATOM     15  C   UNL     1       2.218   8.753  18.031  0.00  0.00    +0.000 C 
ATOM     16  C   UNL     1       0.861   9.430  17.873  0.00  0.00    +0.000 C 
ENDROOT
BRANCH   1  18
ATOM     17  O   UNL     1       0.692  14.163  22.380  0.00  0.00    +0.000 OA
ATOM     18  C   UNL     1      -0.005  13.169  22.257  0.00  0.00    +0.000 C 
BRANCH  18  19
ATOM     19  O   UNL     1      -0.963  12.767  23.128  0.00  0.00    +0.000 OA
BRANCH  19  20
ATOM     20  C   UNL     1      -2.335  12.947  22.714  0.00  0.00    +0.000 C 
BRANCH  20  21
ATOM     21  C   UNL     1      -3.369  12.459  23.726  0.00  0.00    +0.000 C 
BRANCH  21  22
ATOM     22  O   UNL     1      -4.661  12.374  23.130  0.00  0.00    +0.000 OA
ATOM     23  H   UNL     1      -4.754  13.159  22.561  0.00  0.00    +0.000 HD
ENDBRANCH  21  22
ENDBRANCH  20  21
ENDBRANCH  19  20
ENDBRANCH  18  19
ENDBRANCH   1  18
BRANCH  12  24
ATOM     24  N   UNL     1       4.288   4.474  19.267  0.00  0.00    +0.000 N 
ATOM     25  H   UNL     1       3.929   3.542  19.474  0.00  0.00    +0.000 HD
BRANCH  24  26
ATOM     26  C   UNL     1       5.118   4.477  18.118  0.00  0.00    +0.000 A 
ATOM     27  C   UNL     1       6.476   4.832  18.213  0.00  0.00    +0.000 A 
ATOM     28  C   UNL     1       7.283   4.890  17.077  0.00  0.00    +0.000 A 
ATOM     29  C   UNL     1       6.745   4.552  15.842  0.00  0.00    +0.000 A 
ATOM     30  F   UNL     1       7.518   4.622  14.751  0.00  0.00    +0.000 F 
ATOM     31  C   UNL     1       5.421   4.141  15.722  0.00  0.00    +0.000 A 
ATOM     32  C   UNL     1       4.622   4.102  16.862  0.00  0.00    +0.000 A 
ATOM     33  F   UNL     1       3.341   3.724  16.741  0.00  0.00    +0.000 F 
ENDBRANCH  24  26
ENDBRANCH  12  24
TORSDOF 7
ENDMDL
MODEL 7
REMARK VINA RESULT:      -7.9      5.070      9.711
REMARK  Name = 
REMARK  7 active torsions:
REMARK  status: ('A' for Active; 'I' for Inactive)
REMARK    1  A    between atoms: C_2  and  O_3
REMARK    2  A    between atoms: C_2  and  C_7
REMARK    3  A    between atoms: O_3  and  C_4
REMARK    4  A    between atoms: C_4  and  C_5
REMARK    5  A    between atoms: C_5  and  O_6
REMARK    6  A    between atoms: C_18  and  N_19
REMARK    7  A    between atoms: N_19  and  C_20
REMARK                            x       y       z     vdW  Elec       q    Type
REMARK                         _______ _______ _______ _____ _____    ______ ____
ROOT
ATOM      1  C   UNL     1       2.037   5.328  20.179  0.00  0.00    +0.000 A 
ATOM      2  C   UNL     1       2.435   5.457  18.839  0.00  0.00    +0.000 A 
ATOM      3  C   UNL     1       2.462   6.711  18.219  0.00  0.00    +0.000 A 
ATOM      4  C   UNL     1       2.070   7.865  18.915  0.00  0.00    +0.000 A 
ATOM      5  C   UNL     1       1.644   7.736  20.240  0.00  0.00    +0.000 A 
ATOM      6  C   UNL     1       1.653   6.478  20.874  0.00  0.00    +0.000 A 
ATOM      7  C   UNL     1       1.218   8.892  21.050  0.00  0.00    +0.000 C 
ATOM      8  O   UNL     1       1.623   8.932  22.212  0.00  0.00    +0.000 OA
ATOM      9  C   UNL     1       0.260   9.933  20.570  0.00  0.00    +0.000 A 
ATOM     10  C   UNL     1      -0.437  10.589  21.600  0.00  0.00    +0.000 A 
ATOM     11  C   UNL     1      -1.390  11.565  21.326  0.00  0.00    +0.000 A 
ATOM     12  C   UNL     1      -1.662  11.946  20.012  0.00  0.00    +0.000 A 
ATOM     13  C   UNL     1      -1.002  11.271  18.980  0.00  0.00    +0.000 A 
ATOM     14  C   UNL     1      -0.012  10.287  19.235  0.00  0.00    +0.000 A 
ATOM     15  C   UNL     1       0.676   9.712  18.018  0.00  0.00    +0.000 C 
ATOM     16  C   UNL     1       2.098   9.209  18.240  0.00  0.00    +0.000 C 
ENDROOT
BRANCH   1  18
ATOM     17  O   UNL     1       2.197   3.732  21.951  0.00  0.00    +0.000 OA
ATOM     18  C   UNL     1       1.964   3.965  20.776  0.00  0.00    +0.000 C 
BRANCH  18  19
ATOM     19  O   UNL     1       1.689   3.035  19.829  0.00  0.00    +0.000 OA
BRANCH  19  20
ATOM     20  C   UNL     1       2.626   1.943  19.698  0.00  0.00    +0.000 C 
BRANCH  20  21
ATOM     21  C   UNL     1       3.239   1.802  18.306  0.00  0.00    +0.000 C 
BRANCH  21  22
ATOM     22  O   UNL     1       4.083   0.655  18.239  0.00  0.00    +0.000 OA
ATOM     23  H   UNL     1       4.423   0.617  17.327  0.00  0.00    +0.000 HD
ENDBRANCH  21  22
ENDBRANCH  20  21
ENDBRANCH  19  20
ENDBRANCH  18  19
ENDBRANCH   1  18
BRANCH  12  24
ATOM     24  N   UNL     1      -2.585  12.973  19.709  0.00  0.00    +0.000 N 
ATOM     25  H   UNL     1      -2.849  12.968  18.724  0.00  0.00    +0.000 HD
BRANCH  24  26
ATOM     26  C   UNL     1      -3.660  13.371  20.542  0.00  0.00    +0.000 A 
ATOM     27  C   UNL     1      -4.870  12.653  20.547  0.00  0.00    +0.000 A 
ATOM     28  C   UNL     1      -5.950  13.074  21.323  0.00  0.00    +0.000 A 
ATOM     29  C   UNL     1      -5.811  14.193  22.133  0.00  0.00    +0.000 A 
ATOM     30  F   UNL     1      -6.854  14.602  22.866  0.00  0.00    +0.000 F 
ATOM     31  C   UNL     1      -4.610  14.892  22.195  0.00  0.00    +0.000 A 
ATOM     32  C   UNL     1      -3.545  14.471  21.403  0.00  0.00    +0.000 A 
ATOM     33  F   UNL     1      -2.393  15.157  21.450  0.00  0.00    +0.000 F 
ENDBRANCH  24  26
ENDBRANCH  12  24
TORSDOF 7
ENDMDL
MODEL 8
REMARK VINA RESULT:      -7.9      1.608      2.102
REMARK  Name = 
REMARK  7 active torsions:
REMARK  status: ('A' for Active; 'I' for Inactive)
REMARK    1  A    between atoms: C_2  and  O_3
REMARK    2  A    between atoms: C_2  and  C_7
REMARK    3  A    between atoms: O_3  and  C_4
REMARK    4  A    between atoms: C_4  and  C_5
REMARK    5  A    between atoms: C_5  and  O_6
REMARK    6  A    between atoms: C_18  and  N_19
REMARK    7  A    between atoms: N_19  and  C_20
REMARK                            x       y       z     vdW  Elec       q    Type
REMARK                         _______ _______ _______ _____ _____    ______ ____
ROOT
ATOM      1  C   UNL     1      -2.658  12.578  21.686  0.00  0.00    +0.000 A 
ATOM      2  C   UNL     1      -2.613  11.884  22.904  0.00  0.00    +0.000 A 
ATOM      3  C   UNL     1      -1.527  11.057  23.215  0.00  0.00    +0.000 A 
ATOM      4  C   UNL     1      -0.472  10.885  22.307  0.00  0.00    +0.000 A 
ATOM      5  C   UNL     1      -0.529  11.552  21.080  0.00  0.00    +0.000 A 
ATOM      6  C   UNL     1      -1.603  12.413  20.783  0.00  0.00    +0.000 A 
ATOM      7  C   UNL     1       0.535  11.435  20.065  0.00  0.00    +0.000 C 
ATOM      8  O   UNL     1       0.881  12.475  19.505  0.00  0.00    +0.000 OA
ATOM      9  C   UNL     1       1.123  10.133  19.626  0.00  0.00    +0.000 A 
ATOM     10  C   UNL     1       1.665  10.158  18.330  0.00  0.00    +0.000 A 
ATOM     11  C   UNL     1       2.225   9.021  17.754  0.00  0.00    +0.000 A 
ATOM     12  C   UNL     1       2.293   7.823  18.464  0.00  0.00    +0.000 A 
ATOM     13  C   UNL     1       1.720   7.779  19.739  0.00  0.00    +0.000 A 
ATOM     14  C   UNL     1       1.161   8.929  20.355  0.00  0.00    +0.000 A 
ATOM     15  C   UNL     1       0.663   8.744  21.770  0.00  0.00    +0.000 C 
ATOM     16  C   UNL     1       0.689   9.991  22.647  0.00  0.00    +0.000 C 
ENDROOT
BRANCH   1  18
ATOM     17  O   UNL     1      -4.495  14.014  22.215  0.00  0.00    +0.000 OA
ATOM     18  C   UNL     1      -3.863  13.398  21.373  0.00  0.00    +0.000 C 
BRANCH  18  19
ATOM     19  O   UNL     1      -4.193  13.293  20.062  0.00  0.00    +0.000 OA
BRANCH  19  20
ATOM     20  C   UNL     1      -5.226  12.341  19.725  0.00  0.00    +0.000 C 
BRANCH  20  21
ATOM     21  C   UNL     1      -5.242  11.918  18.258  0.00  0.00    +0.000 C 
BRANCH  21  22
ATOM     22  O   UNL     1      -4.645  10.634  18.095  0.00  0.00    +0.000 OA
ATOM     23  H   UNL     1      -4.950  10.092  18.844  0.00  0.00    +0.000 HD
ENDBRANCH  21  22
ENDBRANCH  20  21
ENDBRANCH  19  20
ENDBRANCH  18  19
ENDBRANCH   1  18
BRANCH  12  24
ATOM     24  N   UNL     1       2.905   6.669  17.924  0.00  0.00    +0.000 N 
ATOM     25  H   UNL     1       3.889   6.825  17.710  0.00  0.00    +0.000 HD
BRANCH  24  26
ATOM     26  C   UNL     1       2.662   5.341  18.358  0.00  0.00    +0.000 A 
ATOM     27  C   UNL     1       1.611   4.586  17.806  0.00  0.00    +0.000 A 
ATOM     28  C   UNL     1       1.333   3.300  18.268  0.00  0.00    +0.000 A 
ATOM     29  C   UNL     1       2.133   2.745  19.258  0.00  0.00    +0.000 A 
ATOM     30  F   UNL     1       1.855   1.515  19.709  0.00  0.00    +0.000 F 
ATOM     31  C   UNL     1       3.216   3.442  19.783  0.00  0.00    +0.000 A 
ATOM     32  C   UNL     1       3.473   4.732  19.324  0.00  0.00    +0.000 A 
ATOM     33  F   UNL     1       4.505   5.410  19.846  0.00  0.00    +0.000 F 
ENDBRANCH  24  26
ENDBRANCH  12  24
TORSDOF 7
ENDMDL
MODEL 9
REMARK VINA RESULT:      -7.8      2.591      3.436
REMARK  Name = 
REMARK  7 active torsions:
REMARK  status: ('A' for Active; 'I' for Inactive)
REMARK    1  A    between atoms: C_2  and  O_3
REMARK    2  A    between atoms: C_2  and  C_7
REMARK    3  A    between atoms: O_3  and  C_4
REMARK    4  A    between atoms: C_4  and  C_5
REMARK    5  A    between atoms: C_5  and  O_6
REMARK    6  A    between atoms: C_18  and  N_19
REMARK    7  A    between atoms: N_19  and  C_20
REMARK                            x       y       z     vdW  Elec       q    Type
REMARK                         _______ _______ _______ _____ _____    ______ ____
ROOT
ATOM      1  C   UNL     1      -2.586  12.408  21.572  0.00  0.00    +0.000 A 
ATOM      2  C   UNL     1      -2.456  11.812  22.837  0.00  0.00    +0.000 A 
ATOM      3  C   UNL     1      -1.336  11.033  23.148  0.00  0.00    +0.000 A 
ATOM      4  C   UNL     1      -0.329  10.811  22.196  0.00  0.00    +0.000 A 
ATOM      5  C   UNL     1      -0.471  11.378  20.926  0.00  0.00    +0.000 A 
ATOM      6  C   UNL     1      -1.580  12.192  20.626  0.00  0.00    +0.000 A 
ATOM      7  C   UNL     1       0.538  11.202  19.864  0.00  0.00    +0.000 C 
ATOM      8  O   UNL     1       0.827  12.201  19.206  0.00  0.00    +0.000 OA
ATOM      9  C   UNL     1       1.131   9.881  19.494  0.00  0.00    +0.000 A 
ATOM     10  C   UNL     1       1.599   9.814  18.171  0.00  0.00    +0.000 A 
ATOM     11  C   UNL     1       2.153   8.647  17.654  0.00  0.00    +0.000 A 
ATOM     12  C   UNL     1       2.288   7.509  18.449  0.00  0.00    +0.000 A 
ATOM     13  C   UNL     1       1.788   7.555  19.755  0.00  0.00    +0.000 A 
ATOM     14  C   UNL     1       1.238   8.739  20.311  0.00  0.00    +0.000 A 
ATOM     15  C   UNL     1       0.824   8.656  21.762  0.00  0.00    +0.000 C 
ATOM     16  C   UNL     1       0.870   9.969  22.537  0.00  0.00    +0.000 C 
ENDROOT
BRANCH   1  18
ATOM     17  O   UNL     1      -4.277  13.305  20.140  0.00  0.00    +0.000 OA
ATOM     18  C   UNL     1      -3.826  13.176  21.267  0.00  0.00    +0.000 C 
BRANCH  18  19
ATOM     19  O   UNL     1      -4.319  13.764  22.384  0.00  0.00    +0.000 OA
BRANCH  19  20
ATOM     20  C   UNL     1      -5.733  14.059  22.394  0.00  0.00    +0.000 C 
BRANCH  20  21
ATOM     21  C   UNL     1      -6.585  13.043  23.152  0.00  0.00    +0.000 C 
BRANCH  21  22
ATOM     22  O   UNL     1      -6.553  13.301  24.554  0.00  0.00    +0.000 OA
ATOM     23  H   UNL     1      -6.755  14.247  24.663  0.00  0.00    +0.000 HD
ENDBRANCH  21  22
ENDBRANCH  20  21
ENDBRANCH  19  20
ENDBRANCH  18  19
ENDBRANCH   1  18
BRANCH  12  24
ATOM     24  N   UNL     1       2.896   6.329  17.966  0.00  0.00    +0.000 N 
ATOM     25  H   UNL     1       2.510   6.043  17.066  0.00  0.00    +0.000 HD
BRANCH  24  26
ATOM     26  C   UNL     1       4.277   6.024  18.069  0.00  0.00    +0.000 A 
ATOM     27  C   UNL     1       4.781   5.351  19.197  0.00  0.00    +0.000 A 
ATOM     28  C   UNL     1       6.147   5.097  19.329  0.00  0.00    +0.000 A 
ATOM     29  C   UNL     1       7.011   5.480  18.312  0.00  0.00    +0.000 A 
ATOM     30  F   UNL     1       8.323   5.248  18.448  0.00  0.00    +0.000 F 
ATOM     31  C   UNL     1       6.538   6.095  17.158  0.00  0.00    +0.000 A 
ATOM     32  C   UNL     1       5.174   6.357  17.046  0.00  0.00    +0.000 A 
ATOM     33  F   UNL     1       4.722   6.968  15.941  0.00  0.00    +0.000 F 
ENDBRANCH  24  26
ENDBRANCH  12  24
TORSDOF 7
ENDMDL
