MODEL 1
REMARK VINA RESULT:      -8.2      0.000      0.000
REMARK  Name = 
REMARK  4 active torsions:
REMARK  status: ('A' for Active; 'I' for Inactive)
REMARK    1  A    between atoms: C_2  and  C_3
REMARK    2  A    between atoms: C_2  and  C_12
REMARK    3  A    between atoms: C_3  and  O_4
REMARK    4  A    between atoms: O_4  and  C_5
REMARK                            x       y       z     vdW  Elec       q    Type
REMARK                         _______ _______ _______ _____ _____    ______ ____
ROOT
ATOM      1  O   UNL     1       6.374   7.524  17.138  0.00  0.00    +0.000 OA
ATOM      2  C   UNL     1       6.089   6.323  17.232  0.00  0.00    +0.000 C 
ENDROOT
BRANCH   2   3
ATOM      3  C   UNL     1       4.859   5.930  17.964  0.00  0.00    +0.000 A 
ATOM      4  C   UNL     1       3.713   6.728  17.948  0.00  0.00    +0.000 A 
ATOM      5  C   UNL     1       2.574   6.316  18.640  0.00  0.00    +0.000 A 
ATOM      6  C   UNL     1       2.558   5.105  19.349  0.00  0.00    +0.000 A 
ATOM      7  C   UNL     1       3.718   4.311  19.386  0.00  0.00    +0.000 A 
ATOM      8  C   UNL     1       4.857   4.723  18.674  0.00  0.00    +0.000 A 
ATOM      9  C   UNL     1       3.743   2.985  20.109  0.00  0.00    +0.000 C 
ATOM     10  C   UNL     1       2.598   2.814  21.107  0.00  0.00    +0.000 C 
ATOM     11  C   UNL     1       1.275   3.226  20.473  0.00  0.00    +0.000 C 
ATOM     12  C   UNL     1       1.306   4.706  20.095  0.00  0.00    +0.000 C 
ENDBRANCH   2   3
BRANCH   2  13
ATOM     13  C   UNL     1       6.907   5.228  16.563  0.00  0.00    +0.000 C 
BRANCH  13  14
ATOM     14  O   UNL     1       7.404   5.630  15.287  0.00  0.00    +0.000 OA
BRANCH  14  15
ATOM     15  C   UNL     1       6.900   4.907  14.236  0.00  0.00    +0.000 A 
ATOM     16  C   UNL     1       7.559   4.741  13.013  0.00  0.00    +0.000 A 
ATOM     17  C   UNL     1       6.981   3.975  12.000  0.00  0.00    +0.000 A 
ATOM     18  C   UNL     1       5.751   3.368  12.218  0.00  0.00    +0.000 A 
ATOM     19  F   UNL     1       5.199   2.636  11.242  0.00  0.00    +0.000 F 
ATOM     20  C   UNL     1       5.095   3.501  13.436  0.00  0.00    +0.000 A 
ATOM     21  C   UNL     1       5.675   4.268  14.451  0.00  0.00    +0.000 A 
ENDBRANCH  14  15
ENDBRANCH  13  14
ENDBRANCH   2  13
TORSDOF 4
ENDMDL
MODEL 2
REMARK VINA RESULT:      -8.2      0.893      1.394
REMARK  Name = 
REMARK  4 active torsions:
REMARK  status: ('A' for Active; 'I' for Inactive)
REMARK    1  A    between atoms: C_2  and  C_3
REMARK    2  A    between atoms: C_2  and  C_12
REMARK    3  A    between atoms: C_3  and  O_4
REMARK    4  A    between atoms: O_4  and  C_5
REMARK                            x       y       z     vdW  Elec       q    Type
REMARK                         _______ _______ _______ _____ _____    ______ ____
ROOT
ATOM      1  O   UNL     1       7.555   4.858  18.387  0.00  0.00    +0.000 OA
ATOM      2  C   UNL     1       6.583   5.348  17.797  0.00  0.00    +0.000 C 
ENDROOT
BRANCH   2   3
ATOM      3  C   UNL     1       5.225   5.164  18.368  0.00  0.00    +0.000 A 
ATOM      4  C   UNL     1       4.188   6.057  18.088  0.00  0.00    +0.000 A 
ATOM      5  C   UNL     1       2.923   5.842  18.636  0.00  0.00    +0.000 A 
ATOM      6  C   UNL     1       2.672   4.735  19.461  0.00  0.00    +0.000 A 
ATOM      7  C   UNL     1       3.720   3.847  19.763  0.00  0.00    +0.000 A 
ATOM      8  C   UNL     1       4.988   4.060  19.195  0.00  0.00    +0.000 A 
ATOM      9  C   UNL     1       3.495   2.624  20.620  0.00  0.00    +0.000 C 
ATOM     10  C   UNL     1       2.206   2.686  21.441  0.00  0.00    +0.000 C 
ATOM     11  C   UNL     1       1.042   3.137  20.569  0.00  0.00    +0.000 C 
ATOM     12  C   UNL     1       1.290   4.550  20.042  0.00  0.00    +0.000 C 
ENDBRANCH   2   3
BRANCH   2  13
ATOM     13  C   UNL     1       6.724   6.199  16.543  0.00  0.00    +0.000 C 
BRANCH  13  14
ATOM     14  O   UNL     1       7.618   5.617  15.595  0.00  0.00    +0.000 OA
BRANCH  14  15
ATOM     15  C   UNL     1       6.995   4.913  14.595  0.00  0.00    +0.000 A 
ATOM     16  C   UNL     1       5.766   4.264  14.744  0.00  0.00    +0.000 A 
ATOM     17  C   UNL     1       5.195   3.582  13.669  0.00  0.00    +0.000 A 
ATOM     18  C   UNL     1       5.851   3.563  12.444  0.00  0.00    +0.000 A 
ATOM     19  F   UNL     1       5.300   2.906  11.416  0.00  0.00    +0.000 F 
ATOM     20  C   UNL     1       7.060   4.226  12.272  0.00  0.00    +0.000 A 
ATOM     21  C   UNL     1       7.631   4.909  13.350  0.00  0.00    +0.000 A 
ENDBRANCH  14  15
ENDBRANCH  13  14
ENDBRANCH   2  13
TORSDOF 4
ENDMDL
MODEL 3
REMARK VINA RESULT:      -8.0      1.152      1.176
REMARK  Name = 
REMARK  4 active torsions:
REMARK  status: ('A' for Active; 'I' for Inactive)
REMARK    1  A    between atoms: C_2  and  C_3
REMARK    2  A    between atoms: C_2  and  C_12
REMARK    3  A    between atoms: C_3  and  O_4
REMARK    4  A    between atoms: O_4  and  C_5
REMARK                            x       y       z     vdW  Elec       q    Type
REMARK                         _______ _______ _______ _____ _____    ______ ____
ROOT
ATOM      1  O   UNL     1       5.094   7.139  15.524  0.00  0.00    +0.000 OA
ATOM      2  C   UNL     1       5.371   6.242  16.332  0.00  0.00    +0.000 C 
ENDROOT
BRANCH   2   3
ATOM      3  C   UNL     1       4.310   5.738  17.240  0.00  0.00    +0.000 A 
ATOM      4  C   UNL     1       3.642   6.589  18.124  0.00  0.00    +0.000 A 
ATOM      5  C   UNL     1       2.643   6.078  18.953  0.00  0.00    +0.000 A 
ATOM      6  C   UNL     1       2.292   4.719  18.909  0.00  0.00    +0.000 A 
ATOM      7  C   UNL     1       2.980   3.858  18.036  0.00  0.00    +0.000 A 
ATOM      8  C   UNL     1       3.973   4.381  17.192  0.00  0.00    +0.000 A 
ATOM      9  C   UNL     1       2.619   2.394  17.928  0.00  0.00    +0.000 C 
ATOM     10  C   UNL     1       1.791   1.883  19.107  0.00  0.00    +0.000 C 
ATOM     11  C   UNL     1       0.655   2.849  19.417  0.00  0.00    +0.000 C 
ATOM     12  C   UNL     1       1.213   4.208  19.834  0.00  0.00    +0.000 C 
ENDBRANCH   2   3
BRANCH   2  13
ATOM     13  C   UNL     1       6.738   5.577  16.387  0.00  0.00    +0.000 C 
BRANCH  13  14
ATOM     14  O   UNL     1       7.491   5.792  15.194  0.00  0.00    +0.000 OA
BRANCH  14  15
ATOM     15  C   UNL     1       7.120   4.990  14.144  0.00  0.00    +0.000 A 
ATOM     16  C   UNL     1       7.667   5.079  12.860  0.00  0.00    +0.000 A 
ATOM     17  C   UNL     1       7.244   4.212  11.853  0.00  0.00    +0.000 A 
ATOM     18  C   UNL     1       6.282   3.250  12.136  0.00  0.00    +0.000 A 
ATOM     19  F   UNL     1       5.877   2.422  11.166  0.00  0.00    +0.000 F 
ATOM     20  C   UNL     1       5.748   3.130  13.413  0.00  0.00    +0.000 A 
ATOM     21  C   UNL     1       6.173   3.999  14.423  0.00  0.00    +0.000 A 
ENDBRANCH  14  15
ENDBRANCH  13  14
ENDBRANCH   2  13
TORSDOF 4
ENDMDL
MODEL 4
REMARK VINA RESULT:      -7.9      4.005      6.154
REMARK  Name = 
REMARK  4 active torsions:
REMARK  status: ('A' for Active; 'I' for Inactive)
REMARK    1  A    between atoms: C_2  and  C_3
REMARK    2  A    between atoms: C_2  and  C_12
REMARK    3  A    between atoms: C_3  and  O_4
REMARK    4  A    between atoms: O_4  and  C_5
REMARK                            x       y       z     vdW  Elec       q    Type
REMARK                         _______ _______ _______ _____ _____    ______ ____
ROOT
ATOM      1  O   UNL     1       5.361   5.297  18.917  0.00  0.00    +0.000 OA
ATOM      2  C   UNL     1       4.303   5.378  18.279  0.00  0.00    +0.000 C 
ENDROOT
BRANCH   2   3
ATOM      3  C   UNL     1       3.417   6.549  18.498  0.00  0.00    +0.000 A 
ATOM      4  C   UNL     1       3.261   7.537  17.523  0.00  0.00    +0.000 A 
ATOM      5  C   UNL     1       2.409   8.616  17.763  0.00  0.00    +0.000 A 
ATOM      6  C   UNL     1       1.698   8.722  18.968  0.00  0.00    +0.000 A 
ATOM      7  C   UNL     1       1.872   7.739  19.959  0.00  0.00    +0.000 A 
ATOM      8  C   UNL     1       2.718   6.647  19.706  0.00  0.00    +0.000 A 
ATOM      9  C   UNL     1       1.107   7.790  21.262  0.00  0.00    +0.000 C 
ATOM     10  C   UNL     1       0.504   9.163  21.560  0.00  0.00    +0.000 C 
ATOM     11  C   UNL     1      -0.201   9.712  20.327  0.00  0.00    +0.000 C 
ATOM     12  C   UNL     1       0.797   9.914  19.189  0.00  0.00    +0.000 C 
ENDBRANCH   2   3
BRANCH   2  13
ATOM     13  C   UNL     1       3.901   4.361  17.220  0.00  0.00    +0.000 C 
BRANCH  13  14
ATOM     14  O   UNL     1       3.873   3.031  17.733  0.00  0.00    +0.000 OA
BRANCH  14  15
ATOM     15  C   UNL     1       3.142   2.889  18.886  0.00  0.00    +0.000 A 
ATOM     16  C   UNL     1       3.694   2.552  20.126  0.00  0.00    +0.000 A 
ATOM     17  C   UNL     1       2.880   2.443  21.253  0.00  0.00    +0.000 A 
ATOM     18  C   UNL     1       1.516   2.684  21.139  0.00  0.00    +0.000 A 
ATOM     19  F   UNL     1       0.738   2.576  22.223  0.00  0.00    +0.000 F 
ATOM     20  C   UNL     1       0.955   3.046  19.920  0.00  0.00    +0.000 A 
ATOM     21  C   UNL     1       1.773   3.155  18.791  0.00  0.00    +0.000 A 
ENDBRANCH  14  15
ENDBRANCH  13  14
ENDBRANCH   2  13
TORSDOF 4
ENDMDL
MODEL 5
REMARK VINA RESULT:      -7.8      4.127      6.379
REMARK  Name = 
REMARK  4 active torsions:
REMARK  status: ('A' for Active; 'I' for Inactive)
REMARK    1  A    between atoms: C_2  and  C_3
REMARK    2  A    between atoms: C_2  and  C_12
REMARK    3  A    between atoms: C_3  and  O_4
REMARK    4  A    between atoms: O_4  and  C_5
REMARK                            x       y       z     vdW  Elec       q    Type
REMARK                         _______ _______ _______ _____ _____    ______ ____
ROOT
ATOM      1  O   UNL     1       5.117   6.444  17.379  0.00  0.00    +0.000 OA
ATOM      2  C   UNL     1       3.935   6.170  17.625  0.00  0.00    +0.000 C 
ENDROOT
BRANCH   2   3
ATOM      3  C   UNL     1       3.046   7.229  18.164  0.00  0.00    +0.000 A 
ATOM      4  C   UNL     1       2.700   8.349  17.404  0.00  0.00    +0.000 A 
ATOM      5  C   UNL     1       1.853   9.316  17.944  0.00  0.00    +0.000 A 
ATOM      6  C   UNL     1       1.334   9.180  19.240  0.00  0.00    +0.000 A 
ATOM      7  C   UNL     1       1.699   8.065  20.016  0.00  0.00    +0.000 A 
ATOM      8  C   UNL     1       2.540   7.085  19.461  0.00  0.00    +0.000 A 
ATOM      9  C   UNL     1       1.144   7.856  21.405  0.00  0.00    +0.000 C 
ATOM     10  C   UNL     1       0.539   9.120  22.016  0.00  0.00    +0.000 C 
ATOM     11  C   UNL     1      -0.371   9.812  21.010  0.00  0.00    +0.000 C 
ATOM     12  C   UNL     1       0.430  10.259  19.788  0.00  0.00    +0.000 C 
ENDBRANCH   2   3
BRANCH   2  13
ATOM     13  C   UNL     1       3.328   4.806  17.328  0.00  0.00    +0.000 C 
BRANCH  13  14
ATOM     14  O   UNL     1       3.834   3.790  18.192  0.00  0.00    +0.000 OA
BRANCH  14  15
ATOM     15  C   UNL     1       3.002   3.475  19.236  0.00  0.00    +0.000 A 
ATOM     16  C   UNL     1       1.618   3.680  19.224  0.00  0.00    +0.000 A 
ATOM     17  C   UNL     1       0.843   3.315  20.325  0.00  0.00    +0.000 A 
ATOM     18  C   UNL     1       1.453   2.735  21.430  0.00  0.00    +0.000 A 
ATOM     19  F   UNL     1       0.705   2.388  22.485  0.00  0.00    +0.000 F 
ATOM     20  C   UNL     1       2.822   2.499  21.448  0.00  0.00    +0.000 A 
ATOM     21  C   UNL     1       3.599   2.865  20.344  0.00  0.00    +0.000 A 
ENDBRANCH  14  15
ENDBRANCH  13  14
ENDBRANCH   2  13
TORSDOF 4
ENDMDL
MODEL 6
REMARK VINA RESULT:      -7.7      1.132      1.942
REMARK  Name = 
REMARK  4 active torsions:
REMARK  status: ('A' for Active; 'I' for Inactive)
REMARK    1  A    between atoms: C_2  and  C_3
REMARK    2  A    between atoms: C_2  and  C_12
REMARK    3  A    between atoms: C_3  and  O_4
REMARK    4  A    between atoms: O_4  and  C_5
REMARK                            x       y       z     vdW  Elec       q    Type
REMARK                         _______ _______ _______ _____ _____    ______ ____
ROOT
ATOM      1  O   UNL     1       6.961   6.220  18.585  0.00  0.00    +0.000 OA
ATOM      2  C   UNL     1       6.617   5.270  17.870  0.00  0.00    +0.000 C 
ENDROOT
BRANCH   2   3
ATOM      3  C   UNL     1       5.309   4.615  18.122  0.00  0.00    +0.000 A 
ATOM      4  C   UNL     1       4.874   3.534  17.352  0.00  0.00    +0.000 A 
ATOM      5  C   UNL     1       3.643   2.938  17.629  0.00  0.00    +0.000 A 
ATOM      6  C   UNL     1       2.834   3.404  18.677  0.00  0.00    +0.000 A 
ATOM      7  C   UNL     1       3.260   4.507  19.438  0.00  0.00    +0.000 A 
ATOM      8  C   UNL     1       4.508   5.093  19.166  0.00  0.00    +0.000 A 
ATOM      9  C   UNL     1       2.441   5.028  20.596  0.00  0.00    +0.000 C 
ATOM     10  C   UNL     1       0.988   4.553  20.577  0.00  0.00    +0.000 C 
ATOM     11  C   UNL     1       0.923   3.056  20.308  0.00  0.00    +0.000 C 
ATOM     12  C   UNL     1       1.503   2.737  18.932  0.00  0.00    +0.000 C 
ENDBRANCH   2   3
BRANCH   2  13
ATOM     13  C   UNL     1       7.446   4.786  16.689  0.00  0.00    +0.000 C 
BRANCH  13  14
ATOM     14  O   UNL     1       7.229   5.572  15.519  0.00  0.00    +0.000 OA
BRANCH  14  15
ATOM     15  C   UNL     1       6.770   4.858  14.441  0.00  0.00    +0.000 A 
ATOM     16  C   UNL     1       5.523   4.228  14.392  0.00  0.00    +0.000 A 
ATOM     17  C   UNL     1       5.128   3.535  13.248  0.00  0.00    +0.000 A 
ATOM     18  C   UNL     1       5.978   3.485  12.150  0.00  0.00    +0.000 A 
ATOM     19  F   UNL     1       5.596   2.817  11.054  0.00  0.00    +0.000 F 
ATOM     20  C   UNL     1       7.210   4.128  12.171  0.00  0.00    +0.000 A 
ATOM     21  C   UNL     1       7.605   4.823  13.319  0.00  0.00    +0.000 A 
ENDBRANCH  14  15
ENDBRANCH  13  14
ENDBRANCH   2  13
TORSDOF 4
ENDMDL
MODEL 7
REMARK VINA RESULT:      -7.7      1.376      1.766
REMARK  Name = 
REMARK  4 active torsions:
REMARK  status: ('A' for Active; 'I' for Inactive)
REMARK    1  A    between atoms: C_2  and  C_3
REMARK    2  A    between atoms: C_2  and  C_12
REMARK    3  A    between atoms: C_3  and  O_4
REMARK    4  A    between atoms: O_4  and  C_5
REMARK                            x       y       z     vdW  Elec       q    Type
REMARK                         _______ _______ _______ _____ _____    ______ ____
ROOT
ATOM      1  O   UNL     1       4.934   6.999  15.335  0.00  0.00    +0.000 OA
ATOM      2  C   UNL     1       5.282   6.414  16.369  0.00  0.00    +0.000 C 
ENDROOT
BRANCH   2   3
ATOM      3  C   UNL     1       4.239   5.857  17.267  0.00  0.00    +0.000 A 
ATOM      4  C   UNL     1       3.561   6.661  18.185  0.00  0.00    +0.000 A 
ATOM      5  C   UNL     1       2.579   6.101  19.003  0.00  0.00    +0.000 A 
ATOM      6  C   UNL     1       2.256   4.738  18.914  0.00  0.00    +0.000 A 
ATOM      7  C   UNL     1       2.954   3.922  18.006  0.00  0.00    +0.000 A 
ATOM      8  C   UNL     1       3.930   4.495  17.173  0.00  0.00    +0.000 A 
ATOM      9  C   UNL     1       2.623   2.456  17.849  0.00  0.00    +0.000 C 
ATOM     10  C   UNL     1       1.816   1.886  19.015  0.00  0.00    +0.000 C 
ATOM     11  C   UNL     1       0.663   2.817  19.368  0.00  0.00    +0.000 C 
ATOM     12  C   UNL     1       1.195   4.172  19.828  0.00  0.00    +0.000 C 
ENDBRANCH   2   3
BRANCH   2  13
ATOM     13  C   UNL     1       6.741   6.174  16.728  0.00  0.00    +0.000 C 
BRANCH  13  14
ATOM     14  O   UNL     1       7.193   4.885  16.318  0.00  0.00    +0.000 OA
BRANCH  14  15
ATOM     15  C   UNL     1       7.110   4.665  14.966  0.00  0.00    +0.000 A 
ATOM     16  C   UNL     1       6.211   3.774  14.371  0.00  0.00    +0.000 A 
ATOM     17  C   UNL     1       6.183   3.623  12.985  0.00  0.00    +0.000 A 
ATOM     18  C   UNL     1       7.047   4.372  12.196  0.00  0.00    +0.000 A 
ATOM     19  F   UNL     1       7.018   4.222  10.866  0.00  0.00    +0.000 F 
ATOM     20  C   UNL     1       7.928   5.282  12.769  0.00  0.00    +0.000 A 
ATOM     21  C   UNL     1       7.955   5.433  14.158  0.00  0.00    +0.000 A 
ENDBRANCH  14  15
ENDBRANCH  13  14
ENDBRANCH   2  13
TORSDOF 4
ENDMDL
MODEL 8
REMARK VINA RESULT:      -7.6      4.159      6.610
REMARK  Name = 
REMARK  4 active torsions:
REMARK  status: ('A' for Active; 'I' for Inactive)
REMARK    1  A    between atoms: C_2  and  C_3
REMARK    2  A    between atoms: C_2  and  C_12
REMARK    3  A    between atoms: C_3  and  O_4
REMARK    4  A    between atoms: O_4  and  C_5
REMARK                            x       y       z     vdW  Elec       q    Type
REMARK                         _______ _______ _______ _____ _____    ______ ____
ROOT
ATOM      1  O   UNL     1       5.090   6.124  18.113  0.00  0.00    +0.000 OA
ATOM      2  C   UNL     1       3.877   5.880  18.089  0.00  0.00    +0.000 C 
ENDROOT
BRANCH   2   3
ATOM      3  C   UNL     1       2.942   6.795  18.792  0.00  0.00    +0.000 A 
ATOM      4  C   UNL     1       2.441   6.493  20.060  0.00  0.00    +0.000 A 
ATOM      5  C   UNL     1       1.575   7.385  20.692  0.00  0.00    +0.000 A 
ATOM      6  C   UNL     1       1.201   8.589  20.074  0.00  0.00    +0.000 A 
ATOM      7  C   UNL     1       1.686   8.884  18.787  0.00  0.00    +0.000 A 
ATOM      8  C   UNL     1       2.572   7.989  18.163  0.00  0.00    +0.000 A 
ATOM      9  C   UNL     1       1.339  10.179  18.092  0.00  0.00    +0.000 C 
ATOM     10  C   UNL     1       0.129  10.890  18.698  0.00  0.00    +0.000 C 
ATOM     11  C   UNL     1       0.244  10.935  20.216  0.00  0.00    +0.000 C 
ATOM     12  C   UNL     1       0.250   9.519  20.790  0.00  0.00    +0.000 C 
ENDBRANCH   2   3
BRANCH   2  13
ATOM     13  C   UNL     1       3.287   4.715  17.306  0.00  0.00    +0.000 C 
BRANCH  13  14
ATOM     14  O   UNL     1       3.625   3.454  17.878  0.00  0.00    +0.000 OA
BRANCH  14  15
ATOM     15  C   UNL     1       2.957   3.167  19.042  0.00  0.00    +0.000 A 
ATOM     16  C   UNL     1       3.587   2.865  20.253  0.00  0.00    +0.000 A 
ATOM     17  C   UNL     1       2.830   2.601  21.394  0.00  0.00    +0.000 A 
ATOM     18  C   UNL     1       1.443   2.652  21.323  0.00  0.00    +0.000 A 
ATOM     19  F   UNL     1       0.720   2.396  22.420  0.00  0.00    +0.000 F 
ATOM     20  C   UNL     1       0.801   2.978  20.134  0.00  0.00    +0.000 A 
ATOM     21  C   UNL     1       1.561   3.242  18.991  0.00  0.00    +0.000 A 
ENDBRANCH  14  15
ENDBRANCH  13  14
ENDBRANCH   2  13
TORSDOF 4
ENDMDL
MODEL 9
REMARK VINA RESULT:      -7.6      3.150      4.965
REMARK  Name = 
REMARK  4 active torsions:
REMARK  status: ('A' for Active; 'I' for Inactive)
REMARK    1  A    between atoms: C_2  and  C_3
REMARK    2  A    between atoms: C_2  and  C_12
REMARK    3  A    between atoms: C_3  and  O_4
REMARK    4  A    between atoms: O_4  and  C_5
REMARK                            x       y       z     vdW  Elec       q    Type
REMARK                         _______ _______ _______ _____ _____    ______ ____
ROOT
ATOM      1  O   UNL     1       2.370   4.613  21.252  0.00  0.00    +0.000 OA
ATOM      2  C   UNL     1       2.647   4.903  20.081  0.00  0.00    +0.000 C 
ENDROOT
BRANCH   2   3
ATOM      3  C   UNL     1       2.368   6.277  19.594  0.00  0.00    +0.000 A 
ATOM      4  C   UNL     1       2.709   6.675  18.299  0.00  0.00    +0.000 A 
ATOM      5  C   UNL     1       2.419   7.972  17.875  0.00  0.00    +0.000 A 
ATOM      6  C   UNL     1       1.782   8.886  18.729  0.00  0.00    +0.000 A 
ATOM      7  C   UNL     1       1.458   8.494  20.040  0.00  0.00    +0.000 A 
ATOM      8  C   UNL     1       1.738   7.181  20.456  0.00  0.00    +0.000 A 
ATOM      9  C   UNL     1       0.744   9.428  20.988  0.00  0.00    +0.000 C 
ATOM     10  C   UNL     1       0.805  10.894  20.559  0.00  0.00    +0.000 C 
ATOM     11  C   UNL     1       0.470  11.029  19.079  0.00  0.00    +0.000 C 
ATOM     12  C   UNL     1       1.499  10.284  18.232  0.00  0.00    +0.000 C 
ENDBRANCH   2   3
BRANCH   2  13
ATOM     13  C   UNL     1       3.333   3.930  19.132  0.00  0.00    +0.000 C 
BRANCH  13  14
ATOM     14  O   UNL     1       4.750   3.933  19.290  0.00  0.00    +0.000 OA
BRANCH  14  15
ATOM     15  C   UNL     1       5.443   4.220  18.141  0.00  0.00    +0.000 A 
ATOM     16  C   UNL     1       6.750   4.717  18.118  0.00  0.00    +0.000 A 
ATOM     17  C   UNL     1       7.387   4.967  16.902  0.00  0.00    +0.000 A 
ATOM     18  C   UNL     1       6.718   4.708  15.712  0.00  0.00    +0.000 A 
ATOM     19  F   UNL     1       7.332   4.952  14.548  0.00  0.00    +0.000 F 
ATOM     20  C   UNL     1       5.429   4.189  15.717  0.00  0.00    +0.000 A 
ATOM     21  C   UNL     1       4.791   3.938  16.936  0.00  0.00    +0.000 A 
ENDBRANCH  14  15
ENDBRANCH  13  14
ENDBRANCH   2  13
TORSDOF 4
ENDMDL
