MODEL 1
REMARK VINA RESULT:      -7.6      0.000      0.000
REMARK  Name = 
REMARK  7 active torsions:
REMARK  status: ('A' for Active; 'I' for Inactive)
REMARK    1  A    between atoms: C_1  and  O_2
REMARK    2  A    between atoms: O_2  and  C_3
REMARK    3  A    between atoms: C_7  and  C_8
REMARK    4  A    between atoms: C_20  and  C_21
REMARK    5  A    between atoms: C_21  and  O_22
REMARK    6  A    between atoms: C_25  and  O_26
REMARK    7  A    between atoms: O_26  and  C_27
REMARK                            x       y       z     vdW  Elec       q    Type
REMARK                         _______ _______ _______ _____ _____    ______ ____
ROOT
ATOM      1  C   UNL     1       1.691   9.790  18.608  0.00  0.00    +0.000 A 
ATOM      2  C   UNL     1       2.742   9.216  17.885  0.00  0.00    +0.000 A 
ATOM      3  C   UNL     1       3.086   7.880  17.977  0.00  0.00    +0.000 A 
ATOM      4  N   UNL     1       4.041   7.421  17.165  0.00  0.00    +0.000 NA
ATOM      5  C   UNL     1       4.299   6.112  17.195  0.00  0.00    +0.000 A 
ATOM      6  N   UNL     1       3.683   5.241  18.012  0.00  0.00    +0.000 NA
ATOM      7  C   UNL     1       2.754   5.696  18.878  0.00  0.00    +0.000 A 
ATOM      8  N   UNL     1       2.100   4.724  19.640  0.00  0.00    +0.000 N 
ATOM      9  C   UNL     1       1.793   4.952  21.057  0.00  0.00    +0.000 C 
ATOM     10  C   UNL     1       2.393   3.764  21.796  0.00  0.00    +0.000 C 
ATOM     11  C   UNL     1       2.271   2.630  20.803  0.00  0.00    +0.000 C 
ATOM     12  C   UNL     1       2.439   3.291  19.427  0.00  0.00    +0.000 C 
ATOM     13  C   UNL     1       2.388   7.063  18.873  0.00  0.00    +0.000 A 
ATOM     14  C   UNL     1       1.361   7.659  19.646  0.00  0.00    +0.000 A 
ATOM     15  C   UNL     1       1.023   9.005  19.550  0.00  0.00    +0.000 A 
ENDROOT
BRANCH   5  16
ATOM     16  C   UNL     1       5.288   5.581  16.241  0.00  0.00    +0.000 A 
ATOM     17  C   UNL     1       4.962   4.627  15.262  0.00  0.00    +0.000 A 
ATOM     18  C   UNL     1       5.929   4.145  14.380  0.00  0.00    +0.000 A 
ATOM     19  C   UNL     1       7.216   4.636  14.490  0.00  0.00    +0.000 A 
ATOM     20  N   UNL     1       7.589   5.549  15.408  0.00  0.00    +0.000 NA
ATOM     21  C   UNL     1       6.621   5.989  16.258  0.00  0.00    +0.000 A 
ENDBRANCH   5  16
BRANCH   1  23
ATOM     22  C   UNL     1       2.391  11.999  18.168  0.00  0.00    +0.000 C 
ATOM     23  O   UNL     1       1.314  11.086  18.409  0.00  0.00    +0.000 OA
ENDBRANCH   1  23
BRANCH  15  24
ATOM     24  O   UNL     1       0.019   9.334  20.413  0.00  0.00    +0.000 OA
ATOM     25  C   UNL     1      -0.023   8.743  21.703  0.00  0.00    +0.000 C 
ENDBRANCH  15  24
BRANCH  12  26
ATOM     26  C   UNL     1       1.464   2.652  18.416  0.00  0.00    +0.000 C 
BRANCH  26  27
ATOM     27  O   UNL     1       1.901   2.795  17.068  0.00  0.00    +0.000 OA
ATOM     28  H   UNL     1       1.590   3.676  16.786  0.00  0.00    +0.000 HD
ENDBRANCH  26  27
ENDBRANCH  12  26
TORSDOF 5
ENDMDL
MODEL 2
REMARK VINA RESULT:      -6.8      2.867      6.174
REMARK  Name = 
REMARK  7 active torsions:
REMARK  status: ('A' for Active; 'I' for Inactive)
REMARK    1  A    between atoms: C_1  and  O_2
REMARK    2  A    between atoms: O_2  and  C_3
REMARK    3  A    between atoms: C_7  and  C_8
REMARK    4  A    between atoms: C_20  and  C_21
REMARK    5  A    between atoms: C_21  and  O_22
REMARK    6  A    between atoms: C_25  and  O_26
REMARK    7  A    between atoms: O_26  and  C_27
REMARK                            x       y       z     vdW  Elec       q    Type
REMARK                         _______ _______ _______ _____ _____    ______ ____
ROOT
ATOM      1  C   UNL     1       6.032   6.589  17.030  0.00  0.00    +0.000 A 
ATOM      2  C   UNL     1       5.050   7.433  17.561  0.00  0.00    +0.000 A 
ATOM      3  C   UNL     1       3.939   6.971  18.240  0.00  0.00    +0.000 A 
ATOM      4  N   UNL     1       3.121   7.871  18.790  0.00  0.00    +0.000 NA
ATOM      5  C   UNL     1       2.104   7.414  19.524  0.00  0.00    +0.000 A 
ATOM      6  N   UNL     1       1.836   6.111  19.710  0.00  0.00    +0.000 NA
ATOM      7  C   UNL     1       2.620   5.186  19.117  0.00  0.00    +0.000 A 
ATOM      8  N   UNL     1       2.330   3.853  19.420  0.00  0.00    +0.000 N 
ATOM      9  C   UNL     1       2.382   2.814  18.385  0.00  0.00    +0.000 C 
ATOM     10  C   UNL     1       1.025   2.125  18.437  0.00  0.00    +0.000 C 
ATOM     11  C   UNL     1       0.633   2.223  19.894  0.00  0.00    +0.000 C 
ATOM     12  C   UNL     1       1.230   3.553  20.375  0.00  0.00    +0.000 C 
ATOM     13  C   UNL     1       3.748   5.591  18.365  0.00  0.00    +0.000 A 
ATOM     14  C   UNL     1       4.714   4.737  17.777  0.00  0.00    +0.000 A 
ATOM     15  C   UNL     1       5.829   5.209  17.092  0.00  0.00    +0.000 A 
ENDROOT
BRANCH   5  16
ATOM     16  C   UNL     1       1.248   8.399  20.208  0.00  0.00    +0.000 A 
ATOM     17  C   UNL     1       0.745   8.196  21.505  0.00  0.00    +0.000 A 
ATOM     18  C   UNL     1      -0.067   9.151  22.116  0.00  0.00    +0.000 A 
ATOM     19  C   UNL     1      -0.359  10.306  21.416  0.00  0.00    +0.000 A 
ATOM     20  N   UNL     1       0.092  10.556  20.171  0.00  0.00    +0.000 NA
ATOM     21  C   UNL     1       0.874   9.598  19.602  0.00  0.00    +0.000 A 
ENDBRANCH   5  16
BRANCH   1  23
ATOM     22  C   UNL     1       7.891   8.020  17.272  0.00  0.00    +0.000 C 
ATOM     23  O   UNL     1       7.168   7.087  16.461  0.00  0.00    +0.000 OA
ENDBRANCH   1  23
BRANCH  15  24
ATOM     24  O   UNL     1       6.590   4.187  16.605  0.00  0.00    +0.000 OA
ATOM     25  C   UNL     1       6.451   3.789  15.249  0.00  0.00    +0.000 C 
ENDBRANCH  15  24
BRANCH  12  26
ATOM     26  C   UNL     1       1.788   3.389  21.805  0.00  0.00    +0.000 C 
BRANCH  26  27
ATOM     27  O   UNL     1       2.866   2.459  21.869  0.00  0.00    +0.000 OA
ATOM     28  H   UNL     1       2.469   1.587  21.681  0.00  0.00    +0.000 HD
ENDBRANCH  26  27
ENDBRANCH  12  26
TORSDOF 5
ENDMDL
MODEL 3
REMARK VINA RESULT:      -6.5      7.114     11.229
REMARK  Name = 
REMARK  7 active torsions:
REMARK  status: ('A' for Active; 'I' for Inactive)
REMARK    1  A    between atoms: C_1  and  O_2
REMARK    2  A    between atoms: O_2  and  C_3
REMARK    3  A    between atoms: C_7  and  C_8
REMARK    4  A    between atoms: C_20  and  C_21
REMARK    5  A    between atoms: C_21  and  O_22
REMARK    6  A    between atoms: C_25  and  O_26
REMARK    7  A    between atoms: O_26  and  C_27
REMARK                            x       y       z     vdW  Elec       q    Type
REMARK                         _______ _______ _______ _____ _____    ______ ____
ROOT
ATOM      1  C   UNL     1      -0.834  10.400  18.167  0.00  0.00    +0.000 A 
ATOM      2  C   UNL     1      -0.906  11.260  19.269  0.00  0.00    +0.000 A 
ATOM      3  C   UNL     1      -2.067  11.901  19.657  0.00  0.00    +0.000 A 
ATOM      4  N   UNL     1      -2.043  12.617  20.783  0.00  0.00    +0.000 NA
ATOM      5  C   UNL     1      -3.192  13.152  21.199  0.00  0.00    +0.000 A 
ATOM      6  N   UNL     1      -4.356  13.044  20.538  0.00  0.00    +0.000 NA
ATOM      7  C   UNL     1      -4.390  12.369  19.370  0.00  0.00    +0.000 A 
ATOM      8  N   UNL     1      -5.649  12.229  18.779  0.00  0.00    +0.000 N 
ATOM      9  C   UNL     1      -5.822  12.356  17.327  0.00  0.00    +0.000 C 
ATOM     10  C   UNL     1      -6.906  13.409  17.142  0.00  0.00    +0.000 C 
ATOM     11  C   UNL     1      -7.791  13.225  18.354  0.00  0.00    +0.000 C 
ATOM     12  C   UNL     1      -6.838  12.788  19.475  0.00  0.00    +0.000 C 
ATOM     13  C   UNL     1      -3.223  11.730  18.887  0.00  0.00    +0.000 A 
ATOM     14  C   UNL     1      -3.135  10.904  17.739  0.00  0.00    +0.000 A 
ATOM     15  C   UNL     1      -1.960  10.265  17.352  0.00  0.00    +0.000 A 
ENDROOT
BRANCH   5  16
ATOM     16  C   UNL     1      -3.194  13.870  22.485  0.00  0.00    +0.000 A 
ATOM     17  C   UNL     1      -2.072  13.916  23.331  0.00  0.00    +0.000 A 
ATOM     18  C   UNL     1      -2.116  14.603  24.544  0.00  0.00    +0.000 A 
ATOM     19  C   UNL     1      -3.290  15.244  24.890  0.00  0.00    +0.000 A 
ATOM     20  N   UNL     1      -4.397  15.234  24.122  0.00  0.00    +0.000 NA
ATOM     21  C   UNL     1      -4.321  14.547  22.951  0.00  0.00    +0.000 A 
ENDBRANCH   5  16
BRANCH   1  23
ATOM     22  C   UNL     1       1.508  10.269  18.409  0.00  0.00    +0.000 C 
ATOM     23  O   UNL     1       0.304   9.703  17.880  0.00  0.00    +0.000 OA
ENDBRANCH   1  23
BRANCH  15  24
ATOM     24  O   UNL     1      -2.132   9.549  16.204  0.00  0.00    +0.000 OA
ATOM     25  C   UNL     1      -3.027  10.019  15.208  0.00  0.00    +0.000 C 
ENDBRANCH  15  24
BRANCH  12  26
ATOM     26  C   UNL     1      -7.513  11.704  20.343  0.00  0.00    +0.000 C 
BRANCH  26  27
ATOM     27  O   UNL     1      -6.865  11.526  21.599  0.00  0.00    +0.000 OA
ATOM     28  H   UNL     1      -5.995  11.958  21.507  0.00  0.00    +0.000 HD
ENDBRANCH  26  27
ENDBRANCH  12  26
TORSDOF 5
ENDMDL
MODEL 4
REMARK VINA RESULT:      -6.3      0.919      1.062
REMARK  Name = 
REMARK  7 active torsions:
REMARK  status: ('A' for Active; 'I' for Inactive)
REMARK    1  A    between atoms: C_1  and  O_2
REMARK    2  A    between atoms: O_2  and  C_3
REMARK    3  A    between atoms: C_7  and  C_8
REMARK    4  A    between atoms: C_20  and  C_21
REMARK    5  A    between atoms: C_21  and  O_22
REMARK    6  A    between atoms: C_25  and  O_26
REMARK    7  A    between atoms: O_26  and  C_27
REMARK                            x       y       z     vdW  Elec       q    Type
REMARK                         _______ _______ _______ _____ _____    ______ ____
ROOT
ATOM      1  C   UNL     1       1.766   9.785  18.612  0.00  0.00    +0.000 A 
ATOM      2  C   UNL     1       2.761   9.150  17.861  0.00  0.00    +0.000 A 
ATOM      3  C   UNL     1       3.044   7.801  17.963  0.00  0.00    +0.000 A 
ATOM      4  N   UNL     1       3.946   7.284  17.126  0.00  0.00    +0.000 NA
ATOM      5  C   UNL     1       4.142   5.965  17.168  0.00  0.00    +0.000 A 
ATOM      6  N   UNL     1       3.515   5.137  18.021  0.00  0.00    +0.000 NA
ATOM      7  C   UNL     1       2.641   5.649  18.911  0.00  0.00    +0.000 A 
ATOM      8  N   UNL     1       1.969   4.721  19.712  0.00  0.00    +0.000 N 
ATOM      9  C   UNL     1       1.725   4.985  21.135  0.00  0.00    +0.000 C 
ATOM     10  C   UNL     1       2.293   3.779  21.871  0.00  0.00    +0.000 C 
ATOM     11  C   UNL     1       2.081   2.638  20.902  0.00  0.00    +0.000 C 
ATOM     12  C   UNL     1       2.231   3.271  19.510  0.00  0.00    +0.000 C 
ATOM     13  C   UNL     1       2.341   7.032  18.896  0.00  0.00    +0.000 A 
ATOM     14  C   UNL     1       1.372   7.688  19.695  0.00  0.00    +0.000 A 
ATOM     15  C   UNL     1       1.096   9.048  19.590  0.00  0.00    +0.000 A 
ENDROOT
BRANCH   5  16
ATOM     16  C   UNL     1       5.070   5.372  16.188  0.00  0.00    +0.000 A 
ATOM     17  C   UNL     1       5.824   6.149  15.292  0.00  0.00    +0.000 A 
ATOM     18  C   UNL     1       6.688   5.549  14.376  0.00  0.00    +0.000 A 
ATOM     19  C   UNL     1       6.789   4.171  14.378  0.00  0.00    +0.000 A 
ATOM     20  N   UNL     1       6.091   3.375  15.211  0.00  0.00    +0.000 NA
ATOM     21  C   UNL     1       5.251   3.994  16.084  0.00  0.00    +0.000 A 
ENDBRANCH   5  16
BRANCH   1  23
ATOM     22  C   UNL     1       1.628  11.949  19.539  0.00  0.00    +0.000 C 
ATOM     23  O   UNL     1       1.445  11.095  18.405  0.00  0.00    +0.000 OA
ENDBRANCH   1  23
BRANCH  15  24
ATOM     24  O   UNL     1       0.141   9.438  20.482  0.00  0.00    +0.000 OA
ATOM     25  C   UNL     1      -0.180   8.599  21.582  0.00  0.00    +0.000 C 
ENDBRANCH  15  24
BRANCH  12  26
ATOM     26  C   UNL     1       1.190   2.664  18.546  0.00  0.00    +0.000 C 
BRANCH  26  27
ATOM     27  O   UNL     1      -0.028   2.319  19.200  0.00  0.00    +0.000 OA
ATOM     28  H   UNL     1      -0.034   1.344  19.242  0.00  0.00    +0.000 HD
ENDBRANCH  26  27
ENDBRANCH  12  26
TORSDOF 5
ENDMDL
MODEL 5
REMARK VINA RESULT:      -6.3      6.900     11.045
REMARK  Name = 
REMARK  7 active torsions:
REMARK  status: ('A' for Active; 'I' for Inactive)
REMARK    1  A    between atoms: C_1  and  O_2
REMARK    2  A    between atoms: O_2  and  C_3
REMARK    3  A    between atoms: C_7  and  C_8
REMARK    4  A    between atoms: C_20  and  C_21
REMARK    5  A    between atoms: C_21  and  O_22
REMARK    6  A    between atoms: C_25  and  O_26
REMARK    7  A    between atoms: O_26  and  C_27
REMARK                            x       y       z     vdW  Elec       q    Type
REMARK                         _______ _______ _______ _____ _____    ______ ____
ROOT
ATOM      1  C   UNL     1      -0.798  10.500  18.290  0.00  0.00    +0.000 A 
ATOM      2  C   UNL     1      -0.687  11.333  19.409  0.00  0.00    +0.000 A 
ATOM      3  C   UNL     1      -1.758  12.007  19.962  0.00  0.00    +0.000 A 
ATOM      4  N   UNL     1      -1.554  12.693  21.089  0.00  0.00    +0.000 NA
ATOM      5  C   UNL     1      -2.614  13.261  21.667  0.00  0.00    +0.000 A 
ATOM      6  N   UNL     1      -3.860  13.213  21.167  0.00  0.00    +0.000 NA
ATOM      7  C   UNL     1      -4.077  12.570  20.001  0.00  0.00    +0.000 A 
ATOM      8  N   UNL     1      -5.408  12.493  19.583  0.00  0.00    +0.000 N 
ATOM      9  C   UNL     1      -5.770  12.664  18.171  0.00  0.00    +0.000 C 
ATOM     10  C   UNL     1      -6.825  13.761  18.155  0.00  0.00    +0.000 C 
ATOM     11  C   UNL     1      -7.546  13.580  19.472  0.00  0.00    +0.000 C 
ATOM     12  C   UNL     1      -6.470  13.079  20.445  0.00  0.00    +0.000 C 
ATOM     13  C   UNL     1      -3.013  11.900  19.353  0.00  0.00    +0.000 A 
ATOM     14  C   UNL     1      -3.113  11.101  18.187  0.00  0.00    +0.000 A 
ATOM     15  C   UNL     1      -2.028  10.428  17.632  0.00  0.00    +0.000 A 
ENDROOT
BRANCH   5  16
ATOM     16  C   UNL     1      -2.414  13.946  22.956  0.00  0.00    +0.000 A 
ATOM     17  C   UNL     1      -3.474  14.241  23.831  0.00  0.00    +0.000 A 
ATOM     18  C   UNL     1      -3.244  14.896  25.041  0.00  0.00    +0.000 A 
ATOM     19  C   UNL     1      -1.945  15.240  25.361  0.00  0.00    +0.000 A 
ATOM     20  N   UNL     1      -0.889  14.985  24.564  0.00  0.00    +0.000 NA
ATOM     21  C   UNL     1      -1.152  14.354  23.387  0.00  0.00    +0.000 A 
ENDBRANCH   5  16
BRANCH   1  23
ATOM     22  C   UNL     1       1.536  10.170  18.352  0.00  0.00    +0.000 C 
ATOM     23  O   UNL     1       0.261   9.768  17.839  0.00  0.00    +0.000 OA
ENDBRANCH   1  23
BRANCH  15  24
ATOM     24  O   UNL     1      -2.381   9.748  16.504  0.00  0.00    +0.000 OA
ATOM     25  C   UNL     1      -2.805  10.465  15.354  0.00  0.00    +0.000 C 
ENDBRANCH  15  24
BRANCH  12  26
ATOM     26  C   UNL     1      -7.066  11.999  21.374  0.00  0.00    +0.000 C 
BRANCH  26  27
ATOM     27  O   UNL     1      -6.990  10.692  20.813  0.00  0.00    +0.000 OA
ATOM     28  H   UNL     1      -6.061  10.581  20.534  0.00  0.00    +0.000 HD
ENDBRANCH  26  27
ENDBRANCH  12  26
TORSDOF 5
ENDMDL
MODEL 6
REMARK VINA RESULT:      -6.2      2.909      6.013
REMARK  Name = 
REMARK  7 active torsions:
REMARK  status: ('A' for Active; 'I' for Inactive)
REMARK    1  A    between atoms: C_1  and  O_2
REMARK    2  A    between atoms: O_2  and  C_3
REMARK    3  A    between atoms: C_7  and  C_8
REMARK    4  A    between atoms: C_20  and  C_21
REMARK    5  A    between atoms: C_21  and  O_22
REMARK    6  A    between atoms: C_25  and  O_26
REMARK    7  A    between atoms: O_26  and  C_27
REMARK                            x       y       z     vdW  Elec       q    Type
REMARK                         _______ _______ _______ _____ _____    ______ ____
ROOT
ATOM      1  C   UNL     1       6.580   6.997  17.116  0.00  0.00    +0.000 A 
ATOM      2  C   UNL     1       5.456   7.808  17.312  0.00  0.00    +0.000 A 
ATOM      3  C   UNL     1       4.260   7.335  17.819  0.00  0.00    +0.000 A 
ATOM      4  N   UNL     1       3.288   8.219  18.058  0.00  0.00    +0.000 NA
ATOM      5  C   UNL     1       2.173   7.768  18.636  0.00  0.00    +0.000 A 
ATOM      6  N   UNL     1       1.958   6.480  18.956  0.00  0.00    +0.000 NA
ATOM      7  C   UNL     1       2.907   5.564  18.673  0.00  0.00    +0.000 A 
ATOM      8  N   UNL     1       2.649   4.261  19.106  0.00  0.00    +0.000 N 
ATOM      9  C   UNL     1       2.985   3.104  18.267  0.00  0.00    +0.000 C 
ATOM     10  C   UNL     1       1.695   2.303  18.151  0.00  0.00    +0.000 C 
ATOM     11  C   UNL     1       1.001   2.554  19.472  0.00  0.00    +0.000 C 
ATOM     12  C   UNL     1       1.397   3.986  19.859  0.00  0.00    +0.000 C 
ATOM     13  C   UNL     1       4.138   5.972  18.106  0.00  0.00    +0.000 A 
ATOM     14  C   UNL     1       5.260   5.143  17.854  0.00  0.00    +0.000 A 
ATOM     15  C   UNL     1       6.460   5.625  17.340  0.00  0.00    +0.000 A 
ENDROOT
BRANCH   5  16
ATOM     16  C   UNL     1       1.130   8.748  18.984  0.00  0.00    +0.000 A 
ATOM     17  C   UNL     1       0.441   9.499  18.016  0.00  0.00    +0.000 A 
ATOM     18  C   UNL     1      -0.537  10.422  18.388  0.00  0.00    +0.000 A 
ATOM     19  C   UNL     1      -0.817  10.572  19.732  0.00  0.00    +0.000 A 
ATOM     20  N   UNL     1      -0.190   9.882  20.705  0.00  0.00    +0.000 NA
ATOM     21  C   UNL     1       0.765   8.998  20.307  0.00  0.00    +0.000 A 
ENDBRANCH   5  16
BRANCH   1  23
ATOM     22  C   UNL     1       8.274   8.583  17.536  0.00  0.00    +0.000 C 
ATOM     23  O   UNL     1       7.774   7.522  16.715  0.00  0.00    +0.000 OA
ENDBRANCH   1  23
BRANCH  15  24
ATOM     24  O   UNL     1       7.372   4.625  17.169  0.00  0.00    +0.000 OA
ATOM     25  C   UNL     1       8.308   4.341  18.198  0.00  0.00    +0.000 C 
ENDBRANCH  15  24
BRANCH  12  26
ATOM     26  C   UNL     1       1.653   4.065  21.379  0.00  0.00    +0.000 C 
BRANCH  26  27
ATOM     27  O   UNL     1       2.310   2.905  21.884  0.00  0.00    +0.000 OA
ATOM     28  H   UNL     1       1.603   2.251  22.037  0.00  0.00    +0.000 HD
ENDBRANCH  26  27
ENDBRANCH  12  26
TORSDOF 5
ENDMDL
MODEL 7
REMARK VINA RESULT:      -6.1      6.217     10.160
REMARK  Name = 
REMARK  7 active torsions:
REMARK  status: ('A' for Active; 'I' for Inactive)
REMARK    1  A    between atoms: C_1  and  O_2
REMARK    2  A    between atoms: O_2  and  C_3
REMARK    3  A    between atoms: C_7  and  C_8
REMARK    4  A    between atoms: C_20  and  C_21
REMARK    5  A    between atoms: C_21  and  O_22
REMARK    6  A    between atoms: C_25  and  O_26
REMARK    7  A    between atoms: O_26  and  C_27
REMARK                            x       y       z     vdW  Elec       q    Type
REMARK                         _______ _______ _______ _____ _____    ______ ____
ROOT
ATOM      1  C   UNL     1      -5.467  11.916  17.782  0.00  0.00    +0.000 A 
ATOM      2  C   UNL     1      -5.137  12.378  19.061  0.00  0.00    +0.000 A 
ATOM      3  C   UNL     1      -3.850  12.364  19.564  0.00  0.00    +0.000 A 
ATOM      4  N   UNL     1      -3.638  12.923  20.758  0.00  0.00    +0.000 NA
ATOM      5  C   UNL     1      -2.378  12.990  21.192  0.00  0.00    +0.000 A 
ATOM      6  N   UNL     1      -1.322  12.500  20.520  0.00  0.00    +0.000 NA
ATOM      7  C   UNL     1      -1.524  11.884  19.337  0.00  0.00    +0.000 A 
ATOM      8  N   UNL     1      -0.374  11.472  18.657  0.00  0.00    +0.000 N 
ATOM      9  C   UNL     1      -0.331  10.183  17.956  0.00  0.00    +0.000 C 
ATOM     10  C   UNL     1       0.892   9.464  18.509  0.00  0.00    +0.000 C 
ATOM     11  C   UNL     1       1.852  10.589  18.826  0.00  0.00    +0.000 C 
ATOM     12  C   UNL     1       0.958  11.762  19.252  0.00  0.00    +0.000 C 
ATOM     13  C   UNL     1      -2.825  11.817  18.785  0.00  0.00    +0.000 A 
ATOM     14  C   UNL     1      -3.170  11.298  17.512  0.00  0.00    +0.000 A 
ATOM     15  C   UNL     1      -4.470  11.312  17.014  0.00  0.00    +0.000 A 
ENDROOT
BRANCH   5  16
ATOM     16  C   UNL     1      -2.122  13.683  22.467  0.00  0.00    +0.000 A 
ATOM     17  C   UNL     1      -3.106  13.833  23.460  0.00  0.00    +0.000 A 
ATOM     18  C   UNL     1      -2.825  14.501  24.651  0.00  0.00    +0.000 A 
ATOM     19  C   UNL     1      -1.552  15.004  24.835  0.00  0.00    +0.000 A 
ATOM     20  N   UNL     1      -0.568  14.892  23.920  0.00  0.00    +0.000 NA
ATOM     21  C   UNL     1      -0.881  14.243  22.765  0.00  0.00    +0.000 A 
ENDBRANCH   5  16
BRANCH   1  23
ATOM     22  C   UNL     1      -7.171  13.394  17.095  0.00  0.00    +0.000 C 
ATOM     23  O   UNL     1      -6.730  12.045  17.281  0.00  0.00    +0.000 OA
ENDBRANCH   1  23
BRANCH  15  24
ATOM     24  O   UNL     1      -4.541  10.735  15.779  0.00  0.00    +0.000 OA
ATOM     25  C   UNL     1      -3.347  10.380  15.098  0.00  0.00    +0.000 C 
ENDBRANCH  15  24
BRANCH  12  26
ATOM     26  C   UNL     1       1.524  13.082  18.687  0.00  0.00    +0.000 C 
BRANCH  26  27
ATOM     27  O   UNL     1       2.210  12.900  17.451  0.00  0.00    +0.000 OA
ATOM     28  H   UNL     1       2.972  12.327  17.659  0.00  0.00    +0.000 HD
ENDBRANCH  26  27
ENDBRANCH  12  26
TORSDOF 5
ENDMDL
MODEL 8
REMARK VINA RESULT:      -6.0      2.920      6.873
REMARK  Name = 
REMARK  7 active torsions:
REMARK  status: ('A' for Active; 'I' for Inactive)
REMARK    1  A    between atoms: C_1  and  O_2
REMARK    2  A    between atoms: O_2  and  C_3
REMARK    3  A    between atoms: C_7  and  C_8
REMARK    4  A    between atoms: C_20  and  C_21
REMARK    5  A    between atoms: C_21  and  O_22
REMARK    6  A    between atoms: C_25  and  O_26
REMARK    7  A    between atoms: O_26  and  C_27
REMARK                            x       y       z     vdW  Elec       q    Type
REMARK                         _______ _______ _______ _____ _____    ______ ____
ROOT
ATOM      1  C   UNL     1       2.795   2.750  21.118  0.00  0.00    +0.000 A 
ATOM      2  C   UNL     1       2.211   4.019  21.037  0.00  0.00    +0.000 A 
ATOM      3  C   UNL     1       2.735   5.048  20.277  0.00  0.00    +0.000 A 
ATOM      4  N   UNL     1       2.040   6.184  20.195  0.00  0.00    +0.000 NA
ATOM      5  C   UNL     1       2.506   7.135  19.383  0.00  0.00    +0.000 A 
ATOM      6  N   UNL     1       3.643   7.031  18.675  0.00  0.00    +0.000 NA
ATOM      7  C   UNL     1       4.387   5.911  18.787  0.00  0.00    +0.000 A 
ATOM      8  N   UNL     1       5.514   5.840  17.963  0.00  0.00    +0.000 N 
ATOM      9  C   UNL     1       6.780   5.289  18.458  0.00  0.00    +0.000 C 
ATOM     10  C   UNL     1       7.823   6.363  18.180  0.00  0.00    +0.000 C 
ATOM     11  C   UNL     1       7.320   7.029  16.920  0.00  0.00    +0.000 C 
ATOM     12  C   UNL     1       5.789   6.957  17.020  0.00  0.00    +0.000 C 
ATOM     13  C   UNL     1       3.935   4.837  19.589  0.00  0.00    +0.000 A 
ATOM     14  C   UNL     1       4.554   3.568  19.717  0.00  0.00    +0.000 A 
ATOM     15  C   UNL     1       4.023   2.539  20.488  0.00  0.00    +0.000 A 
ENDROOT
BRANCH   5  16
ATOM     16  C   UNL     1       1.700   8.358  19.218  0.00  0.00    +0.000 A 
ATOM     17  C   UNL     1       1.528   8.990  17.974  0.00  0.00    +0.000 A 
ATOM     18  C   UNL     1       0.762  10.150  17.860  0.00  0.00    +0.000 A 
ATOM     19  C   UNL     1       0.170  10.657  19.001  0.00  0.00    +0.000 A 
ATOM     20  N   UNL     1       0.300  10.097  20.219  0.00  0.00    +0.000 NA
ATOM     21  C   UNL     1       1.063   8.972  20.294  0.00  0.00    +0.000 A 
ENDBRANCH   5  16
BRANCH   1  23
ATOM     22  C   UNL     1       0.986   2.090  22.481  0.00  0.00    +0.000 C 
ATOM     23  O   UNL     1       2.189   1.730  21.793  0.00  0.00    +0.000 OA
ENDBRANCH   1  23
BRANCH  15  24
ATOM     24  O   UNL     1       4.817   1.430  20.464  0.00  0.00    +0.000 OA
ATOM     25  C   UNL     1       5.522   1.043  21.634  0.00  0.00    +0.000 C 
ENDBRANCH  15  24
BRANCH  12  26
ATOM     26  C   UNL     1       5.188   6.650  15.632  0.00  0.00    +0.000 C 
BRANCH  26  27
ATOM     27  O   UNL     1       6.005   5.771  14.863  0.00  0.00    +0.000 OA
ATOM     28  H   UNL     1       6.050   6.168  13.973  0.00  0.00    +0.000 HD
ENDBRANCH  26  27
ENDBRANCH  12  26
TORSDOF 5
ENDMDL
MODEL 9
REMARK VINA RESULT:      -6.0      4.220      7.205
REMARK  Name = 
REMARK  7 active torsions:
REMARK  status: ('A' for Active; 'I' for Inactive)
REMARK    1  A    between atoms: C_1  and  O_2
REMARK    2  A    between atoms: O_2  and  C_3
REMARK    3  A    between atoms: C_7  and  C_8
REMARK    4  A    between atoms: C_20  and  C_21
REMARK    5  A    between atoms: C_21  and  O_22
REMARK    6  A    between atoms: C_25  and  O_26
REMARK    7  A    between atoms: O_26  and  C_27
REMARK                            x       y       z     vdW  Elec       q    Type
REMARK                         _______ _______ _______ _____ _____    ______ ____
ROOT
ATOM      1  C   UNL     1       1.306  14.967  19.649  0.00  0.00    +0.000 A 
ATOM      2  C   UNL     1       1.795  13.658  19.734  0.00  0.00    +0.000 A 
ATOM      3  C   UNL     1       1.055  12.547  19.375  0.00  0.00    +0.000 A 
ATOM      4  N   UNL     1       1.658  11.357  19.403  0.00  0.00    +0.000 NA
ATOM      5  C   UNL     1       0.967  10.304  18.962  0.00  0.00    +0.000 A 
ATOM      6  N   UNL     1      -0.304  10.365  18.529  0.00  0.00    +0.000 NA
ATOM      7  C   UNL     1      -0.948  11.551  18.544  0.00  0.00    +0.000 A 
ATOM      8  N   UNL     1      -2.237  11.554  18.005  0.00  0.00    +0.000 N 
ATOM      9  C   UNL     1      -3.318  12.321  18.634  0.00  0.00    +0.000 C 
ATOM     10  C   UNL     1      -4.444  11.321  18.860  0.00  0.00    +0.000 C 
ATOM     11  C   UNL     1      -4.294  10.352  17.708  0.00  0.00    +0.000 C 
ATOM     12  C   UNL     1      -2.784  10.293  17.436  0.00  0.00    +0.000 C 
ATOM     13  C   UNL     1      -0.266  12.722  18.949  0.00  0.00    +0.000 A 
ATOM     14  C   UNL     1      -0.778  14.043  18.916  0.00  0.00    +0.000 A 
ATOM     15  C   UNL     1      -0.028  15.157  19.284  0.00  0.00    +0.000 A 
ENDROOT
BRANCH   5  16
ATOM     16  C   UNL     1       1.652   9.001  18.906  0.00  0.00    +0.000 A 
ATOM     17  C   UNL     1       2.327   8.547  17.760  0.00  0.00    +0.000 A 
ATOM     18  C   UNL     1       2.959   7.304  17.746  0.00  0.00    +0.000 A 
ATOM     19  C   UNL     1       2.911   6.533  18.891  0.00  0.00    +0.000 A 
ATOM     20  N   UNL     1       2.279   6.913  20.018  0.00  0.00    +0.000 NA
ATOM     21  C   UNL     1       1.665   8.127  19.993  0.00  0.00    +0.000 A 
ENDBRANCH   5  16
BRANCH   1  23
ATOM     22  C   UNL     1       3.048  16.361  18.884  0.00  0.00    +0.000 C 
ATOM     23  O   UNL     1       2.102  16.043  19.911  0.00  0.00    +0.000 OA
ENDBRANCH   1  23
BRANCH  15  24
ATOM     24  O   UNL     1      -0.755  16.307  19.185  0.00  0.00    +0.000 OA
ATOM     25  C   UNL     1      -0.604  17.140  18.045  0.00  0.00    +0.000 C 
ENDBRANCH  15  24
BRANCH  12  26
ATOM     26  C   UNL     1      -2.529  10.233  15.915  0.00  0.00    +0.000 C 
BRANCH  26  27
ATOM     27  O   UNL     1      -3.000  11.393  15.234  0.00  0.00    +0.000 OA
ATOM     28  H   UNL     1      -3.968  11.393  15.360  0.00  0.00    +0.000 HD
ENDBRANCH  26  27
ENDBRANCH  12  26
TORSDOF 5
ENDMDL
