MODEL 1
REMARK VINA RESULT:      -6.5      0.000      0.000
REMARK  Name = 
REMARK  11 active torsions:
REMARK  status: ('A' for Active; 'I' for Inactive)
REMARK    1  A    between atoms: C_1  and  C_2
REMARK    2  A    between atoms: C_2  and  C_3
REMARK    3  A    between atoms: C_7  and  C_8
REMARK    4  A    between atoms: C_9  and  C_10
REMARK    5  A    between atoms: C_10  and  O_12
REMARK    6  A    between atoms: O_12  and  C_13
REMARK    7  A    between atoms: C_18  and  C_19
REMARK    8  A    between atoms: C_21  and  C_22
REMARK    9  A    between atoms: C_23  and  C_24
REMARK   10  A    between atoms: C_24  and  O_26
REMARK   11  A    between atoms: O_26  and  C_27
REMARK                            x       y       z     vdW  Elec       q    Type
REMARK                         _______ _______ _______ _____ _____    ______ ____
ROOT
ATOM      1  C   UNL     1      -2.575  12.996  21.101  0.00  0.00    +0.000 C 
ATOM      2  C   UNL     1      -3.650  13.089  22.211  0.00  0.00    +0.000 C 
ATOM      3  C   UNL     1      -3.434  12.487  23.409  0.00  0.00    +0.000 C 
ATOM      4  C   UNL     1      -4.314  12.544  24.635  0.00  0.00    +0.000 C 
ATOM      5  N   UNL     1      -2.291  11.714  23.584  0.00  0.00    +0.000 N 
ATOM      6  C   UNL     1      -1.453  11.302  22.561  0.00  0.00    +0.000 C 
ATOM      7  C   UNL     1      -0.452  10.230  22.919  0.00  0.00    +0.000 C 
ATOM      8  C   UNL     1      -1.572  11.860  21.332  0.00  0.00    +0.000 C 
ATOM      9  H   UNL     1      -2.226  11.199  24.461  0.00  0.00    +0.000 HD
ENDROOT
BRANCH   1  14
ATOM     10  C   UNL     1      -1.152  16.188  20.003  0.00  0.00    +0.000 A 
ATOM     11  N   UNL     1      -0.685  16.230  21.230  0.00  0.00    +0.000 NA
ATOM     12  C   UNL     1      -1.124  15.085  21.849  0.00  0.00    +0.000 A 
ATOM     13 CL   UNL     1      -0.794  14.762  23.481  0.00  0.00    +0.000 Cl
ATOM     14  C   UNL     1      -1.852  14.315  20.967  0.00  0.00    +0.000 A 
ATOM     15  N   UNL     1      -1.846  15.025  19.787  0.00  0.00    +0.000 N 
ATOM     16  H   UNL     1      -2.306  14.755  18.928  0.00  0.00    +0.000 HD
BRANCH  10  18
ATOM     17  C   UNL     1       0.362  17.212  18.336  0.00  0.00    +0.000 C 
ATOM     18  C   UNL     1      -1.021  17.248  18.968  0.00  0.00    +0.000 C 
ENDBRANCH  10  18
ENDBRANCH   1  14
BRANCH   2  19
ATOM     19  C   UNL     1      -4.862  13.914  21.902  0.00  0.00    +0.000 C 
ATOM     20  O   UNL     1      -5.565  14.476  22.723  0.00  0.00    +0.000 OA
BRANCH  19  21
ATOM     21  O   UNL     1      -5.055  13.948  20.560  0.00  0.00    +0.000 OA
BRANCH  21  22
ATOM     22  C   UNL     1      -6.260  13.365  20.051  0.00  0.00    +0.000 C 
ATOM     23  C   UNL     1      -6.372  13.467  18.534  0.00  0.00    +0.000 C 
ATOM     24  C   UNL     1      -7.306  12.326  18.157  0.00  0.00    +0.000 C 
ATOM     25  C   UNL     1      -7.063  11.232  19.194  0.00  0.00    +0.000 C 
ATOM     26  C   UNL     1      -6.197  11.856  20.281  0.00  0.00    +0.000 C 
ENDBRANCH  21  22
ENDBRANCH  19  21
ENDBRANCH   2  19
BRANCH   8  27
ATOM     27  C   UNL     1      -0.668  11.465  20.216  0.00  0.00    +0.000 C 
ATOM     28  O   UNL     1       0.441  11.947  20.033  0.00  0.00    +0.000 OA
BRANCH  27  29
ATOM     29  O   UNL     1      -1.224  10.512  19.425  0.00  0.00    +0.000 OA
BRANCH  29  30
ATOM     30  C   UNL     1      -1.673  10.974  18.142  0.00  0.00    +0.000 C 
ATOM     31  C   UNL     1      -1.637   9.874  17.088  0.00  0.00    +0.000 C 
ATOM     32  C   UNL     1      -2.622  10.344  16.027  0.00  0.00    +0.000 C 
ATOM     33  C   UNL     1      -3.673  11.160  16.774  0.00  0.00    +0.000 C 
ATOM     34  C   UNL     1      -3.153  11.340  18.198  0.00  0.00    +0.000 C 
ENDBRANCH  29  30
ENDBRANCH  27  29
ENDBRANCH   8  27
TORSDOF 8
ENDMDL
MODEL 2
REMARK VINA RESULT:      -6.5      0.943      1.182
REMARK  Name = 
REMARK  11 active torsions:
REMARK  status: ('A' for Active; 'I' for Inactive)
REMARK    1  A    between atoms: C_1  and  C_2
REMARK    2  A    between atoms: C_2  and  C_3
REMARK    3  A    between atoms: C_7  and  C_8
REMARK    4  A    between atoms: C_9  and  C_10
REMARK    5  A    between atoms: C_10  and  O_12
REMARK    6  A    between atoms: O_12  and  C_13
REMARK    7  A    between atoms: C_18  and  C_19
REMARK    8  A    between atoms: C_21  and  C_22
REMARK    9  A    between atoms: C_23  and  C_24
REMARK   10  A    between atoms: C_24  and  O_26
REMARK   11  A    between atoms: O_26  and  C_27
REMARK                            x       y       z     vdW  Elec       q    Type
REMARK                         _______ _______ _______ _____ _____    ______ ____
ROOT
ATOM      1  C   UNL     1      -2.210  13.121  20.633  0.00  0.00    +0.000 C 
ATOM      2  C   UNL     1      -3.197  13.358  21.802  0.00  0.00    +0.000 C 
ATOM      3  C   UNL     1      -2.992  12.741  22.994  0.00  0.00    +0.000 C 
ATOM      4  C   UNL     1      -3.783  12.918  24.267  0.00  0.00    +0.000 C 
ATOM      5  N   UNL     1      -1.951  11.826  23.113  0.00  0.00    +0.000 N 
ATOM      6  C   UNL     1      -1.235  11.302  22.049  0.00  0.00    +0.000 C 
ATOM      7  C   UNL     1      -0.362  10.111  22.363  0.00  0.00    +0.000 C 
ATOM      8  C   UNL     1      -1.352  11.865  20.822  0.00  0.00    +0.000 C 
ATOM      9  H   UNL     1      -1.902  11.312  23.991  0.00  0.00    +0.000 HD
ENDROOT
BRANCH   1  14
ATOM     10  C   UNL     1      -0.371  16.030  19.380  0.00  0.00    +0.000 A 
ATOM     11  N   UNL     1       0.040  16.118  20.624  0.00  0.00    +0.000 NA
ATOM     12  C   UNL     1      -0.559  15.084  21.302  0.00  0.00    +0.000 A 
ATOM     13 CL   UNL     1      -0.346  14.859  22.970  0.00  0.00    +0.000 Cl
ATOM     14  C   UNL     1      -1.332  14.334  20.441  0.00  0.00    +0.000 A 
ATOM     15  N   UNL     1      -1.187  14.940  19.213  0.00  0.00    +0.000 N 
ATOM     16  H   UNL     1      -1.636  14.656  18.353  0.00  0.00    +0.000 HD
BRANCH  10  18
ATOM     17  C   UNL     1       1.359  17.492  18.387  0.00  0.00    +0.000 C 
ATOM     18  C   UNL     1      -0.068  16.980  18.276  0.00  0.00    +0.000 C 
ENDBRANCH  10  18
ENDBRANCH   1  14
BRANCH   2  19
ATOM     19  C   UNL     1      -4.308  14.333  21.553  0.00  0.00    +0.000 C 
ATOM     20  O   UNL     1      -4.375  15.463  22.004  0.00  0.00    +0.000 OA
BRANCH  19  21
ATOM     21  O   UNL     1      -5.231  13.767  20.736  0.00  0.00    +0.000 OA
BRANCH  21  22
ATOM     22  C   UNL     1      -5.843  12.548  21.174  0.00  0.00    +0.000 C 
ATOM     23  C   UNL     1      -7.206  12.770  21.819  0.00  0.00    +0.000 C 
ATOM     24  C   UNL     1      -7.916  11.435  21.642  0.00  0.00    +0.000 C 
ATOM     25  C   UNL     1      -7.371  10.843  20.345  0.00  0.00    +0.000 C 
ATOM     26  C   UNL     1      -6.187  11.713  19.942  0.00  0.00    +0.000 C 
ENDBRANCH  21  22
ENDBRANCH  19  21
ENDBRANCH   2  19
BRANCH   8  27
ATOM     27  C   UNL     1      -0.574  11.349  19.660  0.00  0.00    +0.000 C 
ATOM     28  O   UNL     1       0.556  11.722  19.377  0.00  0.00    +0.000 OA
BRANCH  27  29
ATOM     29  O   UNL     1      -1.271  10.422  18.954  0.00  0.00    +0.000 OA
BRANCH  29  30
ATOM     30  C   UNL     1      -1.788  10.882  17.696  0.00  0.00    +0.000 C 
ATOM     31  C   UNL     1      -1.880   9.762  16.666  0.00  0.00    +0.000 C 
ATOM     32  C   UNL     1      -2.914  10.260  15.668  0.00  0.00    +0.000 C 
ATOM     33  C   UNL     1      -3.870  11.139  16.469  0.00  0.00    +0.000 C 
ATOM     34  C   UNL     1      -3.241  11.320  17.848  0.00  0.00    +0.000 C 
ENDBRANCH  29  30
ENDBRANCH  27  29
ENDBRANCH   8  27
TORSDOF 8
ENDMDL
MODEL 3
REMARK VINA RESULT:      -6.2      3.280      6.948
REMARK  Name = 
REMARK  11 active torsions:
REMARK  status: ('A' for Active; 'I' for Inactive)
REMARK    1  A    between atoms: C_1  and  C_2
REMARK    2  A    between atoms: C_2  and  C_3
REMARK    3  A    between atoms: C_7  and  C_8
REMARK    4  A    between atoms: C_9  and  C_10
REMARK    5  A    between atoms: C_10  and  O_12
REMARK    6  A    between atoms: O_12  and  C_13
REMARK    7  A    between atoms: C_18  and  C_19
REMARK    8  A    between atoms: C_21  and  C_22
REMARK    9  A    between atoms: C_23  and  C_24
REMARK   10  A    between atoms: C_24  and  O_26
REMARK   11  A    between atoms: O_26  and  C_27
REMARK                            x       y       z     vdW  Elec       q    Type
REMARK                         _______ _______ _______ _____ _____    ______ ____
ROOT
ATOM      1  C   UNL     1      -0.033  11.629  19.712  0.00  0.00    +0.000 C 
ATOM      2  C   UNL     1      -0.135  10.713  20.956  0.00  0.00    +0.000 C 
ATOM      3  C   UNL     1      -0.540  11.232  22.143  0.00  0.00    +0.000 C 
ATOM      4  C   UNL     1      -0.788  10.487  23.433  0.00  0.00    +0.000 C 
ATOM      5  N   UNL     1      -0.762  12.601  22.244  0.00  0.00    +0.000 N 
ATOM      6  C   UNL     1      -0.380  13.535  21.296  0.00  0.00    +0.000 C 
ATOM      7  C   UNL     1      -0.440  14.980  21.730  0.00  0.00    +0.000 C 
ATOM      8  C   UNL     1       0.017  13.119  20.069  0.00  0.00    +0.000 C 
ATOM      9  H   UNL     1      -0.961  12.957  23.179  0.00  0.00    +0.000 HD
ENDROOT
BRANCH   1  14
ATOM     10  C   UNL     1      -2.239  10.515  17.008  0.00  0.00    +0.000 A 
ATOM     11  N   UNL     1      -3.155  11.162  17.691  0.00  0.00    +0.000 NA
ATOM     12  C   UNL     1      -2.521  11.674  18.797  0.00  0.00    +0.000 A 
ATOM     13 CL   UNL     1      -3.357  12.541  19.992  0.00  0.00    +0.000 Cl
ATOM     14  C   UNL     1      -1.181  11.354  18.770  0.00  0.00    +0.000 A 
ATOM     15  N   UNL     1      -1.013  10.628  17.611  0.00  0.00    +0.000 N 
ATOM     16  H   UNL     1      -0.147  10.217  17.287  0.00  0.00    +0.000 HD
BRANCH  10  18
ATOM     17  C   UNL     1      -3.356  10.456  14.802  0.00  0.00    +0.000 C 
ATOM     18  C   UNL     1      -2.454   9.712  15.774  0.00  0.00    +0.000 C 
ENDBRANCH  10  18
ENDBRANCH   1  14
BRANCH   2  19
ATOM     19  C   UNL     1       0.166   9.260  20.744  0.00  0.00    +0.000 C 
ATOM     20  O   UNL     1      -0.594   8.337  20.974  0.00  0.00    +0.000 OA
BRANCH  19  21
ATOM     21  O   UNL     1       1.421   9.127  20.246  0.00  0.00    +0.000 OA
BRANCH  21  22
ATOM     22  C   UNL     1       1.609   8.203  19.168  0.00  0.00    +0.000 C 
ATOM     23  C   UNL     1       2.509   8.754  18.067  0.00  0.00    +0.000 C 
ATOM     24  C   UNL     1       3.066   7.509  17.392  0.00  0.00    +0.000 C 
ATOM     25  C   UNL     1       3.150   6.446  18.485  0.00  0.00    +0.000 C 
ATOM     26  C   UNL     1       2.409   7.011  19.690  0.00  0.00    +0.000 C 
ENDBRANCH  21  22
ENDBRANCH  19  21
ENDBRANCH   2  19
BRANCH   8  27
ATOM     27  C   UNL     1       0.406  14.095  19.013  0.00  0.00    +0.000 C 
ATOM     28  O   UNL     1      -0.388  14.815  18.424  0.00  0.00    +0.000 OA
BRANCH  27  29
ATOM     29  O   UNL     1       1.743  14.085  18.779  0.00  0.00    +0.000 OA
BRANCH  29  30
ATOM     30  C   UNL     1       2.353  15.382  18.694  0.00  0.00    +0.000 C 
ATOM     31  C   UNL     1       2.807  15.896  20.055  0.00  0.00    +0.000 C 
ATOM     32  C   UNL     1       3.873  16.931  19.724  0.00  0.00    +0.000 C 
ATOM     33  C   UNL     1       4.515  16.459  18.422  0.00  0.00    +0.000 C 
ATOM     34  C   UNL     1       3.659  15.304  17.910  0.00  0.00    +0.000 C 
ENDBRANCH  29  30
ENDBRANCH  27  29
ENDBRANCH   8  27
TORSDOF 8
ENDMDL
MODEL 4
REMARK VINA RESULT:      -6.0      9.060     11.365
REMARK  Name = 
REMARK  11 active torsions:
REMARK  status: ('A' for Active; 'I' for Inactive)
REMARK    1  A    between atoms: C_1  and  C_2
REMARK    2  A    between atoms: C_2  and  C_3
REMARK    3  A    between atoms: C_7  and  C_8
REMARK    4  A    between atoms: C_9  and  C_10
REMARK    5  A    between atoms: C_10  and  O_12
REMARK    6  A    between atoms: O_12  and  C_13
REMARK    7  A    between atoms: C_18  and  C_19
REMARK    8  A    between atoms: C_21  and  C_22
REMARK    9  A    between atoms: C_23  and  C_24
REMARK   10  A    between atoms: C_24  and  O_26
REMARK   11  A    between atoms: O_26  and  C_27
REMARK                            x       y       z     vdW  Elec       q    Type
REMARK                         _______ _______ _______ _____ _____    ______ ____
ROOT
ATOM      1  C   UNL     1       5.173   6.452  16.552  0.00  0.00    +0.000 C 
ATOM      2  C   UNL     1       3.936   6.436  17.482  0.00  0.00    +0.000 C 
ATOM      3  C   UNL     1       3.506   5.262  18.011  0.00  0.00    +0.000 C 
ATOM      4  C   UNL     1       2.386   5.057  19.003  0.00  0.00    +0.000 C 
ATOM      5  N   UNL     1       4.127   4.078  17.628  0.00  0.00    +0.000 N 
ATOM      6  C   UNL     1       5.005   3.955  16.564  0.00  0.00    +0.000 C 
ATOM      7  C   UNL     1       5.328   2.545  16.132  0.00  0.00    +0.000 C 
ATOM      8  C   UNL     1       5.512   5.070  15.982  0.00  0.00    +0.000 C 
ATOM      9  H   UNL     1       3.703   3.216  17.968  0.00  0.00    +0.000 HD
ENDROOT
BRANCH   1  14
ATOM     10  C   UNL     1       7.889   8.526  17.872  0.00  0.00    +0.000 A 
ATOM     11  N   UNL     1       8.124   7.475  18.624  0.00  0.00    +0.000 NA
ATOM     12  C   UNL     1       7.177   6.540  18.286  0.00  0.00    +0.000 A 
ATOM     13 CL   UNL     1       7.078   5.038  19.068  0.00  0.00    +0.000 Cl
ATOM     14  C   UNL     1       6.364   7.024  17.284  0.00  0.00    +0.000 A 
ATOM     15  N   UNL     1       6.843   8.288  17.017  0.00  0.00    +0.000 N 
ATOM     16  H   UNL     1       6.464   8.937  16.342  0.00  0.00    +0.000 HD
BRANCH  10  18
ATOM     17  C   UNL     1       9.220  10.045  19.300  0.00  0.00    +0.000 C 
ATOM     18  C   UNL     1       8.594   9.835  17.931  0.00  0.00    +0.000 C 
ENDBRANCH  10  18
ENDBRANCH   1  14
BRANCH   2  19
ATOM     19  C   UNL     1       3.317   7.764  17.798  0.00  0.00    +0.000 C 
ATOM     20  O   UNL     1       3.688   8.840  17.365  0.00  0.00    +0.000 OA
BRANCH  19  21
ATOM     21  O   UNL     1       2.269   7.586  18.639  0.00  0.00    +0.000 OA
BRANCH  21  22
ATOM     22  C   UNL     1       1.807   8.727  19.371  0.00  0.00    +0.000 C 
ATOM     23  C   UNL     1       0.550   9.346  18.770  0.00  0.00    +0.000 C 
ATOM     24  C   UNL     1      -0.098  10.071  19.942  0.00  0.00    +0.000 C 
ATOM     25  C   UNL     1       0.273   9.265  21.184  0.00  0.00    +0.000 C 
ATOM     26  C   UNL     1       1.325   8.256  20.742  0.00  0.00    +0.000 C 
ENDBRANCH  21  22
ENDBRANCH  19  21
ENDBRANCH   2  19
BRANCH   8  27
ATOM     27  C   UNL     1       6.482   4.979  14.856  0.00  0.00    +0.000 C 
ATOM     28  O   UNL     1       7.694   5.075  14.991  0.00  0.00    +0.000 OA
BRANCH  27  29
ATOM     29  O   UNL     1       5.862   4.781  13.665  0.00  0.00    +0.000 OA
BRANCH  29  30
ATOM     30  C   UNL     1       6.074   3.488  13.078  0.00  0.00    +0.000 C 
ATOM     31  C   UNL     1       4.915   3.064  12.183  0.00  0.00    +0.000 C 
ATOM     32  C   UNL     1       5.524   2.021  11.257  0.00  0.00    +0.000 C 
ATOM     33  C   UNL     1       6.989   2.419  11.096  0.00  0.00    +0.000 C 
ATOM     34  C   UNL     1       7.250   3.531  12.108  0.00  0.00    +0.000 C 
ENDBRANCH  29  30
ENDBRANCH  27  29
ENDBRANCH   8  27
TORSDOF 8
ENDMDL
MODEL 5
REMARK VINA RESULT:      -6.0      2.578      6.297
REMARK  Name = 
REMARK  11 active torsions:
REMARK  status: ('A' for Active; 'I' for Inactive)
REMARK    1  A    between atoms: C_1  and  C_2
REMARK    2  A    between atoms: C_2  and  C_3
REMARK    3  A    between atoms: C_7  and  C_8
REMARK    4  A    between atoms: C_9  and  C_10
REMARK    5  A    between atoms: C_10  and  O_12
REMARK    6  A    between atoms: O_12  and  C_13
REMARK    7  A    between atoms: C_18  and  C_19
REMARK    8  A    between atoms: C_21  and  C_22
REMARK    9  A    between atoms: C_23  and  C_24
REMARK   10  A    between atoms: C_24  and  O_26
REMARK   11  A    between atoms: O_26  and  C_27
REMARK                            x       y       z     vdW  Elec       q    Type
REMARK                         _______ _______ _______ _____ _____    ______ ____
ROOT
ATOM      1  C   UNL     1      -1.508  12.715  20.363  0.00  0.00    +0.000 C 
ATOM      2  C   UNL     1      -0.929  11.358  20.830  0.00  0.00    +0.000 C 
ATOM      3  C   UNL     1      -0.768  11.114  22.156  0.00  0.00    +0.000 C 
ATOM      4  C   UNL     1      -0.311   9.830  22.805  0.00  0.00    +0.000 C 
ATOM      5  N   UNL     1      -1.037  12.129  23.069  0.00  0.00    +0.000 N 
ATOM      6  C   UNL     1      -1.233  13.459  22.737  0.00  0.00    +0.000 C 
ATOM      7  C   UNL     1      -1.208  14.438  23.886  0.00  0.00    +0.000 C 
ATOM      8  C   UNL     1      -1.427  13.803  21.440  0.00  0.00    +0.000 C 
ATOM      9  H   UNL     1      -0.802  11.933  24.042  0.00  0.00    +0.000 HD
ENDROOT
BRANCH   1  14
ATOM     10  C   UNL     1      -4.608  12.144  18.498  0.00  0.00    +0.000 A 
ATOM     11  N   UNL     1      -5.170  12.309  19.674  0.00  0.00    +0.000 NA
ATOM     12  C   UNL     1      -4.146  12.537  20.561  0.00  0.00    +0.000 A 
ATOM     13 CL   UNL     1      -4.424  12.745  22.221  0.00  0.00    +0.000 Cl
ATOM     14  C   UNL     1      -2.935  12.538  19.902  0.00  0.00    +0.000 A 
ATOM     15  N   UNL     1      -3.249  12.304  18.581  0.00  0.00    +0.000 N 
ATOM     16  H   UNL     1      -2.590  12.223  17.819  0.00  0.00    +0.000 HD
BRANCH  10  18
ATOM     17  C   UNL     1      -4.329  11.114  16.266  0.00  0.00    +0.000 C 
ATOM     18  C   UNL     1      -5.296  11.783  17.229  0.00  0.00    +0.000 C 
ENDBRANCH  10  18
ENDBRANCH   1  14
BRANCH   2  19
ATOM     19  C   UNL     1      -0.636  10.350  19.760  0.00  0.00    +0.000 C 
ATOM     20  O   UNL     1      -1.450   9.883  18.984  0.00  0.00    +0.000 OA
BRANCH  19  21
ATOM     21  O   UNL     1       0.684  10.040  19.780  0.00  0.00    +0.000 OA
BRANCH  21  22
ATOM     22  C   UNL     1       1.106   8.895  19.031  0.00  0.00    +0.000 C 
ATOM     23  C   UNL     1       2.192   9.222  18.011  0.00  0.00    +0.000 C 
ATOM     24  C   UNL     1       2.903   7.894  17.795  0.00  0.00    +0.000 C 
ATOM     25  C   UNL     1       2.796   7.145  19.121  0.00  0.00    +0.000 C 
ATOM     26  C   UNL     1       1.818   7.934  19.981  0.00  0.00    +0.000 C 
ENDBRANCH  21  22
ENDBRANCH  19  21
ENDBRANCH   2  19
BRANCH   8  27
ATOM     27  C   UNL     1      -1.671  15.219  21.047  0.00  0.00    +0.000 C 
ATOM     28  O   UNL     1      -2.783  15.724  20.976  0.00  0.00    +0.000 OA
BRANCH  27  29
ATOM     29  O   UNL     1      -0.516  15.876  20.772  0.00  0.00    +0.000 OA
BRANCH  29  30
ATOM     30  C   UNL     1      -0.261  16.096  19.377  0.00  0.00    +0.000 C 
ATOM     31  C   UNL     1      -1.083  17.249  18.814  0.00  0.00    +0.000 C 
ATOM     32  C   UNL     1      -0.314  17.685  17.576  0.00  0.00    +0.000 C 
ATOM     33  C   UNL     1       1.152  17.383  17.875  0.00  0.00    +0.000 C 
ATOM     34  C   UNL     1       1.174  16.571  19.168  0.00  0.00    +0.000 C 
ENDBRANCH  29  30
ENDBRANCH  27  29
ENDBRANCH   8  27
TORSDOF 8
ENDMDL
MODEL 6
REMARK VINA RESULT:      -6.0      2.255      5.429
REMARK  Name = 
REMARK  11 active torsions:
REMARK  status: ('A' for Active; 'I' for Inactive)
REMARK    1  A    between atoms: C_1  and  C_2
REMARK    2  A    between atoms: C_2  and  C_3
REMARK    3  A    between atoms: C_7  and  C_8
REMARK    4  A    between atoms: C_9  and  C_10
REMARK    5  A    between atoms: C_10  and  O_12
REMARK    6  A    between atoms: O_12  and  C_13
REMARK    7  A    between atoms: C_18  and  C_19
REMARK    8  A    between atoms: C_21  and  C_22
REMARK    9  A    between atoms: C_23  and  C_24
REMARK   10  A    between atoms: C_24  and  O_26
REMARK   11  A    between atoms: O_26  and  C_27
REMARK                            x       y       z     vdW  Elec       q    Type
REMARK                         _______ _______ _______ _____ _____    ______ ____
ROOT
ATOM      1  C   UNL     1      -1.214  12.903  20.461  0.00  0.00    +0.000 C 
ATOM      2  C   UNL     1      -0.589  13.881  21.485  0.00  0.00    +0.000 C 
ATOM      3  C   UNL     1      -1.303  14.260  22.576  0.00  0.00    +0.000 C 
ATOM      4  C   UNL     1      -0.836  15.124  23.723  0.00  0.00    +0.000 C 
ATOM      5  N   UNL     1      -2.623  13.840  22.703  0.00  0.00    +0.000 N 
ATOM      6  C   UNL     1      -3.365  13.252  21.691  0.00  0.00    +0.000 C 
ATOM      7  C   UNL     1      -4.852  13.150  21.936  0.00  0.00    +0.000 C 
ATOM      8  C   UNL     1      -2.741  12.816  20.570  0.00  0.00    +0.000 C 
ATOM      9  H   UNL     1      -3.149  14.236  23.481  0.00  0.00    +0.000 HD
ENDROOT
BRANCH   1  14
ATOM     10  C   UNL     1       0.582   9.736  20.054  0.00  0.00    +0.000 A 
ATOM     11  N   UNL     1       0.159   9.512  21.277  0.00  0.00    +0.000 NA
ATOM     12  C   UNL     1      -0.560  10.623  21.646  0.00  0.00    +0.000 A 
ATOM     13 CL   UNL     1      -1.243  10.780  23.190  0.00  0.00    +0.000 Cl
ATOM     14  C   UNL     1      -0.599  11.532  20.610  0.00  0.00    +0.000 A 
ATOM     15  N   UNL     1       0.120  10.943  19.593  0.00  0.00    +0.000 N 
ATOM     16  H   UNL     1       0.308  11.348  18.686  0.00  0.00    +0.000 HD
BRANCH  10  18
ATOM     17  C   UNL     1       1.735   9.470  17.882  0.00  0.00    +0.000 C 
ATOM     18  C   UNL     1       1.478   8.862  19.251  0.00  0.00    +0.000 C 
ENDBRANCH  10  18
ENDBRANCH   1  14
BRANCH   2  19
ATOM     19  C   UNL     1       0.826  14.303  21.231  0.00  0.00    +0.000 C 
ATOM     20  O   UNL     1       1.716  14.340  22.062  0.00  0.00    +0.000 OA
BRANCH  19  21
ATOM     21  O   UNL     1       0.970  14.634  19.923  0.00  0.00    +0.000 OA
BRANCH  21  22
ATOM     22  C   UNL     1       0.823  16.014  19.571  0.00  0.00    +0.000 C 
ATOM     23  C   UNL     1       1.866  16.481  18.561  0.00  0.00    +0.000 C 
ATOM     24  C   UNL     1       1.209  17.675  17.881  0.00  0.00    +0.000 C 
ATOM     25  C   UNL     1      -0.290  17.387  17.896  0.00  0.00    +0.000 C 
ATOM     26  C   UNL     1      -0.486  16.177  18.800  0.00  0.00    +0.000 C 
ENDBRANCH  21  22
ENDBRANCH  19  21
ENDBRANCH   2  19
BRANCH   8  27
ATOM     27  C   UNL     1      -3.501  12.151  19.475  0.00  0.00    +0.000 C 
ATOM     28  O   UNL     1      -4.682  11.844  19.553  0.00  0.00    +0.000 OA
BRANCH  27  29
ATOM     29  O   UNL     1      -2.725  11.924  18.384  0.00  0.00    +0.000 OA
BRANCH  29  30
ATOM     30  C   UNL     1      -3.222  10.919  17.487  0.00  0.00    +0.000 C 
ATOM     31  C   UNL     1      -3.819  11.521  16.220  0.00  0.00    +0.000 C 
ATOM     32  C   UNL     1      -3.762  10.387  15.207  0.00  0.00    +0.000 C 
ATOM     33  C   UNL     1      -2.547   9.548  15.596  0.00  0.00    +0.000 C 
ATOM     34  C   UNL     1      -2.072  10.073  16.948  0.00  0.00    +0.000 C 
ENDBRANCH  29  30
ENDBRANCH  27  29
ENDBRANCH   8  27
TORSDOF 8
ENDMDL
MODEL 7
REMARK VINA RESULT:      -6.0      3.306      7.035
REMARK  Name = 
REMARK  11 active torsions:
REMARK  status: ('A' for Active; 'I' for Inactive)
REMARK    1  A    between atoms: C_1  and  C_2
REMARK    2  A    between atoms: C_2  and  C_3
REMARK    3  A    between atoms: C_7  and  C_8
REMARK    4  A    between atoms: C_9  and  C_10
REMARK    5  A    between atoms: C_10  and  O_12
REMARK    6  A    between atoms: O_12  and  C_13
REMARK    7  A    between atoms: C_18  and  C_19
REMARK    8  A    between atoms: C_21  and  C_22
REMARK    9  A    between atoms: C_23  and  C_24
REMARK   10  A    between atoms: C_24  and  O_26
REMARK   11  A    between atoms: O_26  and  C_27
REMARK                            x       y       z     vdW  Elec       q    Type
REMARK                         _______ _______ _______ _____ _____    ______ ____
ROOT
ATOM      1  C   UNL     1      -0.207  11.998  19.289  0.00  0.00    +0.000 C 
ATOM      2  C   UNL     1       0.222  10.609  19.821  0.00  0.00    +0.000 C 
ATOM      3  C   UNL     1       0.099  10.326  21.143  0.00  0.00    +0.000 C 
ATOM      4  C   UNL     1       0.373   9.009  21.829  0.00  0.00    +0.000 C 
ATOM      5  N   UNL     1      -0.320  11.326  22.014  0.00  0.00    +0.000 N 
ATOM      6  C   UNL     1      -0.402  12.671  21.692  0.00  0.00    +0.000 C 
ATOM      7  C   UNL     1      -0.583  13.619  22.853  0.00  0.00    +0.000 C 
ATOM      8  C   UNL     1      -0.315  13.054  20.395  0.00  0.00    +0.000 C 
ATOM      9  H   UNL     1      -0.296  11.097  23.007  0.00  0.00    +0.000 HD
ENDROOT
BRANCH   1  14
ATOM     10  C   UNL     1      -2.877  11.533  16.825  0.00  0.00    +0.000 A 
ATOM     11  N   UNL     1      -3.661  11.778  17.850  0.00  0.00    +0.000 NA
ATOM     12  C   UNL     1      -2.834  11.982  18.928  0.00  0.00    +0.000 A 
ATOM     13 CL   UNL     1      -3.440  12.274  20.485  0.00  0.00    +0.000 Cl
ATOM     14  C   UNL     1      -1.514  11.887  18.541  0.00  0.00    +0.000 A 
ATOM     15  N   UNL     1      -1.558  11.617  17.191  0.00  0.00    +0.000 N 
ATOM     16  H   UNL     1      -0.760  11.467  16.588  0.00  0.00    +0.000 HD
BRANCH  10  18
ATOM     17  C   UNL     1      -3.005   9.697  15.172  0.00  0.00    +0.000 C 
ATOM     18  C   UNL     1      -3.305  11.162  15.450  0.00  0.00    +0.000 C 
ENDBRANCH  10  18
ENDBRANCH   1  14
BRANCH   2  19
ATOM     19  C   UNL     1       0.697   9.619  18.801  0.00  0.00    +0.000 C 
ATOM     20  O   UNL     1       0.221   9.460  17.691  0.00  0.00    +0.000 OA
BRANCH  19  21
ATOM     21  O   UNL     1       1.751   8.927  19.300  0.00  0.00    +0.000 OA
BRANCH  21  22
ATOM     22  C   UNL     1       2.073   7.676  18.680  0.00  0.00    +0.000 C 
ATOM     23  C   UNL     1       3.314   7.755  17.798  0.00  0.00    +0.000 C 
ATOM     24  C   UNL     1       3.825   6.321  17.755  0.00  0.00    +0.000 C 
ATOM     25  C   UNL     1       3.437   5.703  19.096  0.00  0.00    +0.000 C 
ATOM     26  C   UNL     1       2.499   6.695  19.771  0.00  0.00    +0.000 C 
ENDBRANCH  21  22
ENDBRANCH  19  21
ENDBRANCH   2  19
BRANCH   8  27
ATOM     27  C   UNL     1      -0.430  14.488  20.007  0.00  0.00    +0.000 C 
ATOM     28  O   UNL     1      -1.485  15.032  19.712  0.00  0.00    +0.000 OA
BRANCH  27  29
ATOM     29  O   UNL     1       0.774  15.114  20.015  0.00  0.00    +0.000 OA
BRANCH  29  30
ATOM     30  C   UNL     1       1.339  15.359  18.717  0.00  0.00    +0.000 C 
ATOM     31  C   UNL     1       1.728  16.820  18.525  0.00  0.00    +0.000 C 
ATOM     32  C   UNL     1       2.765  16.784  17.411  0.00  0.00    +0.000 C 
ATOM     33  C   UNL     1       3.467  15.435  17.546  0.00  0.00    +0.000 C 
ATOM     34  C   UNL     1       2.672  14.633  18.572  0.00  0.00    +0.000 C 
ENDBRANCH  29  30
ENDBRANCH  27  29
ENDBRANCH   8  27
TORSDOF 8
ENDMDL
MODEL 8
REMARK VINA RESULT:      -6.0      2.217      4.001
REMARK  Name = 
REMARK  11 active torsions:
REMARK  status: ('A' for Active; 'I' for Inactive)
REMARK    1  A    between atoms: C_1  and  C_2
REMARK    2  A    between atoms: C_2  and  C_3
REMARK    3  A    between atoms: C_7  and  C_8
REMARK    4  A    between atoms: C_9  and  C_10
REMARK    5  A    between atoms: C_10  and  O_12
REMARK    6  A    between atoms: O_12  and  C_13
REMARK    7  A    between atoms: C_18  and  C_19
REMARK    8  A    between atoms: C_21  and  C_22
REMARK    9  A    between atoms: C_23  and  C_24
REMARK   10  A    between atoms: C_24  and  O_26
REMARK   11  A    between atoms: O_26  and  C_27
REMARK                            x       y       z     vdW  Elec       q    Type
REMARK                         _______ _______ _______ _____ _____    ______ ____
ROOT
ATOM      1  C   UNL     1      -3.346  12.739  21.141  0.00  0.00    +0.000 C 
ATOM      2  C   UNL     1      -4.788  12.629  20.587  0.00  0.00    +0.000 C 
ATOM      3  C   UNL     1      -5.843  12.697  21.439  0.00  0.00    +0.000 C 
ATOM      4  C   UNL     1      -7.310  12.704  21.083  0.00  0.00    +0.000 C 
ATOM      5  N   UNL     1      -5.606  12.766  22.808  0.00  0.00    +0.000 N 
ATOM      6  C   UNL     1      -4.381  12.534  23.410  0.00  0.00    +0.000 C 
ATOM      7  C   UNL     1      -4.403  12.360  24.910  0.00  0.00    +0.000 C 
ATOM      8  C   UNL     1      -3.262  12.473  22.648  0.00  0.00    +0.000 C 
ATOM      9  H   UNL     1      -6.427  12.709  23.410  0.00  0.00    +0.000 HD
ENDROOT
BRANCH   1  14
ATOM     10  C   UNL     1      -2.487  16.293  20.929  0.00  0.00    +0.000 A 
ATOM     11  N   UNL     1      -1.593  15.872  20.064  0.00  0.00    +0.000 NA
ATOM     12  C   UNL     1      -1.740  14.508  19.992  0.00  0.00    +0.000 A 
ATOM     13 CL   UNL     1      -0.732  13.545  19.026  0.00  0.00    +0.000 Cl
ATOM     14  C   UNL     1      -2.767  14.094  20.814  0.00  0.00    +0.000 A 
ATOM     15  N   UNL     1      -3.246  15.249  21.391  0.00  0.00    +0.000 N 
ATOM     16  H   UNL     1      -3.996  15.309  22.067  0.00  0.00    +0.000 HD
BRANCH  10  18
ATOM     17  C   UNL     1      -2.077  17.849  22.808  0.00  0.00    +0.000 C 
ATOM     18  C   UNL     1      -2.663  17.688  21.414  0.00  0.00    +0.000 C 
ENDBRANCH  10  18
ENDBRANCH   1  14
BRANCH   2  19
ATOM     19  C   UNL     1      -4.928  12.517  19.100  0.00  0.00    +0.000 C 
ATOM     20  O   UNL     1      -5.879  12.905  18.445  0.00  0.00    +0.000 OA
BRANCH  19  21
ATOM     21  O   UNL     1      -3.823  11.922  18.585  0.00  0.00    +0.000 OA
BRANCH  21  22
ATOM     22  C   UNL     1      -4.018  10.936  17.565  0.00  0.00    +0.000 C 
ATOM     23  C   UNL     1      -3.952  11.519  16.158  0.00  0.00    +0.000 C 
ATOM     24  C   UNL     1      -3.565  10.332  15.287  0.00  0.00    +0.000 C 
ATOM     25  C   UNL     1      -2.705   9.432  16.171  0.00  0.00    +0.000 C 
ATOM     26  C   UNL     1      -2.826   9.980  17.587  0.00  0.00    +0.000 C 
ENDBRANCH  21  22
ENDBRANCH  19  21
ENDBRANCH   2  19
BRANCH   8  27
ATOM     27  C   UNL     1      -1.922  12.255  23.262  0.00  0.00    +0.000 C 
ATOM     28  O   UNL     1      -1.178  13.160  23.613  0.00  0.00    +0.000 OA
BRANCH  27  29
ATOM     29  O   UNL     1      -1.626  10.936  23.381  0.00  0.00    +0.000 OA
BRANCH  29  30
ATOM     30  C   UNL     1      -0.387  10.537  22.775  0.00  0.00    +0.000 C 
ATOM     31  C   UNL     1      -0.221   9.021  22.747  0.00  0.00    +0.000 C 
ATOM     32  C   UNL     1       0.788   8.779  21.633  0.00  0.00    +0.000 C 
ATOM     33  C   UNL     1       0.575   9.912  20.632  0.00  0.00    +0.000 C 
ATOM     34  C   UNL     1      -0.376  10.904  21.294  0.00  0.00    +0.000 C 
ENDBRANCH  29  30
ENDBRANCH  27  29
ENDBRANCH   8  27
TORSDOF 8
ENDMDL
MODEL 9
REMARK VINA RESULT:      -6.0      2.347      6.234
REMARK  Name = 
REMARK  11 active torsions:
REMARK  status: ('A' for Active; 'I' for Inactive)
REMARK    1  A    between atoms: C_1  and  C_2
REMARK    2  A    between atoms: C_2  and  C_3
REMARK    3  A    between atoms: C_7  and  C_8
REMARK    4  A    between atoms: C_9  and  C_10
REMARK    5  A    between atoms: C_10  and  O_12
REMARK    6  A    between atoms: O_12  and  C_13
REMARK    7  A    between atoms: C_18  and  C_19
REMARK    8  A    between atoms: C_21  and  C_22
REMARK    9  A    between atoms: C_23  and  C_24
REMARK   10  A    between atoms: C_24  and  O_26
REMARK   11  A    between atoms: O_26  and  C_27
REMARK                            x       y       z     vdW  Elec       q    Type
REMARK                         _______ _______ _______ _____ _____    ______ ____
ROOT
ATOM      1  C   UNL     1      -1.780  12.932  20.505  0.00  0.00    +0.000 C 
ATOM      2  C   UNL     1      -1.068  11.695  21.105  0.00  0.00    +0.000 C 
ATOM      3  C   UNL     1      -1.219  11.405  22.423  0.00  0.00    +0.000 C 
ATOM      4  C   UNL     1      -0.686  10.202  23.164  0.00  0.00    +0.000 C 
ATOM      5  N   UNL     1      -1.933  12.281  23.233  0.00  0.00    +0.000 N 
ATOM      6  C   UNL     1      -2.315  13.561  22.867  0.00  0.00    +0.000 C 
ATOM      7  C   UNL     1      -2.809  14.449  23.985  0.00  0.00    +0.000 C 
ATOM      8  C   UNL     1      -2.226  13.941  21.569  0.00  0.00    +0.000 C 
ATOM      9  H   UNL     1      -1.929  12.076  24.231  0.00  0.00    +0.000 HD
ENDROOT
BRANCH   1  14
ATOM     10  C   UNL     1      -4.058  11.781  17.877  0.00  0.00    +0.000 A 
ATOM     11  N   UNL     1      -4.960  11.870  18.828  0.00  0.00    +0.000 NA
ATOM     12  C   UNL     1      -4.294  12.294  19.952  0.00  0.00    +0.000 A 
ATOM     13 CL   UNL     1      -5.078  12.486  21.444  0.00  0.00    +0.000 Cl
ATOM     14  C   UNL     1      -2.960  12.496  19.668  0.00  0.00    +0.000 A 
ATOM     15  N   UNL     1      -2.829  12.182  18.334  0.00  0.00    +0.000 N 
ATOM     16  H   UNL     1      -1.970  12.202  17.800  0.00  0.00    +0.000 HD
BRANCH  10  18
ATOM     17  C   UNL     1      -2.973  10.760  15.903  0.00  0.00    +0.000 C 
ATOM     18  C   UNL     1      -4.274  11.278  16.494  0.00  0.00    +0.000 C 
ENDBRANCH  10  18
ENDBRANCH   1  14
BRANCH   2  19
ATOM     19  C   UNL     1      -0.291  10.841  20.150  0.00  0.00    +0.000 C 
ATOM     20  O   UNL     1      -0.753   9.956  19.452  0.00  0.00    +0.000 OA
BRANCH  19  21
ATOM     21  O   UNL     1       1.014  11.210  20.174  0.00  0.00    +0.000 OA
BRANCH  21  22
ATOM     22  C   UNL     1       1.343  12.510  19.672  0.00  0.00    +0.000 C 
ATOM     23  C   UNL     1       2.294  13.274  20.587  0.00  0.00    +0.000 C 
ATOM     24  C   UNL     1       2.976  14.269  19.657  0.00  0.00    +0.000 C 
ATOM     25  C   UNL     1       3.037  13.587  18.293  0.00  0.00    +0.000 C 
ATOM     26  C   UNL     1       2.169  12.339  18.398  0.00  0.00    +0.000 C 
ENDBRANCH  21  22
ENDBRANCH  19  21
ENDBRANCH   2  19
BRANCH   8  27
ATOM     27  C   UNL     1      -2.655  15.299  21.132  0.00  0.00    +0.000 C 
ATOM     28  O   UNL     1      -3.771  15.556  20.703  0.00  0.00    +0.000 OA
BRANCH  27  29
ATOM     29  O   UNL     1      -1.661  16.213  21.263  0.00  0.00    +0.000 OA
BRANCH  29  30
ATOM     30  C   UNL     1      -0.636  16.141  20.260  0.00  0.00    +0.000 C 
ATOM     31  C   UNL     1      -1.057  16.811  18.957  0.00  0.00    +0.000 C 
ATOM     32  C   UNL     1       0.259  17.133  18.263  0.00  0.00    +0.000 C 
ATOM     33  C   UNL     1       1.266  17.375  19.384  0.00  0.00    +0.000 C 
ATOM     34  C   UNL     1       0.580  16.961  20.682  0.00  0.00    +0.000 C 
ENDBRANCH  29  30
ENDBRANCH  27  29
ENDBRANCH   8  27
TORSDOF 8
ENDMDL
