MODEL 1
REMARK VINA RESULT:      -8.3      0.000      0.000
REMARK  Name = 
REMARK  9 active torsions:
REMARK  status: ('A' for Active; 'I' for Inactive)
REMARK    1  A    between atoms: C_1  and  C_2
REMARK    2  A    between atoms: N_8  and  C_9
REMARK    3  A    between atoms: N_8  and  C_24
REMARK    4  A    between atoms: C_9  and  C_10
REMARK    5  A    between atoms: C_10  and  C_11
REMARK    6  A    between atoms: C_11  and  C_12
REMARK    7  A    between atoms: C_11  and  C_18
REMARK    8  A    between atoms: C_24  and  C_25
REMARK    9  A    between atoms: C_25  and  N_26
REMARK                            x       y       z     vdW  Elec       q    Type
REMARK                         _______ _______ _______ _____ _____    ______ ____
ROOT
ATOM      1  C   UNL     1      -4.490  10.072  13.581  0.00  0.00    +0.000 C 
ATOM      2  C   UNL     1      -3.607  10.069  14.761  0.00  0.00    +0.000 A 
ATOM      3  C   UNL     1      -2.306   9.693  15.013  0.00  0.00    +0.000 A 
ATOM      4  C   UNL     1      -2.101   9.979  16.390  0.00  0.00    +0.000 A 
ATOM      5  N   UNL     1      -0.913   9.749  17.082  0.00  0.00    +0.000 N 
ATOM      6  C   UNL     1      -0.746  10.069  18.408  0.00  0.00    +0.000 C 
ATOM      7  O   UNL     1      -1.589  10.680  19.076  0.00  0.00    +0.000 OA
ATOM      8  N   UNL     1       0.443   9.667  19.016  0.00  0.00    +0.000 N 
ATOM      9  N   UNL     1      -3.218  10.499  16.910  0.00  0.00    +0.000 NA
ATOM     10  O   UNL     1      -4.153  10.543  15.907  0.00  0.00    +0.000 OA
ATOM     11  H   UNL     1      -0.166   9.322  16.565  0.00  0.00    +0.000 HD
ENDROOT
BRANCH   8  12
ATOM     12  C   UNL     1       1.607   9.024  18.387  0.00  0.00    +0.000 C 
BRANCH  12  13
ATOM     13  C   UNL     1       2.164   7.778  19.095  0.00  0.00    +0.000 C 
BRANCH  13  14
ATOM     14  C   UNL     1       2.650   6.554  18.257  0.00  0.00    +0.000 C 
BRANCH  14  15
ATOM     15  C   UNL     1       4.177   6.438  18.162  0.00  0.00    +0.000 A 
ATOM     16  C   UNL     1       4.924   7.066  17.155  0.00  0.00    +0.000 A 
ATOM     17  C   UNL     1       6.291   6.822  16.996  0.00  0.00    +0.000 A 
ATOM     18  C   UNL     1       6.942   5.926  17.837  0.00  0.00    +0.000 A 
ATOM     19  C   UNL     1       6.238   5.336  18.880  0.00  0.00    +0.000 A 
ATOM     20  C   UNL     1       4.877   5.617  19.063  0.00  0.00    +0.000 A 
ENDBRANCH  14  15
BRANCH  14  21
ATOM     21  C   UNL     1       1.943   5.290  18.800  0.00  0.00    +0.000 A 
ATOM     22  C   UNL     1       1.678   5.152  20.172  0.00  0.00    +0.000 A 
ATOM     23  C   UNL     1       1.148   3.956  20.686  0.00  0.00    +0.000 A 
ATOM     24  C   UNL     1       0.853   2.888  19.839  0.00  0.00    +0.000 A 
ATOM     25  C   UNL     1       1.092   3.012  18.478  0.00  0.00    +0.000 A 
ATOM     26  C   UNL     1       1.639   4.194  17.972  0.00  0.00    +0.000 A 
ENDBRANCH  14  21
ENDBRANCH  13  14
ENDBRANCH  12  13
ENDBRANCH   8  12
BRANCH   8  27
ATOM     27  C   UNL     1       0.483   9.825  20.480  0.00  0.00    +0.000 C 
BRANCH  27  28
ATOM     28  C   UNL     1       1.243  11.076  21.014  0.00  0.00    +0.000 C 
BRANCH  28  29
ATOM     29  N   UNL     1       0.397  12.072  21.689  0.00  0.00    +0.000 NA
ATOM     30  C   UNL     1      -0.102  13.132  20.796  0.00  0.00    +0.000 C 
ATOM     31  C   UNL     1      -0.794  14.189  21.668  0.00  0.00    +0.000 C 
ATOM     32  O   UNL     1      -1.947  13.632  22.316  0.00  0.00    +0.000 OA
ATOM     33  C   UNL     1      -1.573  12.506  23.128  0.00  0.00    +0.000 C 
ATOM     34  C   UNL     1      -0.784  11.448  22.330  0.00  0.00    +0.000 C 
ENDBRANCH  28  29
ENDBRANCH  27  28
ENDBRANCH   8  27
TORSDOF 8
ENDMDL
MODEL 2
REMARK VINA RESULT:      -7.8      0.886      3.369
REMARK  Name = 
REMARK  9 active torsions:
REMARK  status: ('A' for Active; 'I' for Inactive)
REMARK    1  A    between atoms: C_1  and  C_2
REMARK    2  A    between atoms: N_8  and  C_9
REMARK    3  A    between atoms: N_8  and  C_24
REMARK    4  A    between atoms: C_9  and  C_10
REMARK    5  A    between atoms: C_10  and  C_11
REMARK    6  A    between atoms: C_11  and  C_12
REMARK    7  A    between atoms: C_11  and  C_18
REMARK    8  A    between atoms: C_24  and  C_25
REMARK    9  A    between atoms: C_25  and  N_26
REMARK                            x       y       z     vdW  Elec       q    Type
REMARK                         _______ _______ _______ _____ _____    ______ ____
ROOT
ATOM      1  C   UNL     1      -4.078  10.165  14.042  0.00  0.00    +0.000 C 
ATOM      2  C   UNL     1      -3.162  10.223  15.196  0.00  0.00    +0.000 A 
ATOM      3  C   UNL     1      -2.343   9.327  15.845  0.00  0.00    +0.000 A 
ATOM      4  C   UNL     1      -1.732  10.076  16.887  0.00  0.00    +0.000 A 
ATOM      5  N   UNL     1      -0.820   9.561  17.807  0.00  0.00    +0.000 N 
ATOM      6  C   UNL     1      -0.228  10.328  18.782  0.00  0.00    +0.000 C 
ATOM      7  O   UNL     1      -0.366  11.554  18.867  0.00  0.00    +0.000 OA
ATOM      8  N   UNL     1       0.563   9.666  19.722  0.00  0.00    +0.000 N 
ATOM      9  N   UNL     1      -2.167  11.340  16.844  0.00  0.00    +0.000 NA
ATOM     10  O   UNL     1      -3.060  11.429  15.806  0.00  0.00    +0.000 OA
ATOM     11  H   UNL     1      -0.612   8.582  17.736  0.00  0.00    +0.000 HD
ENDROOT
BRANCH   8  12
ATOM     12  C   UNL     1       0.937   8.243  19.746  0.00  0.00    +0.000 C 
BRANCH  12  13
ATOM     13  C   UNL     1       2.187   7.853  18.939  0.00  0.00    +0.000 C 
BRANCH  13  14
ATOM     14  C   UNL     1       3.001   6.580  19.327  0.00  0.00    +0.000 C 
BRANCH  14  15
ATOM     15  C   UNL     1       2.143   5.314  19.457  0.00  0.00    +0.000 A 
ATOM     16  C   UNL     1       1.726   4.805  20.696  0.00  0.00    +0.000 A 
ATOM     17  C   UNL     1       1.078   3.571  20.800  0.00  0.00    +0.000 A 
ATOM     18  C   UNL     1       0.846   2.806  19.662  0.00  0.00    +0.000 A 
ATOM     19  C   UNL     1       1.195   3.315  18.417  0.00  0.00    +0.000 A 
ATOM     20  C   UNL     1       1.805   4.572  18.312  0.00  0.00    +0.000 A 
ENDBRANCH  14  15
BRANCH  14  21
ATOM     21  C   UNL     1       4.187   6.451  18.343  0.00  0.00    +0.000 A 
ATOM     22  C   UNL     1       4.112   7.004  17.054  0.00  0.00    +0.000 A 
ATOM     23  C   UNL     1       5.134   6.785  16.116  0.00  0.00    +0.000 A 
ATOM     24  C   UNL     1       6.259   6.032  16.453  0.00  0.00    +0.000 A 
ATOM     25  C   UNL     1       6.360   5.492  17.728  0.00  0.00    +0.000 A 
ATOM     26  C   UNL     1       5.331   5.692  18.652  0.00  0.00    +0.000 A 
ENDBRANCH  14  21
ENDBRANCH  13  14
ENDBRANCH  12  13
ENDBRANCH   8  12
BRANCH   8  27
ATOM     27  C   UNL     1       0.987  10.484  20.871  0.00  0.00    +0.000 C 
BRANCH  27  28
ATOM     28  C   UNL     1       0.021  10.498  22.095  0.00  0.00    +0.000 C 
BRANCH  28  29
ATOM     29  N   UNL     1      -0.306  11.838  22.607  0.00  0.00    +0.000 NA
ATOM     30  C   UNL     1       0.014  12.929  21.670  0.00  0.00    +0.000 C 
ATOM     31  C   UNL     1      -0.195  14.256  22.411  0.00  0.00    +0.000 C 
ATOM     32  O   UNL     1      -1.575  14.423  22.767  0.00  0.00    +0.000 OA
ATOM     33  C   UNL     1      -2.016  13.334  23.596  0.00  0.00    +0.000 C 
ATOM     34  C   UNL     1      -1.743  11.961  22.948  0.00  0.00    +0.000 C 
ENDBRANCH  28  29
ENDBRANCH  27  28
ENDBRANCH   8  27
TORSDOF 8
ENDMDL
MODEL 3
REMARK VINA RESULT:      -7.5      5.306      8.042
REMARK  Name = 
REMARK  9 active torsions:
REMARK  status: ('A' for Active; 'I' for Inactive)
REMARK    1  A    between atoms: C_1  and  C_2
REMARK    2  A    between atoms: N_8  and  C_9
REMARK    3  A    between atoms: N_8  and  C_24
REMARK    4  A    between atoms: C_9  and  C_10
REMARK    5  A    between atoms: C_10  and  C_11
REMARK    6  A    between atoms: C_11  and  C_12
REMARK    7  A    between atoms: C_11  and  C_18
REMARK    8  A    between atoms: C_24  and  C_25
REMARK    9  A    between atoms: C_25  and  N_26
REMARK                            x       y       z     vdW  Elec       q    Type
REMARK                         _______ _______ _______ _____ _____    ______ ____
ROOT
ATOM      1  C   UNL     1       5.388   2.520  11.359  0.00  0.00    +0.000 C 
ATOM      2  C   UNL     1       5.695   3.341  12.544  0.00  0.00    +0.000 A 
ATOM      3  C   UNL     1       4.968   4.132  13.405  0.00  0.00    +0.000 A 
ATOM      4  C   UNL     1       5.917   4.623  14.342  0.00  0.00    +0.000 A 
ATOM      5  N   UNL     1       5.619   5.477  15.403  0.00  0.00    +0.000 N 
ATOM      6  C   UNL     1       6.562   5.905  16.306  0.00  0.00    +0.000 C 
ATOM      7  O   UNL     1       7.729   5.494  16.324  0.00  0.00    +0.000 OA
ATOM      8  N   UNL     1       6.163   6.861  17.240  0.00  0.00    +0.000 N 
ATOM      9  N   UNL     1       7.128   4.141  14.047  0.00  0.00    +0.000 NA
ATOM     10  O   UNL     1       6.994   3.358  12.928  0.00  0.00    +0.000 OA
ATOM     11  H   UNL     1       4.666   5.783  15.481  0.00  0.00    +0.000 HD
ENDROOT
BRANCH   8  12
ATOM     12  C   UNL     1       4.813   7.405  17.456  0.00  0.00    +0.000 C 
BRANCH  12  13
ATOM     13  C   UNL     1       3.726   6.394  17.856  0.00  0.00    +0.000 C 
BRANCH  13  14
ATOM     14  C   UNL     1       2.955   6.567  19.202  0.00  0.00    +0.000 C 
BRANCH  14  15
ATOM     15  C   UNL     1       2.048   7.804  19.239  0.00  0.00    +0.000 A 
ATOM     16  C   UNL     1       1.797   8.594  18.107  0.00  0.00    +0.000 A 
ATOM     17  C   UNL     1       1.095   9.799  18.196  0.00  0.00    +0.000 A 
ATOM     18  C   UNL     1       0.640  10.253  19.429  0.00  0.00    +0.000 A 
ATOM     19  C   UNL     1       0.823   9.460  20.556  0.00  0.00    +0.000 A 
ATOM     20  C   UNL     1       1.489   8.231  20.456  0.00  0.00    +0.000 A 
ENDBRANCH  14  15
BRANCH  14  21
ATOM     21  C   UNL     1       2.235   5.234  19.516  0.00  0.00    +0.000 A 
ATOM     22  C   UNL     1       2.119   4.778  20.839  0.00  0.00    +0.000 A 
ATOM     23  C   UNL     1       1.576   3.512  21.119  0.00  0.00    +0.000 A 
ATOM     24  C   UNL     1       1.120   2.691  20.088  0.00  0.00    +0.000 A 
ATOM     25  C   UNL     1       1.211   3.132  18.775  0.00  0.00    +0.000 A 
ATOM     26  C   UNL     1       1.771   4.381  18.498  0.00  0.00    +0.000 A 
ENDBRANCH  14  21
ENDBRANCH  13  14
ENDBRANCH  12  13
ENDBRANCH   8  12
BRANCH   8  27
ATOM     27  C   UNL     1       7.253   7.456  18.033  0.00  0.00    +0.000 C 
BRANCH  27  28
ATOM     28  C   UNL     1       7.985   8.672  17.389  0.00  0.00    +0.000 C 
BRANCH  28  29
ATOM     29  N   UNL     1       8.225   9.801  18.299  0.00  0.00    +0.000 NA
ATOM     30  C   UNL     1       9.355   9.593  19.221  0.00  0.00    +0.000 C 
ATOM     31  C   UNL     1       9.357  10.753  20.226  0.00  0.00    +0.000 C 
ATOM     32  O   UNL     1       9.607  11.998  19.558  0.00  0.00    +0.000 OA
ATOM     33  C   UNL     1       8.612  12.236  18.548  0.00  0.00    +0.000 C 
ATOM     34  C   UNL     1       8.489  11.058  17.560  0.00  0.00    +0.000 C 
ENDBRANCH  28  29
ENDBRANCH  27  28
ENDBRANCH   8  27
TORSDOF 8
ENDMDL
MODEL 4
REMARK VINA RESULT:      -7.3      5.823      9.858
REMARK  Name = 
REMARK  9 active torsions:
REMARK  status: ('A' for Active; 'I' for Inactive)
REMARK    1  A    between atoms: C_1  and  C_2
REMARK    2  A    between atoms: N_8  and  C_9
REMARK    3  A    between atoms: N_8  and  C_24
REMARK    4  A    between atoms: C_9  and  C_10
REMARK    5  A    between atoms: C_10  and  C_11
REMARK    6  A    between atoms: C_11  and  C_12
REMARK    7  A    between atoms: C_11  and  C_18
REMARK    8  A    between atoms: C_24  and  C_25
REMARK    9  A    between atoms: C_25  and  N_26
REMARK                            x       y       z     vdW  Elec       q    Type
REMARK                         _______ _______ _______ _____ _____    ______ ____
ROOT
ATOM      1  C   UNL     1      10.872  12.669  20.481  0.00  0.00    +0.000 C 
ATOM      2  C   UNL     1      10.158  11.578  19.793  0.00  0.00    +0.000 A 
ATOM      3  C   UNL     1       9.639  10.358  20.164  0.00  0.00    +0.000 A 
ATOM      4  C   UNL     1       9.069   9.825  18.975  0.00  0.00    +0.000 A 
ATOM      5  N   UNL     1       8.431   8.589  18.884  0.00  0.00    +0.000 N 
ATOM      6  C   UNL     1       7.866   8.124  17.721  0.00  0.00    +0.000 C 
ATOM      7  O   UNL     1       7.778   8.795  16.686  0.00  0.00    +0.000 OA
ATOM      8  N   UNL     1       7.376   6.818  17.727  0.00  0.00    +0.000 N 
ATOM      9  N   UNL     1       9.241  10.690  17.970  0.00  0.00    +0.000 NA
ATOM     10  O   UNL     1       9.925  11.768  18.472  0.00  0.00    +0.000 OA
ATOM     11  H   UNL     1       8.406   8.032  19.718  0.00  0.00    +0.000 HD
ENDROOT
BRANCH   8  12
ATOM     12  C   UNL     1       7.290   5.891  18.867  0.00  0.00    +0.000 C 
BRANCH  12  13
ATOM     13  C   UNL     1       5.878   5.587  19.394  0.00  0.00    +0.000 C 
BRANCH  13  14
ATOM     14  C   UNL     1       4.694   5.403  18.394  0.00  0.00    +0.000 C 
BRANCH  14  15
ATOM     15  C   UNL     1       4.087   3.994  18.409  0.00  0.00    +0.000 A 
ATOM     16  C   UNL     1       3.148   3.563  17.460  0.00  0.00    +0.000 A 
ATOM     17  C   UNL     1       2.495   2.333  17.581  0.00  0.00    +0.000 A 
ATOM     18  C   UNL     1       2.756   1.509  18.670  0.00  0.00    +0.000 A 
ATOM     19  C   UNL     1       3.725   1.885  19.592  0.00  0.00    +0.000 A 
ATOM     20  C   UNL     1       4.410   3.099  19.444  0.00  0.00    +0.000 A 
ENDBRANCH  14  15
BRANCH  14  21
ATOM     21  C   UNL     1       3.676   6.542  18.643  0.00  0.00    +0.000 A 
ATOM     22  C   UNL     1       2.834   6.518  19.766  0.00  0.00    +0.000 A 
ATOM     23  C   UNL     1       1.827   7.482  19.932  0.00  0.00    +0.000 A 
ATOM     24  C   UNL     1       1.656   8.499  18.992  0.00  0.00    +0.000 A 
ATOM     25  C   UNL     1       2.489   8.550  17.884  0.00  0.00    +0.000 A 
ATOM     26  C   UNL     1       3.476   7.576  17.710  0.00  0.00    +0.000 A 
ENDBRANCH  14  21
ENDBRANCH  13  14
ENDBRANCH  12  13
ENDBRANCH   8  12
BRANCH   8  27
ATOM     27  C   UNL     1       6.992   6.285  16.409  0.00  0.00    +0.000 C 
BRANCH  27  28
ATOM     28  C   UNL     1       7.249   4.765  16.182  0.00  0.00    +0.000 C 
BRANCH  28  29
ATOM     29  N   UNL     1       7.146   4.323  14.783  0.00  0.00    +0.000 NA
ATOM     30  C   UNL     1       5.773   3.996  14.361  0.00  0.00    +0.000 C 
ATOM     31  C   UNL     1       5.852   3.370  12.962  0.00  0.00    +0.000 C 
ATOM     32  O   UNL     1       6.349   4.323  12.011  0.00  0.00    +0.000 OA
ATOM     33  C   UNL     1       7.649   4.793  12.403  0.00  0.00    +0.000 C 
ATOM     34  C   UNL     1       7.661   5.346  13.843  0.00  0.00    +0.000 C 
ENDBRANCH  28  29
ENDBRANCH  27  28
ENDBRANCH   8  27
TORSDOF 8
ENDMDL
MODEL 5
REMARK VINA RESULT:      -7.3      2.264      5.809
REMARK  Name = 
REMARK  9 active torsions:
REMARK  status: ('A' for Active; 'I' for Inactive)
REMARK    1  A    between atoms: C_1  and  C_2
REMARK    2  A    between atoms: N_8  and  C_9
REMARK    3  A    between atoms: N_8  and  C_24
REMARK    4  A    between atoms: C_9  and  C_10
REMARK    5  A    between atoms: C_10  and  C_11
REMARK    6  A    between atoms: C_11  and  C_12
REMARK    7  A    between atoms: C_11  and  C_18
REMARK    8  A    between atoms: C_24  and  C_25
REMARK    9  A    between atoms: C_25  and  N_26
REMARK                            x       y       z     vdW  Elec       q    Type
REMARK                         _______ _______ _______ _____ _____    ______ ____
ROOT
ATOM      1  C   UNL     1       3.809  17.018  19.366  0.00  0.00    +0.000 C 
ATOM      2  C   UNL     1       3.135  15.711  19.262  0.00  0.00    +0.000 A 
ATOM      3  C   UNL     1       3.534  14.419  19.004  0.00  0.00    +0.000 A 
ATOM      4  C   UNL     1       2.342  13.646  19.069  0.00  0.00    +0.000 A 
ATOM      5  N   UNL     1       2.275  12.269  18.865  0.00  0.00    +0.000 N 
ATOM      6  C   UNL     1       1.105  11.555  18.967  0.00  0.00    +0.000 C 
ATOM      7  O   UNL     1       0.036  12.044  19.351  0.00  0.00    +0.000 OA
ATOM      8  N   UNL     1       1.147  10.207  18.609  0.00  0.00    +0.000 N 
ATOM      9  N   UNL     1       1.308  14.444  19.356  0.00  0.00    +0.000 NA
ATOM     10  O   UNL     1       1.795  15.722  19.463  0.00  0.00    +0.000 OA
ATOM     11  H   UNL     1       3.133  11.807  18.624  0.00  0.00    +0.000 HD
ENDROOT
BRANCH   8  12
ATOM     12  C   UNL     1       2.324   9.411  18.226  0.00  0.00    +0.000 C 
BRANCH  12  13
ATOM     13  C   UNL     1       2.080   7.914  17.968  0.00  0.00    +0.000 C 
BRANCH  13  14
ATOM     14  C   UNL     1       2.905   6.842  18.745  0.00  0.00    +0.000 C 
BRANCH  14  15
ATOM     15  C   UNL     1       2.109   5.575  19.083  0.00  0.00    +0.000 A 
ATOM     16  C   UNL     1       1.683   5.272  20.385  0.00  0.00    +0.000 A 
ATOM     17  C   UNL     1       1.096   4.042  20.696  0.00  0.00    +0.000 A 
ATOM     18  C   UNL     1       0.936   3.075  19.709  0.00  0.00    +0.000 A 
ATOM     19  C   UNL     1       1.295   3.373  18.400  0.00  0.00    +0.000 A 
ATOM     20  C   UNL     1       1.843   4.623  18.083  0.00  0.00    +0.000 A 
ENDBRANCH  14  15
BRANCH  14  21
ATOM     21  C   UNL     1       4.215   6.587  17.963  0.00  0.00    +0.000 A 
ATOM     22  C   UNL     1       4.303   6.893  16.595  0.00  0.00    +0.000 A 
ATOM     23  C   UNL     1       5.446   6.550  15.853  0.00  0.00    +0.000 A 
ATOM     24  C   UNL     1       6.528   5.919  16.466  0.00  0.00    +0.000 A 
ATOM     25  C   UNL     1       6.467   5.624  17.821  0.00  0.00    +0.000 A 
ATOM     26  C   UNL     1       5.320   5.945  18.552  0.00  0.00    +0.000 A 
ENDBRANCH  14  21
ENDBRANCH  13  14
ENDBRANCH  12  13
ENDBRANCH   8  12
BRANCH   8  27
ATOM     27  C   UNL     1      -0.163   9.542  18.515  0.00  0.00    +0.000 C 
BRANCH  27  28
ATOM     28  C   UNL     1      -0.864   9.602  17.123  0.00  0.00    +0.000 C 
BRANCH  28  29
ATOM     29  N   UNL     1      -2.265  10.048  17.155  0.00  0.00    +0.000 NA
ATOM     30  C   UNL     1      -2.544  11.059  18.190  0.00  0.00    +0.000 C 
ATOM     31  C   UNL     1      -4.063  11.275  18.231  0.00  0.00    +0.000 C 
ATOM     32  O   UNL     1      -4.527  11.829  16.992  0.00  0.00    +0.000 OA
ATOM     33  C   UNL     1      -4.194  10.960  15.897  0.00  0.00    +0.000 C 
ATOM     34  C   UNL     1      -2.690  10.622  15.857  0.00  0.00    +0.000 C 
ENDBRANCH  28  29
ENDBRANCH  27  28
ENDBRANCH   8  27
TORSDOF 8
ENDMDL
MODEL 6
REMARK VINA RESULT:      -7.1      5.612      8.334
REMARK  Name = 
REMARK  9 active torsions:
REMARK  status: ('A' for Active; 'I' for Inactive)
REMARK    1  A    between atoms: C_1  and  C_2
REMARK    2  A    between atoms: N_8  and  C_9
REMARK    3  A    between atoms: N_8  and  C_24
REMARK    4  A    between atoms: C_9  and  C_10
REMARK    5  A    between atoms: C_10  and  C_11
REMARK    6  A    between atoms: C_11  and  C_12
REMARK    7  A    between atoms: C_11  and  C_18
REMARK    8  A    between atoms: C_24  and  C_25
REMARK    9  A    between atoms: C_25  and  N_26
REMARK                            x       y       z     vdW  Elec       q    Type
REMARK                         _______ _______ _______ _____ _____    ______ ____
ROOT
ATOM      1  C   UNL     1       5.459   2.831  11.746  0.00  0.00    +0.000 C 
ATOM      2  C   UNL     1       5.897   3.713  12.842  0.00  0.00    +0.000 A 
ATOM      3  C   UNL     1       5.297   4.286  13.940  0.00  0.00    +0.000 A 
ATOM      4  C   UNL     1       6.331   5.023  14.581  0.00  0.00    +0.000 A 
ATOM      5  N   UNL     1       6.169   5.774  15.744  0.00  0.00    +0.000 N 
ATOM      6  C   UNL     1       7.203   6.448  16.349  0.00  0.00    +0.000 C 
ATOM      7  O   UNL     1       8.381   6.366  15.981  0.00  0.00    +0.000 OA
ATOM      8  N   UNL     1       6.883   7.269  17.430  0.00  0.00    +0.000 N 
ATOM      9  N   UNL     1       7.471   4.882  13.896  0.00  0.00    +0.000 NA
ATOM     10  O   UNL     1       7.201   4.082  12.814  0.00  0.00    +0.000 OA
ATOM     11  H   UNL     1       5.243   5.813  16.130  0.00  0.00    +0.000 HD
ENDROOT
BRANCH   8  12
ATOM     12  C   UNL     1       5.575   7.432  18.085  0.00  0.00    +0.000 C 
BRANCH  12  13
ATOM     13  C   UNL     1       4.788   6.141  18.365  0.00  0.00    +0.000 C 
BRANCH  13  14
ATOM     14  C   UNL     1       3.318   5.998  17.861  0.00  0.00    +0.000 C 
BRANCH  14  15
ATOM     15  C   UNL     1       2.766   4.569  17.961  0.00  0.00    +0.000 A 
ATOM     16  C   UNL     1       1.440   4.292  18.322  0.00  0.00    +0.000 A 
ATOM     17  C   UNL     1       1.002   2.986  18.558  0.00  0.00    +0.000 A 
ATOM     18  C   UNL     1       1.891   1.922  18.453  0.00  0.00    +0.000 A 
ATOM     19  C   UNL     1       3.195   2.163  18.038  0.00  0.00    +0.000 A 
ATOM     20  C   UNL     1       3.620   3.470  17.760  0.00  0.00    +0.000 A 
ENDBRANCH  14  15
BRANCH  14  21
ATOM     21  C   UNL     1       2.460   7.068  18.577  0.00  0.00    +0.000 A 
ATOM     22  C   UNL     1       1.996   8.197  17.882  0.00  0.00    +0.000 A 
ATOM     23  C   UNL     1       1.323   9.230  18.555  0.00  0.00    +0.000 A 
ATOM     24  C   UNL     1       1.080   9.144  19.926  0.00  0.00    +0.000 A 
ATOM     25  C   UNL     1       1.515   8.028  20.627  0.00  0.00    +0.000 A 
ATOM     26  C   UNL     1       2.205   7.013  19.960  0.00  0.00    +0.000 A 
ENDBRANCH  14  21
ENDBRANCH  13  14
ENDBRANCH  12  13
ENDBRANCH   8  12
BRANCH   8  27
ATOM     27  C   UNL     1       7.973   8.142  17.899  0.00  0.00    +0.000 C 
BRANCH  27  28
ATOM     28  C   UNL     1       7.893   9.635  17.458  0.00  0.00    +0.000 C 
BRANCH  28  29
ATOM     29  N   UNL     1       8.453  10.594  18.422  0.00  0.00    +0.000 NA
ATOM     30  C   UNL     1       9.122   9.961  19.572  0.00  0.00    +0.000 C 
ATOM     31  C   UNL     1       9.474  11.069  20.574  0.00  0.00    +0.000 C 
ATOM     32  O   UNL     1      10.427  11.979  20.005  0.00  0.00    +0.000 OA
ATOM     33  C   UNL     1       9.905  12.566  18.801  0.00  0.00    +0.000 C 
ATOM     34  C   UNL     1       9.439  11.501  17.788  0.00  0.00    +0.000 C 
ENDBRANCH  28  29
ENDBRANCH  27  28
ENDBRANCH   8  27
TORSDOF 8
ENDMDL
MODEL 7
REMARK VINA RESULT:      -6.9      2.480      3.068
REMARK  Name = 
REMARK  9 active torsions:
REMARK  status: ('A' for Active; 'I' for Inactive)
REMARK    1  A    between atoms: C_1  and  C_2
REMARK    2  A    between atoms: N_8  and  C_9
REMARK    3  A    between atoms: N_8  and  C_24
REMARK    4  A    between atoms: C_9  and  C_10
REMARK    5  A    between atoms: C_10  and  C_11
REMARK    6  A    between atoms: C_11  and  C_12
REMARK    7  A    between atoms: C_11  and  C_18
REMARK    8  A    between atoms: C_24  and  C_25
REMARK    9  A    between atoms: C_25  and  N_26
REMARK                            x       y       z     vdW  Elec       q    Type
REMARK                         _______ _______ _______ _____ _____    ______ ____
ROOT
ATOM      1  C   UNL     1      -6.435  10.845  18.096  0.00  0.00    +0.000 C 
ATOM      2  C   UNL     1      -4.963  10.863  18.177  0.00  0.00    +0.000 A 
ATOM      3  C   UNL     1      -3.955   9.965  17.905  0.00  0.00    +0.000 A 
ATOM      4  C   UNL     1      -2.753  10.663  18.206  0.00  0.00    +0.000 A 
ATOM      5  N   UNL     1      -1.471  10.129  18.080  0.00  0.00    +0.000 N 
ATOM      6  C   UNL     1      -0.332  10.847  18.352  0.00  0.00    +0.000 C 
ATOM      7  O   UNL     1      -0.333  12.053  18.629  0.00  0.00    +0.000 OA
ATOM      8  N   UNL     1       0.881  10.159  18.316  0.00  0.00    +0.000 N 
ATOM      9  N   UNL     1      -3.045  11.898  18.623  0.00  0.00    +0.000 NA
ATOM     10  O   UNL     1      -4.412  12.019  18.617  0.00  0.00    +0.000 OA
ATOM     11  H   UNL     1      -1.409   9.172  17.784  0.00  0.00    +0.000 HD
ENDROOT
BRANCH   8  12
ATOM     12  C   UNL     1       1.115   8.762  17.916  0.00  0.00    +0.000 C 
BRANCH  12  13
ATOM     13  C   UNL     1       2.574   8.277  17.957  0.00  0.00    +0.000 C 
BRANCH  13  14
ATOM     14  C   UNL     1       2.940   6.857  17.422  0.00  0.00    +0.000 C 
BRANCH  14  15
ATOM     15  C   UNL     1       4.429   6.687  17.093  0.00  0.00    +0.000 A 
ATOM     16  C   UNL     1       4.933   5.563  16.421  0.00  0.00    +0.000 A 
ATOM     17  C   UNL     1       6.307   5.356  16.269  0.00  0.00    +0.000 A 
ATOM     18  C   UNL     1       7.214   6.264  16.804  0.00  0.00    +0.000 A 
ATOM     19  C   UNL     1       6.740   7.416  17.422  0.00  0.00    +0.000 A 
ATOM     20  C   UNL     1       5.361   7.643  17.534  0.00  0.00    +0.000 A 
ENDBRANCH  14  15
BRANCH  14  21
ATOM     21  C   UNL     1       2.379   5.812  18.415  0.00  0.00    +0.000 A 
ATOM     22  C   UNL     1       1.774   4.634  17.949  0.00  0.00    +0.000 A 
ATOM     23  C   UNL     1       1.154   3.741  18.839  0.00  0.00    +0.000 A 
ATOM     24  C   UNL     1       1.148   3.997  20.211  0.00  0.00    +0.000 A 
ATOM     25  C   UNL     1       1.756   5.147  20.692  0.00  0.00    +0.000 A 
ATOM     26  C   UNL     1       2.351   6.045  19.803  0.00  0.00    +0.000 A 
ENDBRANCH  14  21
ENDBRANCH  13  14
ENDBRANCH  12  13
ENDBRANCH   8  12
BRANCH   8  27
ATOM     27  C   UNL     1       2.041  10.904  18.833  0.00  0.00    +0.000 C 
BRANCH  27  28
ATOM     28  C   UNL     1       2.509  12.122  17.980  0.00  0.00    +0.000 C 
BRANCH  28  29
ATOM     29  N   UNL     1       2.537  13.405  18.699  0.00  0.00    +0.000 NA
ATOM     30  C   UNL     1       2.391  13.274  20.159  0.00  0.00    +0.000 C 
ATOM     31  C   UNL     1       2.242  14.686  20.741  0.00  0.00    +0.000 C 
ATOM     32  O   UNL     1       3.436  15.450  20.524  0.00  0.00    +0.000 OA
ATOM     33  C   UNL     1       3.729  15.537  19.119  0.00  0.00    +0.000 C 
ATOM     34  C   UNL     1       3.795  14.149  18.450  0.00  0.00    +0.000 C 
ENDBRANCH  28  29
ENDBRANCH  27  28
ENDBRANCH   8  27
TORSDOF 8
ENDMDL
MODEL 8
REMARK VINA RESULT:      -6.9      8.273     11.209
REMARK  Name = 
REMARK  9 active torsions:
REMARK  status: ('A' for Active; 'I' for Inactive)
REMARK    1  A    between atoms: C_1  and  C_2
REMARK    2  A    between atoms: N_8  and  C_9
REMARK    3  A    between atoms: N_8  and  C_24
REMARK    4  A    between atoms: C_9  and  C_10
REMARK    5  A    between atoms: C_10  and  C_11
REMARK    6  A    between atoms: C_11  and  C_12
REMARK    7  A    between atoms: C_11  and  C_18
REMARK    8  A    between atoms: C_24  and  C_25
REMARK    9  A    between atoms: C_25  and  N_26
REMARK                            x       y       z     vdW  Elec       q    Type
REMARK                         _______ _______ _______ _____ _____    ______ ____
ROOT
ATOM      1  C   UNL     1       6.964   4.706  17.366  0.00  0.00    +0.000 C 
ATOM      2  C   UNL     1       7.466   6.056  17.679  0.00  0.00    +0.000 A 
ATOM      3  C   UNL     1       7.900   6.703  18.814  0.00  0.00    +0.000 A 
ATOM      4  C   UNL     1       8.252   8.010  18.379  0.00  0.00    +0.000 A 
ATOM      5  N   UNL     1       8.743   9.019  19.207  0.00  0.00    +0.000 N 
ATOM      6  C   UNL     1       9.100  10.261  18.740  0.00  0.00    +0.000 C 
ATOM      7  O   UNL     1       9.120  10.562  17.541  0.00  0.00    +0.000 OA
ATOM      8  N   UNL     1       9.450  11.222  19.689  0.00  0.00    +0.000 N 
ATOM      9  N   UNL     1       8.040   8.116  17.063  0.00  0.00    +0.000 NA
ATOM     10  O   UNL     1       7.543   6.912  16.631  0.00  0.00    +0.000 OA
ATOM     11  H   UNL     1       8.819   8.802  20.184  0.00  0.00    +0.000 HD
ENDROOT
BRANCH   8  12
ATOM     12  C   UNL     1       9.588  11.047  21.143  0.00  0.00    +0.000 C 
BRANCH  12  13
ATOM     13  C   UNL     1       8.439  11.594  22.008  0.00  0.00    +0.000 C 
BRANCH  13  14
ATOM     14  C   UNL     1       8.732  12.652  23.117  0.00  0.00    +0.000 C 
BRANCH  14  15
ATOM     15  C   UNL     1       8.547  14.103  22.650  0.00  0.00    +0.000 A 
ATOM     16  C   UNL     1       9.270  15.173  23.197  0.00  0.00    +0.000 A 
ATOM     17  C   UNL     1       8.978  16.499  22.868  0.00  0.00    +0.000 A 
ATOM     18  C   UNL     1       7.938  16.788  21.991  0.00  0.00    +0.000 A 
ATOM     19  C   UNL     1       7.246  15.744  21.389  0.00  0.00    +0.000 A 
ATOM     20  C   UNL     1       7.570  14.413  21.688  0.00  0.00    +0.000 A 
ENDBRANCH  14  15
BRANCH  14  21
ATOM     21  C   UNL     1       7.908  12.273  24.370  0.00  0.00    +0.000 A 
ATOM     22  C   UNL     1       6.743  11.497  24.254  0.00  0.00    +0.000 A 
ATOM     23  C   UNL     1       5.926  11.253  25.370  0.00  0.00    +0.000 A 
ATOM     24  C   UNL     1       6.268  11.759  26.624  0.00  0.00    +0.000 A 
ATOM     25  C   UNL     1       7.425  12.513  26.763  0.00  0.00    +0.000 A 
ATOM     26  C   UNL     1       8.223  12.773  25.647  0.00  0.00    +0.000 A 
ENDBRANCH  14  21
ENDBRANCH  13  14
ENDBRANCH  12  13
ENDBRANCH   8  12
BRANCH   8  27
ATOM     27  C   UNL     1       9.602  12.591  19.167  0.00  0.00    +0.000 C 
BRANCH  27  28
ATOM     28  C   UNL     1      11.023  13.219  19.296  0.00  0.00    +0.000 C 
BRANCH  28  29
ATOM     29  N   UNL     1      11.150  14.577  18.746  0.00  0.00    +0.000 NA
ATOM     30  C   UNL     1      10.432  14.774  17.474  0.00  0.00    +0.000 C 
ATOM     31  C   UNL     1      10.816  16.157  16.931  0.00  0.00    +0.000 C 
ATOM     32  O   UNL     1      10.360  17.190  17.816  0.00  0.00    +0.000 OA
ATOM     33  C   UNL     1      10.922  17.015  19.127  0.00  0.00    +0.000 C 
ATOM     34  C   UNL     1      10.655  15.605  19.692  0.00  0.00    +0.000 C 
ENDBRANCH  28  29
ENDBRANCH  27  28
ENDBRANCH   8  27
TORSDOF 8
ENDMDL
MODEL 9
REMARK VINA RESULT:      -6.9      3.799      7.430
REMARK  Name = 
REMARK  9 active torsions:
REMARK  status: ('A' for Active; 'I' for Inactive)
REMARK    1  A    between atoms: C_1  and  C_2
REMARK    2  A    between atoms: N_8  and  C_9
REMARK    3  A    between atoms: N_8  and  C_24
REMARK    4  A    between atoms: C_9  and  C_10
REMARK    5  A    between atoms: C_10  and  C_11
REMARK    6  A    between atoms: C_11  and  C_12
REMARK    7  A    between atoms: C_11  and  C_18
REMARK    8  A    between atoms: C_24  and  C_25
REMARK    9  A    between atoms: C_25  and  N_26
REMARK                            x       y       z     vdW  Elec       q    Type
REMARK                         _______ _______ _______ _____ _____    ______ ____
ROOT
ATOM      1  C   UNL     1       0.216  10.326  18.091  0.00  0.00    +0.000 C 
ATOM      2  C   UNL     1       1.080   9.150  18.301  0.00  0.00    +0.000 A 
ATOM      3  C   UNL     1       1.635   8.184  17.493  0.00  0.00    +0.000 A 
ATOM      4  C   UNL     1       2.377   7.350  18.374  0.00  0.00    +0.000 A 
ATOM      5  N   UNL     1       3.106   6.228  17.982  0.00  0.00    +0.000 N 
ATOM      6  C   UNL     1       3.834   5.465  18.863  0.00  0.00    +0.000 C 
ATOM      7  O   UNL     1       3.996   5.760  20.053  0.00  0.00    +0.000 OA
ATOM      8  N   UNL     1       4.409   4.294  18.369  0.00  0.00    +0.000 N 
ATOM      9  N   UNL     1       2.264   7.809  19.624  0.00  0.00    +0.000 NA
ATOM     10  O   UNL     1       1.453   8.915  19.582  0.00  0.00    +0.000 OA
ATOM     11  H   UNL     1       3.071   5.985  17.009  0.00  0.00    +0.000 HD
ENDROOT
BRANCH   8  12
ATOM     12  C   UNL     1       4.425   3.813  16.978  0.00  0.00    +0.000 C 
BRANCH  12  13
ATOM     13  C   UNL     1       4.440   4.892  15.883  0.00  0.00    +0.000 C 
BRANCH  13  14
ATOM     14  C   UNL     1       5.777   5.604  15.506  0.00  0.00    +0.000 C 
BRANCH  14  15
ATOM     15  C   UNL     1       6.784   5.678  16.662  0.00  0.00    +0.000 A 
ATOM     16  C   UNL     1       7.469   4.553  17.144  0.00  0.00    +0.000 A 
ATOM     17  C   UNL     1       8.262   4.615  18.293  0.00  0.00    +0.000 A 
ATOM     18  C   UNL     1       8.375   5.807  19.000  0.00  0.00    +0.000 A 
ATOM     19  C   UNL     1       7.755   6.951  18.510  0.00  0.00    +0.000 A 
ATOM     20  C   UNL     1       6.996   6.896  17.333  0.00  0.00    +0.000 A 
ENDBRANCH  14  15
BRANCH  14  21
ATOM     21  C   UNL     1       6.325   4.942  14.220  0.00  0.00    +0.000 A 
ATOM     22  C   UNL     1       7.470   5.451  13.585  0.00  0.00    +0.000 A 
ATOM     23  C   UNL     1       7.900   4.932  12.352  0.00  0.00    +0.000 A 
ATOM     24  C   UNL     1       7.211   3.883  11.744  0.00  0.00    +0.000 A 
ATOM     25  C   UNL     1       6.087   3.355  12.365  0.00  0.00    +0.000 A 
ATOM     26  C   UNL     1       5.648   3.888  13.579  0.00  0.00    +0.000 A 
ENDBRANCH  14  21
ENDBRANCH  13  14
ENDBRANCH  12  13
ENDBRANCH   8  12
BRANCH   8  27
ATOM     27  C   UNL     1       4.982   3.398  19.388  0.00  0.00    +0.000 C 
BRANCH  27  28
ATOM     28  C   UNL     1       4.306   2.001  19.529  0.00  0.00    +0.000 C 
BRANCH  28  29
ATOM     29  N   UNL     1       2.893   2.036  19.937  0.00  0.00    +0.000 NA
ATOM     30  C   UNL     1       2.626   2.923  21.082  0.00  0.00    +0.000 C 
ATOM     31  C   UNL     1       1.169   2.706  21.510  0.00  0.00    +0.000 C 
ATOM     32  O   UNL     1       0.271   3.113  20.468  0.00  0.00    +0.000 OA
ATOM     33  C   UNL     1       0.534   2.377  19.262  0.00  0.00    +0.000 C 
ATOM     34  C   UNL     1       2.011   2.474  18.830  0.00  0.00    +0.000 C 
ENDBRANCH  28  29
ENDBRANCH  27  28
ENDBRANCH   8  27
TORSDOF 8
ENDMDL
