MODEL 1
REMARK VINA RESULT:      -7.3      0.000      0.000
REMARK  Name = 
REMARK  3 active torsions:
REMARK  status: ('A' for Active; 'I' for Inactive)
REMARK    1  A    between atoms: O_1  and  C_2
REMARK    2  A    between atoms: C_6  and  C_7
REMARK    3  A    between atoms: C_8  and  C_9
REMARK                            x       y       z     vdW  Elec       q    Type
REMARK                         _______ _______ _______ _____ _____    ______ ____
ROOT
ATOM      1  C   UNL     1       8.324   9.276  18.255  0.00  0.00    +0.000 C 
ATOM      2  C   UNL     1       8.441   7.966  18.531  0.00  0.00    +0.000 C 
ENDROOT
BRANCH   2   3
ATOM      3  C   UNL     1       7.563   6.920  17.983  0.00  0.00    +0.000 A 
ATOM      4  C   UNL     1       7.658   5.573  18.374  0.00  0.00    +0.000 A 
ATOM      5  C   UNL     1       6.782   4.615  17.858  0.00  0.00    +0.000 A 
ATOM      6  C   UNL     1       5.795   5.001  16.961  0.00  0.00    +0.000 A 
ATOM      7  F   UNL     1       4.953   4.081  16.472  0.00  0.00    +0.000 F 
ATOM      8  C   UNL     1       5.678   6.331  16.579  0.00  0.00    +0.000 A 
ATOM      9  F   UNL     1       4.719   6.704  15.721  0.00  0.00    +0.000 F 
ATOM     10  C   UNL     1       6.551   7.291  17.086  0.00  0.00    +0.000 A 
ENDBRANCH   2   3
BRANCH   1  15
ATOM     11  C   UNL     1      10.072  11.668  20.617  0.00  0.00    +0.000 A 
ATOM     12  C   UNL     1      10.988  12.277  19.765  0.00  0.00    +0.000 A 
ATOM     13  C   UNL     1      11.024  11.899  18.424  0.00  0.00    +0.000 A 
ATOM     14  C   UNL     1      10.143  10.925  17.946  0.00  0.00    +0.000 A 
ATOM     15  C   UNL     1       9.208  10.321  18.798  0.00  0.00    +0.000 A 
ATOM     16  C   UNL     1       9.194  10.694  20.149  0.00  0.00    +0.000 A 
BRANCH  11  17
ATOM     17  O   UNL     1      10.006  11.998  21.939  0.00  0.00    +0.000 OA
ATOM     18  H   UNL     1      10.613  11.424  22.432  0.00  0.00    +0.000 HD
ENDBRANCH  11  17
ENDBRANCH   1  15
TORSDOF 3
ENDMDL
MODEL 2
REMARK VINA RESULT:      -7.3      6.524      7.723
REMARK  Name = 
REMARK  3 active torsions:
REMARK  status: ('A' for Active; 'I' for Inactive)
REMARK    1  A    between atoms: O_1  and  C_2
REMARK    2  A    between atoms: C_6  and  C_7
REMARK    3  A    between atoms: C_8  and  C_9
REMARK                            x       y       z     vdW  Elec       q    Type
REMARK                         _______ _______ _______ _____ _____    ______ ____
ROOT
ATOM      1  C   UNL     1       4.931   4.685  15.878  0.00  0.00    +0.000 C 
ATOM      2  C   UNL     1       4.325   3.636  16.459  0.00  0.00    +0.000 C 
ENDROOT
BRANCH   2   3
ATOM      3  C   UNL     1       3.487   3.724  17.667  0.00  0.00    +0.000 A 
ATOM      4  C   UNL     1       3.816   4.551  18.755  0.00  0.00    +0.000 A 
ATOM      5  C   UNL     1       2.976   4.635  19.868  0.00  0.00    +0.000 A 
ATOM      6  C   UNL     1       1.795   3.904  19.892  0.00  0.00    +0.000 A 
ATOM      7  F   UNL     1       0.989   3.990  20.960  0.00  0.00    +0.000 F 
ATOM      8  C   UNL     1       1.450   3.096  18.818  0.00  0.00    +0.000 A 
ATOM      9  F   UNL     1       0.305   2.400  18.838  0.00  0.00    +0.000 F 
ATOM     10  C   UNL     1       2.284   3.005  17.705  0.00  0.00    +0.000 A 
ENDBRANCH   2   3
BRANCH   1  15
ATOM     11  C   UNL     1       7.721   5.175  13.362  0.00  0.00    +0.000 A 
ATOM     12  C   UNL     1       7.331   4.308  12.346  0.00  0.00    +0.000 A 
ATOM     13  C   UNL     1       6.158   3.571  12.493  0.00  0.00    +0.000 A 
ATOM     14  C   UNL     1       5.382   3.712  13.648  0.00  0.00    +0.000 A 
ATOM     15  C   UNL     1       5.763   4.597  14.666  0.00  0.00    +0.000 A 
ATOM     16  C   UNL     1       6.955   5.318  14.516  0.00  0.00    +0.000 A 
BRANCH  11  17
ATOM     17  O   UNL     1       8.866   5.910  13.266  0.00  0.00    +0.000 OA
ATOM     18  H   UNL     1       8.627   6.833  13.090  0.00  0.00    +0.000 HD
ENDBRANCH  11  17
ENDBRANCH   1  15
TORSDOF 3
ENDMDL
MODEL 3
REMARK VINA RESULT:      -7.3      1.397      1.683
REMARK  Name = 
REMARK  3 active torsions:
REMARK  status: ('A' for Active; 'I' for Inactive)
REMARK    1  A    between atoms: O_1  and  C_2
REMARK    2  A    between atoms: C_6  and  C_7
REMARK    3  A    between atoms: C_8  and  C_9
REMARK                            x       y       z     vdW  Elec       q    Type
REMARK                         _______ _______ _______ _____ _____    ______ ____
ROOT
ATOM      1  C   UNL     1       8.325   9.567  17.984  0.00  0.00    +0.000 C 
ATOM      2  C   UNL     1       8.443   8.334  18.505  0.00  0.00    +0.000 C 
ENDROOT
BRANCH   2   3
ATOM      3  C   UNL     1       7.673   7.164  18.053  0.00  0.00    +0.000 A 
ATOM      4  C   UNL     1       7.870   5.879  18.587  0.00  0.00    +0.000 A 
ATOM      5  C   UNL     1       7.094   4.799  18.158  0.00  0.00    +0.000 A 
ATOM      6  C   UNL     1       6.106   5.002  17.203  0.00  0.00    +0.000 A 
ATOM      7  F   UNL     1       5.360   3.966  16.798  0.00  0.00    +0.000 F 
ATOM      8  C   UNL     1       5.889   6.269  16.679  0.00  0.00    +0.000 A 
ATOM      9  F   UNL     1       4.929   6.466  15.766  0.00  0.00    +0.000 F 
ATOM     10  C   UNL     1       6.662   7.350  17.099  0.00  0.00    +0.000 A 
ENDBRANCH   2   3
BRANCH   1  15
ATOM     11  C   UNL     1       9.818  13.041  18.227  0.00  0.00    +0.000 A 
ATOM     12  C   UNL     1      10.552  12.943  19.404  0.00  0.00    +0.000 A 
ATOM     13  C   UNL     1      10.554  11.741  20.108  0.00  0.00    +0.000 A 
ATOM     14  C   UNL     1       9.828  10.647  19.626  0.00  0.00    +0.000 A 
ATOM     15  C   UNL     1       9.100  10.736  18.432  0.00  0.00    +0.000 A 
ATOM     16  C   UNL     1       9.090  11.957  17.744  0.00  0.00    +0.000 A 
BRANCH  11  17
ATOM     17  O   UNL     1       9.779  14.200  17.509  0.00  0.00    +0.000 OA
ATOM     18  H   UNL     1       8.864  14.522  17.490  0.00  0.00    +0.000 HD
ENDBRANCH  11  17
ENDBRANCH   1  15
TORSDOF 3
ENDMDL
MODEL 4
REMARK VINA RESULT:      -7.2      6.517      7.791
REMARK  Name = 
REMARK  3 active torsions:
REMARK  status: ('A' for Active; 'I' for Inactive)
REMARK    1  A    between atoms: O_1  and  C_2
REMARK    2  A    between atoms: C_6  and  C_7
REMARK    3  A    between atoms: C_8  and  C_9
REMARK                            x       y       z     vdW  Elec       q    Type
REMARK                         _______ _______ _______ _____ _____    ______ ____
ROOT
ATOM      1  C   UNL     1       4.988   4.583  15.947  0.00  0.00    +0.000 C 
ATOM      2  C   UNL     1       4.338   3.531  16.472  0.00  0.00    +0.000 C 
ENDROOT
BRANCH   2   3
ATOM      3  C   UNL     1       3.536   3.580  17.705  0.00  0.00    +0.000 A 
ATOM      4  C   UNL     1       2.272   4.193  17.759  0.00  0.00    +0.000 A 
ATOM      5  C   UNL     1       1.524   4.186  18.939  0.00  0.00    +0.000 A 
ATOM      6  C   UNL     1       2.030   3.554  20.068  0.00  0.00    +0.000 A 
ATOM      7  F   UNL     1       1.308   3.546  21.196  0.00  0.00    +0.000 F 
ATOM      8  C   UNL     1       3.269   2.931  20.024  0.00  0.00    +0.000 A 
ATOM      9  F   UNL     1       3.751   2.312  21.110  0.00  0.00    +0.000 F 
ATOM     10  C   UNL     1       4.022   2.936  18.852  0.00  0.00    +0.000 A 
ENDBRANCH   2   3
BRANCH   1  15
ATOM     11  C   UNL     1       7.704   5.158  13.369  0.00  0.00    +0.000 A 
ATOM     12  C   UNL     1       7.288   4.321  12.339  0.00  0.00    +0.000 A 
ATOM     13  C   UNL     1       6.121   3.576  12.497  0.00  0.00    +0.000 A 
ATOM     14  C   UNL     1       5.378   3.679  13.677  0.00  0.00    +0.000 A 
ATOM     15  C   UNL     1       5.786   4.535  14.710  0.00  0.00    +0.000 A 
ATOM     16  C   UNL     1       6.972   5.263  14.548  0.00  0.00    +0.000 A 
BRANCH  11  17
ATOM     17  O   UNL     1       8.844   5.899  13.263  0.00  0.00    +0.000 OA
ATOM     18  H   UNL     1       8.991   6.110  12.327  0.00  0.00    +0.000 HD
ENDBRANCH  11  17
ENDBRANCH   1  15
TORSDOF 3
ENDMDL
MODEL 5
REMARK VINA RESULT:      -7.2      6.346      7.553
REMARK  Name = 
REMARK  3 active torsions:
REMARK  status: ('A' for Active; 'I' for Inactive)
REMARK    1  A    between atoms: O_1  and  C_2
REMARK    2  A    between atoms: C_6  and  C_7
REMARK    3  A    between atoms: C_8  and  C_9
REMARK                            x       y       z     vdW  Elec       q    Type
REMARK                         _______ _______ _______ _____ _____    ______ ____
ROOT
ATOM      1  C   UNL     1       5.086   4.248  15.648  0.00  0.00    +0.000 C 
ATOM      2  C   UNL     1       4.991   5.225  16.565  0.00  0.00    +0.000 C 
ENDROOT
BRANCH   2   3
ATOM      3  C   UNL     1       4.187   5.137  17.795  0.00  0.00    +0.000 A 
ATOM      4  C   UNL     1       3.318   6.162  18.204  0.00  0.00    +0.000 A 
ATOM      5  C   UNL     1       2.543   6.025  19.359  0.00  0.00    +0.000 A 
ATOM      6  C   UNL     1       2.623   4.855  20.102  0.00  0.00    +0.000 A 
ATOM      7  F   UNL     1       1.874   4.724  21.206  0.00  0.00    +0.000 F 
ATOM      8  C   UNL     1       3.464   3.826  19.700  0.00  0.00    +0.000 A 
ATOM      9  F   UNL     1       3.531   2.693  20.412  0.00  0.00    +0.000 F 
ATOM     10  C   UNL     1       4.242   3.957  18.552  0.00  0.00    +0.000 A 
ENDBRANCH   2   3
BRANCH   1  15
ATOM     11  C   UNL     1       7.786   5.164  13.153  0.00  0.00    +0.000 A 
ATOM     12  C   UNL     1       7.430   4.378  12.062  0.00  0.00    +0.000 A 
ATOM     13  C   UNL     1       6.309   3.556  12.151  0.00  0.00    +0.000 A 
ATOM     14  C   UNL     1       5.550   3.532  13.325  0.00  0.00    +0.000 A 
ATOM     15  C   UNL     1       5.896   4.335  14.421  0.00  0.00    +0.000 A 
ATOM     16  C   UNL     1       7.037   5.142  14.327  0.00  0.00    +0.000 A 
BRANCH  11  17
ATOM     17  O   UNL     1       8.880   5.977  13.115  0.00  0.00    +0.000 OA
ATOM     18  H   UNL     1       8.981   6.401  13.982  0.00  0.00    +0.000 HD
ENDBRANCH  11  17
ENDBRANCH   1  15
TORSDOF 3
ENDMDL
MODEL 6
REMARK VINA RESULT:      -7.2      6.358      7.444
REMARK  Name = 
REMARK  3 active torsions:
REMARK  status: ('A' for Active; 'I' for Inactive)
REMARK    1  A    between atoms: O_1  and  C_2
REMARK    2  A    between atoms: C_6  and  C_7
REMARK    3  A    between atoms: C_8  and  C_9
REMARK                            x       y       z     vdW  Elec       q    Type
REMARK                         _______ _______ _______ _____ _____    ______ ____
ROOT
ATOM      1  C   UNL     1       5.177   4.102  15.760  0.00  0.00    +0.000 C 
ATOM      2  C   UNL     1       4.857   5.123  16.572  0.00  0.00    +0.000 C 
ENDROOT
BRANCH   2   3
ATOM      3  C   UNL     1       4.112   4.982  17.833  0.00  0.00    +0.000 A 
ATOM      4  C   UNL     1       4.076   3.778  18.558  0.00  0.00    +0.000 A 
ATOM      5  C   UNL     1       3.387   3.694  19.770  0.00  0.00    +0.000 A 
ATOM      6  C   UNL     1       2.742   4.817  20.272  0.00  0.00    +0.000 A 
ATOM      7  F   UNL     1       2.086   4.734  21.438  0.00  0.00    +0.000 F 
ATOM      8  C   UNL     1       2.783   6.017  19.575  0.00  0.00    +0.000 A 
ATOM      9  F   UNL     1       2.170   7.102  20.066  0.00  0.00    +0.000 F 
ATOM     10  C   UNL     1       3.466   6.108  18.364  0.00  0.00    +0.000 A 
ENDBRANCH   2   3
BRANCH   1  15
ATOM     11  C   UNL     1       7.752   5.139  13.182  0.00  0.00    +0.000 A 
ATOM     12  C   UNL     1       7.352   4.394  12.078  0.00  0.00    +0.000 A 
ATOM     13  C   UNL     1       6.242   3.558  12.187  0.00  0.00    +0.000 A 
ATOM     14  C   UNL     1       5.539   3.481  13.393  0.00  0.00    +0.000 A 
ATOM     15  C   UNL     1       5.929   4.244  14.502  0.00  0.00    +0.000 A 
ATOM     16  C   UNL     1       7.059   5.064  14.387  0.00  0.00    +0.000 A 
BRANCH  11  17
ATOM     17  O   UNL     1       8.838   5.963  13.126  0.00  0.00    +0.000 OA
ATOM     18  H   UNL     1       8.543   6.874  13.284  0.00  0.00    +0.000 HD
ENDBRANCH  11  17
ENDBRANCH   1  15
TORSDOF 3
ENDMDL
MODEL 7
REMARK VINA RESULT:      -7.1      4.252      7.392
REMARK  Name = 
REMARK  3 active torsions:
REMARK  status: ('A' for Active; 'I' for Inactive)
REMARK    1  A    between atoms: O_1  and  C_2
REMARK    2  A    between atoms: C_6  and  C_7
REMARK    3  A    between atoms: C_8  and  C_9
REMARK                            x       y       z     vdW  Elec       q    Type
REMARK                         _______ _______ _______ _____ _____    ______ ____
ROOT
ATOM      1  C   UNL     1       8.106   8.868  17.950  0.00  0.00    +0.000 C 
ATOM      2  C   UNL     1       8.946   9.264  18.920  0.00  0.00    +0.000 C 
ENDROOT
BRANCH   2   3
ATOM      3  C   UNL     1       9.461  10.635  19.066  0.00  0.00    +0.000 A 
ATOM      4  C   UNL     1       9.733  11.211  20.318  0.00  0.00    +0.000 A 
ATOM      5  C   UNL     1      10.256  12.503  20.414  0.00  0.00    +0.000 A 
ATOM      6  C   UNL     1      10.524  13.221  19.255  0.00  0.00    +0.000 A 
ATOM      7  F   UNL     1      11.031  14.458  19.350  0.00  0.00    +0.000 F 
ATOM      8  C   UNL     1      10.276  12.659  18.011  0.00  0.00    +0.000 A 
ATOM      9  F   UNL     1      10.545  13.348  16.894  0.00  0.00    +0.000 F 
ATOM     10  C   UNL     1       9.751  11.372  17.908  0.00  0.00    +0.000 A 
ENDBRANCH   2   3
BRANCH   1  15
ATOM     11  C   UNL     1       6.275   5.806  16.673  0.00  0.00    +0.000 A 
ATOM     12  C   UNL     1       6.703   4.835  17.572  0.00  0.00    +0.000 A 
ATOM     13  C   UNL     1       7.587   5.190  18.588  0.00  0.00    +0.000 A 
ATOM     14  C   UNL     1       8.028   6.512  18.703  0.00  0.00    +0.000 A 
ATOM     15  C   UNL     1       7.586   7.497  17.809  0.00  0.00    +0.000 A 
ATOM     16  C   UNL     1       6.713   7.124  16.778  0.00  0.00    +0.000 A 
BRANCH  11  17
ATOM     17  O   UNL     1       5.418   5.504  15.656  0.00  0.00    +0.000 OA
ATOM     18  H   UNL     1       5.867   4.905  15.039  0.00  0.00    +0.000 HD
ENDBRANCH  11  17
ENDBRANCH   1  15
TORSDOF 3
ENDMDL
MODEL 8
REMARK VINA RESULT:      -7.1      4.101      7.281
REMARK  Name = 
REMARK  3 active torsions:
REMARK  status: ('A' for Active; 'I' for Inactive)
REMARK    1  A    between atoms: O_1  and  C_2
REMARK    2  A    between atoms: C_6  and  C_7
REMARK    3  A    between atoms: C_8  and  C_9
REMARK                            x       y       z     vdW  Elec       q    Type
REMARK                         _______ _______ _______ _____ _____    ______ ____
ROOT
ATOM      1  C   UNL     1       7.806   8.811  17.791  0.00  0.00    +0.000 C 
ATOM      2  C   UNL     1       8.713   9.052  18.752  0.00  0.00    +0.000 C 
ENDROOT
BRANCH   2   3
ATOM      3  C   UNL     1       9.315  10.369  19.016  0.00  0.00    +0.000 A 
ATOM      4  C   UNL     1       9.560  10.839  20.317  0.00  0.00    +0.000 A 
ATOM      5  C   UNL     1      10.167  12.081  20.527  0.00  0.00    +0.000 A 
ATOM      6  C   UNL     1      10.545  12.851  19.435  0.00  0.00    +0.000 A 
ATOM      7  F   UNL     1      11.131  14.039  19.639  0.00  0.00    +0.000 F 
ATOM      8  C   UNL     1      10.324  12.392  18.144  0.00  0.00    +0.000 A 
ATOM      9  F   UNL     1      10.699  13.132  17.092  0.00  0.00    +0.000 F 
ATOM     10  C   UNL     1       9.716  11.157  17.927  0.00  0.00    +0.000 A 
ENDBRANCH   2   3
BRANCH   1  15
ATOM     11  C   UNL     1       7.206   5.074  17.623  0.00  0.00    +0.000 A 
ATOM     12  C   UNL     1       5.930   5.024  17.071  0.00  0.00    +0.000 A 
ATOM     13  C   UNL     1       5.278   6.215  16.757  0.00  0.00    +0.000 A 
ATOM     14  C   UNL     1       5.907   7.441  16.991  0.00  0.00    +0.000 A 
ATOM     15  C   UNL     1       7.199   7.495  17.531  0.00  0.00    +0.000 A 
ATOM     16  C   UNL     1       7.837   6.292  17.861  0.00  0.00    +0.000 A 
BRANCH  11  17
ATOM     17  O   UNL     1       7.881   3.936  17.954  0.00  0.00    +0.000 OA
ATOM     18  H   UNL     1       8.462   4.128  18.707  0.00  0.00    +0.000 HD
ENDBRANCH  11  17
ENDBRANCH   1  15
TORSDOF 3
ENDMDL
MODEL 9
REMARK VINA RESULT:      -7.0      5.657      7.215
REMARK  Name = 
REMARK  3 active torsions:
REMARK  status: ('A' for Active; 'I' for Inactive)
REMARK    1  A    between atoms: O_1  and  C_2
REMARK    2  A    between atoms: C_6  and  C_7
REMARK    3  A    between atoms: C_8  and  C_9
REMARK                            x       y       z     vdW  Elec       q    Type
REMARK                         _______ _______ _______ _____ _____    ______ ____
ROOT
ATOM      1  C   UNL     1       4.448   7.115  17.655  0.00  0.00    +0.000 C 
ATOM      2  C   UNL     1       3.233   6.764  18.111  0.00  0.00    +0.000 C 
ENDROOT
BRANCH   2   3
ATOM      3  C   UNL     1       2.312   7.676  18.809  0.00  0.00    +0.000 A 
ATOM      4  C   UNL     1       1.979   7.519  20.165  0.00  0.00    +0.000 A 
ATOM      5  C   UNL     1       1.129   8.426  20.803  0.00  0.00    +0.000 A 
ATOM      6  C   UNL     1       0.621   9.505  20.091  0.00  0.00    +0.000 A 
ATOM      7  F   UNL     1      -0.190  10.377  20.706  0.00  0.00    +0.000 F 
ATOM      8  C   UNL     1       0.955   9.682  18.755  0.00  0.00    +0.000 A 
ATOM      9  F   UNL     1       0.473  10.729  18.073  0.00  0.00    +0.000 F 
ATOM     10  C   UNL     1       1.799   8.779  18.112  0.00  0.00    +0.000 A 
ENDBRANCH   2   3
BRANCH   1  15
ATOM     11  C   UNL     1       7.218   4.644  16.896  0.00  0.00    +0.000 A 
ATOM     12  C   UNL     1       7.024   4.422  15.537  0.00  0.00    +0.000 A 
ATOM     13  C   UNL     1       5.989   5.084  14.880  0.00  0.00    +0.000 A 
ATOM     14  C   UNL     1       5.163   5.965  15.584  0.00  0.00    +0.000 A 
ATOM     15  C   UNL     1       5.366   6.204  16.950  0.00  0.00    +0.000 A 
ATOM     16  C   UNL     1       6.397   5.518  17.604  0.00  0.00    +0.000 A 
BRANCH  11  17
ATOM     17  O   UNL     1       8.212   4.012  17.583  0.00  0.00    +0.000 OA
ATOM     18  H   UNL     1       8.322   4.450  18.442  0.00  0.00    +0.000 HD
ENDBRANCH  11  17
ENDBRANCH   1  15
TORSDOF 3
ENDMDL
