MODEL 1
REMARK VINA RESULT:      -8.5      0.000      0.000
REMARK  Name = 
REMARK  3 active torsions:
REMARK  status: ('A' for Active; 'I' for Inactive)
REMARK    1  A    between atoms: C_1  and  C_2
REMARK    2  A    between atoms: C_6  and  C_7
REMARK    3  A    between atoms: C_11  and  C_12
REMARK                            x       y       z     vdW  Elec       q    Type
REMARK                         _______ _______ _______ _____ _____    ______ ____
ROOT
ATOM      1  C   UNL     1       5.417   5.545  15.813  0.00  0.00    +0.000 C 
ATOM      2  O   UNL     1       5.768   6.711  15.996  0.00  0.00    +0.000 OA
ATOM      3  N   UNL     1       4.605   4.934  16.791  0.00  0.00    +0.000 N 
ATOM      4  N   UNL     1       4.579   3.567  16.904  0.00  0.00    +0.000 NA
ATOM      5  C   UNL     1       3.828   3.326  17.998  0.00  0.00    +0.000 A 
ATOM      6  C   UNL     1       3.275   4.523  18.522  0.00  0.00    +0.000 A 
ATOM      7  C   UNL     1       2.401   4.877  19.564  0.00  0.00    +0.000 A 
ATOM      8  C   UNL     1       2.087   6.227  19.714  0.00  0.00    +0.000 A 
ATOM      9  C   UNL     1       2.656   7.149  18.849  0.00  0.00    +0.000 A 
ATOM     10  N   UNL     1       3.508   6.857  17.845  0.00  0.00    +0.000 NA
ATOM     11  C   UNL     1       3.791   5.541  17.732  0.00  0.00    +0.000 A 
ENDROOT
BRANCH   1  17
ATOM     12  C   UNL     1       4.417   3.021  11.589  0.00  0.00    +0.000 C 
ATOM     13  C   UNL     1       5.405   3.696  12.494  0.00  0.00    +0.000 A 
ATOM     14  C   UNL     1       6.748   3.831  12.124  0.00  0.00    +0.000 A 
ATOM     15  C   UNL     1       7.652   4.483  12.966  0.00  0.00    +0.000 A 
ATOM     16  C   UNL     1       7.219   5.012  14.181  0.00  0.00    +0.000 A 
ATOM     17  C   UNL     1       5.881   4.875  14.569  0.00  0.00    +0.000 A 
ATOM     18  C   UNL     1       4.976   4.218  13.723  0.00  0.00    +0.000 A 
ENDBRANCH   1  17
BRANCH   5  19
ATOM     19  C   UNL     1       3.605   1.948  18.556  0.00  0.00    +0.000 C 
ATOM     20  F   UNL     1       2.310   1.689  18.871  0.00  0.00    +0.000 F 
ATOM     21  F   UNL     1       3.992   0.987  17.674  0.00  0.00    +0.000 F 
ATOM     22  F   UNL     1       4.332   1.743  19.687  0.00  0.00    +0.000 F 
ENDBRANCH   5  19
TORSDOF 2
ENDMDL
MODEL 2
REMARK VINA RESULT:      -7.8      2.634      6.701
REMARK  Name = 
REMARK  3 active torsions:
REMARK  status: ('A' for Active; 'I' for Inactive)
REMARK    1  A    between atoms: C_1  and  C_2
REMARK    2  A    between atoms: C_6  and  C_7
REMARK    3  A    between atoms: C_11  and  C_12
REMARK                            x       y       z     vdW  Elec       q    Type
REMARK                         _______ _______ _______ _____ _____    ______ ____
ROOT
ATOM      1  C   UNL     1       2.274   7.872  18.303  0.00  0.00    +0.000 C 
ATOM      2  O   UNL     1       2.672   8.522  17.336  0.00  0.00    +0.000 OA
ATOM      3  N   UNL     1       2.523   6.484  18.318  0.00  0.00    +0.000 N 
ATOM      4  N   UNL     1       1.732   5.653  19.069  0.00  0.00    +0.000 NA
ATOM      5  C   UNL     1       2.146   4.407  18.757  0.00  0.00    +0.000 A 
ATOM      6  C   UNL     1       3.274   4.435  17.898  0.00  0.00    +0.000 A 
ATOM      7  C   UNL     1       4.141   3.495  17.315  0.00  0.00    +0.000 A 
ATOM      8  C   UNL     1       5.185   3.980  16.527  0.00  0.00    +0.000 A 
ATOM      9  C   UNL     1       5.310   5.349  16.346  0.00  0.00    +0.000 A 
ATOM     10  N   UNL     1       4.496   6.284  16.874  0.00  0.00    +0.000 NA
ATOM     11  C   UNL     1       3.495   5.779  17.628  0.00  0.00    +0.000 A 
ENDROOT
BRANCH   1  17
ATOM     12  C   UNL     1      -0.992  11.404  19.743  0.00  0.00    +0.000 C 
ATOM     13  C   UNL     1      -0.059  10.280  20.089  0.00  0.00    +0.000 A 
ATOM     14  C   UNL     1       0.052   9.812  21.404  0.00  0.00    +0.000 A 
ATOM     15  C   UNL     1       0.906   8.750  21.707  0.00  0.00    +0.000 A 
ATOM     16  C   UNL     1       1.652   8.143  20.698  0.00  0.00    +0.000 A 
ATOM     17  C   UNL     1       1.560   8.607  19.380  0.00  0.00    +0.000 A 
ATOM     18  C   UNL     1       0.702   9.674  19.079  0.00  0.00    +0.000 A 
ENDBRANCH   1  17
BRANCH   5  19
ATOM     19  C   UNL     1       1.487   3.164  19.286  0.00  0.00    +0.000 C 
ATOM     20  F   UNL     1       2.362   2.236  19.749  0.00  0.00    +0.000 F 
ATOM     21  F   UNL     1       0.641   3.449  20.313  0.00  0.00    +0.000 F 
ATOM     22  F   UNL     1       0.735   2.551  18.332  0.00  0.00    +0.000 F 
ENDBRANCH   5  19
TORSDOF 2
ENDMDL
MODEL 3
REMARK VINA RESULT:      -7.7      2.979      3.796
REMARK  Name = 
REMARK  3 active torsions:
REMARK  status: ('A' for Active; 'I' for Inactive)
REMARK    1  A    between atoms: C_1  and  C_2
REMARK    2  A    between atoms: C_6  and  C_7
REMARK    3  A    between atoms: C_11  and  C_12
REMARK                            x       y       z     vdW  Elec       q    Type
REMARK                         _______ _______ _______ _____ _____    ______ ____
ROOT
ATOM      1  C   UNL     1       4.459   3.512  17.034  0.00  0.00    +0.000 C 
ATOM      2  O   UNL     1       4.188   2.315  17.137  0.00  0.00    +0.000 OA
ATOM      3  N   UNL     1       3.782   4.421  17.873  0.00  0.00    +0.000 N 
ATOM      4  N   UNL     1       3.667   5.738  17.506  0.00  0.00    +0.000 NA
ATOM      5  C   UNL     1       2.865   6.287  18.442  0.00  0.00    +0.000 A 
ATOM      6  C   UNL     1       2.559   5.361  19.472  0.00  0.00    +0.000 A 
ATOM      7  C   UNL     1       1.854   5.378  20.688  0.00  0.00    +0.000 A 
ATOM      8  C   UNL     1       1.829   4.201  21.436  0.00  0.00    +0.000 A 
ATOM      9  C   UNL     1       2.479   3.079  20.946  0.00  0.00    +0.000 A 
ATOM     10  N   UNL     1       3.156   3.014  19.781  0.00  0.00    +0.000 NA
ATOM     11  C   UNL     1       3.157   4.170  19.082  0.00  0.00    +0.000 A 
ENDROOT
BRANCH   1  17
ATOM     12  C   UNL     1       6.101   3.574  12.289  0.00  0.00    +0.000 C 
ATOM     13  C   UNL     1       6.263   3.982  13.723  0.00  0.00    +0.000 A 
ATOM     14  C   UNL     1       7.292   4.847  14.117  0.00  0.00    +0.000 A 
ATOM     15  C   UNL     1       7.416   5.238  15.451  0.00  0.00    +0.000 A 
ATOM     16  C   UNL     1       6.509   4.775  16.403  0.00  0.00    +0.000 A 
ATOM     17  C   UNL     1       5.482   3.901  16.027  0.00  0.00    +0.000 A 
ATOM     18  C   UNL     1       5.360   3.509  14.686  0.00  0.00    +0.000 A 
ENDBRANCH   1  17
BRANCH   5  19
ATOM     19  C   UNL     1       2.391   7.712  18.385  0.00  0.00    +0.000 C 
ATOM     20  F   UNL     1       2.014   8.212  19.590  0.00  0.00    +0.000 F 
ATOM     21  F   UNL     1       3.358   8.539  17.904  0.00  0.00    +0.000 F 
ATOM     22  F   UNL     1       1.323   7.851  17.553  0.00  0.00    +0.000 F 
ENDBRANCH   5  19
TORSDOF 2
ENDMDL
MODEL 4
REMARK VINA RESULT:      -7.6      2.888      6.665
REMARK  Name = 
REMARK  3 active torsions:
REMARK  status: ('A' for Active; 'I' for Inactive)
REMARK    1  A    between atoms: C_1  and  C_2
REMARK    2  A    between atoms: C_6  and  C_7
REMARK    3  A    between atoms: C_11  and  C_12
REMARK                            x       y       z     vdW  Elec       q    Type
REMARK                         _______ _______ _______ _____ _____    ______ ____
ROOT
ATOM      1  C   UNL     1       2.333   8.131  18.010  0.00  0.00    +0.000 C 
ATOM      2  O   UNL     1       2.854   8.788  17.109  0.00  0.00    +0.000 OA
ATOM      3  N   UNL     1       2.686   6.771  18.130  0.00  0.00    +0.000 N 
ATOM      4  N   UNL     1       1.836   5.894  18.754  0.00  0.00    +0.000 NA
ATOM      5  C   UNL     1       2.400   4.681  18.578  0.00  0.00    +0.000 A 
ATOM      6  C   UNL     1       3.666   4.785  17.945  0.00  0.00    +0.000 A 
ATOM      7  C   UNL     1       4.701   3.909  17.575  0.00  0.00    +0.000 A 
ATOM      8  C   UNL     1       5.832   4.462  16.977  0.00  0.00    +0.000 A 
ATOM      9  C   UNL     1       5.879   5.831  16.765  0.00  0.00    +0.000 A 
ATOM     10  N   UNL     1       4.907   6.706  17.092  0.00  0.00    +0.000 NA
ATOM     11  C   UNL     1       3.825   6.135  17.665  0.00  0.00    +0.000 A 
ENDROOT
BRANCH   1  17
ATOM     12  C   UNL     1       0.686   9.250  22.620  0.00  0.00    +0.000 C 
ATOM     13  C   UNL     1       0.593   9.420  21.132  0.00  0.00    +0.000 A 
ATOM     14  C   UNL     1      -0.299  10.337  20.564  0.00  0.00    +0.000 A 
ATOM     15  C   UNL     1      -0.357  10.502  19.179  0.00  0.00    +0.000 A 
ATOM     16  C   UNL     1       0.481   9.758  18.350  0.00  0.00    +0.000 A 
ATOM     17  C   UNL     1       1.370   8.829  18.903  0.00  0.00    +0.000 A 
ATOM     18  C   UNL     1       1.426   8.664  20.294  0.00  0.00    +0.000 A 
ENDBRANCH   1  17
BRANCH   5  19
ATOM     19  C   UNL     1       1.755   3.400  19.026  0.00  0.00    +0.000 C 
ATOM     20  F   UNL     1       1.451   2.556  18.007  0.00  0.00    +0.000 F 
ATOM     21  F   UNL     1       2.559   2.710  19.879  0.00  0.00    +0.000 F 
ATOM     22  F   UNL     1       0.596   3.633  19.700  0.00  0.00    +0.000 F 
ENDBRANCH   5  19
TORSDOF 2
ENDMDL
MODEL 5
REMARK VINA RESULT:      -7.6      3.377      6.908
REMARK  Name = 
REMARK  3 active torsions:
REMARK  status: ('A' for Active; 'I' for Inactive)
REMARK    1  A    between atoms: C_1  and  C_2
REMARK    2  A    between atoms: C_6  and  C_7
REMARK    3  A    between atoms: C_11  and  C_12
REMARK                            x       y       z     vdW  Elec       q    Type
REMARK                         _______ _______ _______ _____ _____    ______ ____
ROOT
ATOM      1  C   UNL     1       2.237   8.046  18.492  0.00  0.00    +0.000 C 
ATOM      2  O   UNL     1       2.667   8.463  17.417  0.00  0.00    +0.000 OA
ATOM      3  N   UNL     1       2.693   6.792  18.949  0.00  0.00    +0.000 N 
ATOM      4  N   UNL     1       1.938   6.069  19.837  0.00  0.00    +0.000 NA
ATOM      5  C   UNL     1       2.581   4.889  19.956  0.00  0.00    +0.000 A 
ATOM      6  C   UNL     1       3.806   4.891  19.241  0.00  0.00    +0.000 A 
ATOM      7  C   UNL     1       4.885   4.010  19.055  0.00  0.00    +0.000 A 
ATOM      8  C   UNL     1       5.946   4.446  18.261  0.00  0.00    +0.000 A 
ATOM      9  C   UNL     1       5.883   5.706  17.688  0.00  0.00    +0.000 A 
ATOM     10  N   UNL     1       4.864   6.578  17.829  0.00  0.00    +0.000 NA
ATOM     11  C   UNL     1       3.854   6.122  18.601  0.00  0.00    +0.000 A 
ENDROOT
BRANCH   1  17
ATOM     12  C   UNL     1       0.173   9.594  22.800  0.00  0.00    +0.000 C 
ATOM     13  C   UNL     1       0.293   9.698  21.308  0.00  0.00    +0.000 A 
ATOM     14  C   UNL     1      -0.393  10.687  20.595  0.00  0.00    +0.000 A 
ATOM     15  C   UNL     1      -0.253  10.787  19.210  0.00  0.00    +0.000 A 
ATOM     16  C   UNL     1       0.581   9.904  18.526  0.00  0.00    +0.000 A 
ATOM     17  C   UNL     1       1.265   8.902  19.224  0.00  0.00    +0.000 A 
ATOM     18  C   UNL     1       1.121   8.803  20.615  0.00  0.00    +0.000 A 
ENDBRANCH   1  17
BRANCH   5  19
ATOM     19  C   UNL     1       2.052   3.742  20.771  0.00  0.00    +0.000 C 
ATOM     20  F   UNL     1       2.467   3.752  22.063  0.00  0.00    +0.000 F 
ATOM     21  F   UNL     1       0.692   3.737  20.797  0.00  0.00    +0.000 F 
ATOM     22  F   UNL     1       2.427   2.543  20.249  0.00  0.00    +0.000 F 
ENDBRANCH   5  19
TORSDOF 2
ENDMDL
MODEL 6
REMARK VINA RESULT:      -7.6      2.924      6.520
REMARK  Name = 
REMARK  3 active torsions:
REMARK  status: ('A' for Active; 'I' for Inactive)
REMARK    1  A    between atoms: C_1  and  C_2
REMARK    2  A    between atoms: C_6  and  C_7
REMARK    3  A    between atoms: C_11  and  C_12
REMARK                            x       y       z     vdW  Elec       q    Type
REMARK                         _______ _______ _______ _____ _____    ______ ____
ROOT
ATOM      1  C   UNL     1       3.645   3.275  17.754  0.00  0.00    +0.000 C 
ATOM      2  O   UNL     1       3.274   2.442  16.927  0.00  0.00    +0.000 OA
ATOM      3  N   UNL     1       4.856   3.957  17.513  0.00  0.00    +0.000 N 
ATOM      4  N   UNL     1       5.553   4.508  18.559  0.00  0.00    +0.000 NA
ATOM      5  C   UNL     1       6.702   4.953  18.010  0.00  0.00    +0.000 A 
ATOM      6  C   UNL     1       6.699   4.797  16.600  0.00  0.00    +0.000 A 
ATOM      7  C   UNL     1       7.554   5.120  15.532  0.00  0.00    +0.000 A 
ATOM      8  C   UNL     1       7.128   4.798  14.244  0.00  0.00    +0.000 A 
ATOM      9  C   UNL     1       5.904   4.169  14.078  0.00  0.00    +0.000 A 
ATOM     10  N   UNL     1       5.059   3.829  15.073  0.00  0.00    +0.000 NA
ATOM     11  C   UNL     1       5.505   4.153  16.306  0.00  0.00    +0.000 A 
ENDROOT
BRANCH   1  17
ATOM     12  C   UNL     1       1.268   6.382  20.903  0.00  0.00    +0.000 C 
ATOM     13  C   UNL     1       1.584   4.988  20.447  0.00  0.00    +0.000 A 
ATOM     14  C   UNL     1       0.968   3.878  21.039  0.00  0.00    +0.000 A 
ATOM     15  C   UNL     1       1.253   2.588  20.588  0.00  0.00    +0.000 A 
ATOM     16  C   UNL     1       2.150   2.395  19.539  0.00  0.00    +0.000 A 
ATOM     17  C   UNL     1       2.782   3.494  18.945  0.00  0.00    +0.000 A 
ATOM     18  C   UNL     1       2.495   4.789  19.400  0.00  0.00    +0.000 A 
ENDBRANCH   1  17
BRANCH   5  19
ATOM     19  C   UNL     1       7.819   5.555  18.816  0.00  0.00    +0.000 C 
ATOM     20  F   UNL     1       8.259   6.746  18.336  0.00  0.00    +0.000 F 
ATOM     21  F   UNL     1       7.443   5.768  20.106  0.00  0.00    +0.000 F 
ATOM     22  F   UNL     1       8.901   4.730  18.866  0.00  0.00    +0.000 F 
ENDBRANCH   5  19
TORSDOF 2
ENDMDL
MODEL 7
REMARK VINA RESULT:      -7.6      3.595      7.017
REMARK  Name = 
REMARK  3 active torsions:
REMARK  status: ('A' for Active; 'I' for Inactive)
REMARK    1  A    between atoms: C_1  and  C_2
REMARK    2  A    between atoms: C_6  and  C_7
REMARK    3  A    between atoms: C_11  and  C_12
REMARK                            x       y       z     vdW  Elec       q    Type
REMARK                         _______ _______ _______ _____ _____    ______ ____
ROOT
ATOM      1  C   UNL     1       3.088   6.206  18.118  0.00  0.00    +0.000 C 
ATOM      2  O   UNL     1       2.539   5.105  18.158  0.00  0.00    +0.000 OA
ATOM      3  N   UNL     1       4.404   6.274  17.615  0.00  0.00    +0.000 N 
ATOM      4  N   UNL     1       5.222   7.316  17.973  0.00  0.00    +0.000 NA
ATOM      5  C   UNL     1       6.423   7.009  17.440  0.00  0.00    +0.000 A 
ATOM      6  C   UNL     1       6.354   5.837  16.645  0.00  0.00    +0.000 A 
ATOM      7  C   UNL     1       7.229   5.101  15.827  0.00  0.00    +0.000 A 
ATOM      8  C   UNL     1       6.716   3.978  15.178  0.00  0.00    +0.000 A 
ATOM      9  C   UNL     1       5.387   3.635  15.377  0.00  0.00    +0.000 A 
ATOM     10  N   UNL     1       4.517   4.303  16.160  0.00  0.00    +0.000 NA
ATOM     11  C   UNL     1       5.049   5.382  16.775  0.00  0.00    +0.000 A 
ENDROOT
BRANCH   1  17
ATOM     12  C   UNL     1       1.084   8.837  21.897  0.00  0.00    +0.000 C 
ATOM     13  C   UNL     1       1.384   8.690  20.434  0.00  0.00    +0.000 A 
ATOM     14  C   UNL     1       1.070   9.708  19.526  0.00  0.00    +0.000 A 
ATOM     15  C   UNL     1       1.377   9.567  18.172  0.00  0.00    +0.000 A 
ATOM     16  C   UNL     1       2.006   8.411  17.713  0.00  0.00    +0.000 A 
ATOM     17  C   UNL     1       2.315   7.379  18.607  0.00  0.00    +0.000 A 
ATOM     18  C   UNL     1       2.005   7.522  19.967  0.00  0.00    +0.000 A 
ENDBRANCH   1  17
BRANCH   5  19
ATOM     19  C   UNL     1       7.657   7.839  17.661  0.00  0.00    +0.000 C 
ATOM     20  F   UNL     1       8.425   7.410  18.695  0.00  0.00    +0.000 F 
ATOM     21  F   UNL     1       8.455   7.847  16.559  0.00  0.00    +0.000 F 
ATOM     22  F   UNL     1       7.347   9.139  17.917  0.00  0.00    +0.000 F 
ENDBRANCH   5  19
TORSDOF 2
ENDMDL
MODEL 8
REMARK VINA RESULT:      -7.4      3.358      6.597
REMARK  Name = 
REMARK  3 active torsions:
REMARK  status: ('A' for Active; 'I' for Inactive)
REMARK    1  A    between atoms: C_1  and  C_2
REMARK    2  A    between atoms: C_6  and  C_7
REMARK    3  A    between atoms: C_11  and  C_12
REMARK                            x       y       z     vdW  Elec       q    Type
REMARK                         _______ _______ _______ _____ _____    ______ ____
ROOT
ATOM      1  C   UNL     1       2.356   8.090  18.175  0.00  0.00    +0.000 C 
ATOM      2  O   UNL     1       2.858   8.468  17.116  0.00  0.00    +0.000 OA
ATOM      3  N   UNL     1       2.770   6.848  18.700  0.00  0.00    +0.000 N 
ATOM      4  N   UNL     1       1.953   6.161  19.562  0.00  0.00    +0.000 NA
ATOM      5  C   UNL     1       2.575   4.981  19.760  0.00  0.00    +0.000 A 
ATOM      6  C   UNL     1       3.843   4.949  19.124  0.00  0.00    +0.000 A 
ATOM      7  C   UNL     1       4.922   4.053  19.036  0.00  0.00    +0.000 A 
ATOM      8  C   UNL     1       6.035   4.454  18.297  0.00  0.00    +0.000 A 
ATOM      9  C   UNL     1       6.021   5.695  17.680  0.00  0.00    +0.000 A 
ATOM     10  N   UNL     1       5.005   6.580  17.727  0.00  0.00    +0.000 NA
ATOM     11  C   UNL     1       3.943   6.158  18.448  0.00  0.00    +0.000 A 
ENDROOT
BRANCH   1  17
ATOM     12  C   UNL     1      -1.720  11.005  17.848  0.00  0.00    +0.000 C 
ATOM     13  C   UNL     1      -0.655  10.352  18.679  0.00  0.00    +0.000 A 
ATOM     14  C   UNL     1      -0.668  10.448  20.075  0.00  0.00    +0.000 A 
ATOM     15  C   UNL     1       0.316   9.815  20.837  0.00  0.00    +0.000 A 
ATOM     16  C   UNL     1       1.317   9.074  20.211  0.00  0.00    +0.000 A 
ATOM     17  C   UNL     1       1.349   8.978  18.815  0.00  0.00    +0.000 A 
ATOM     18  C   UNL     1       0.361   9.616  18.052  0.00  0.00    +0.000 A 
ENDBRANCH   1  17
BRANCH   5  19
ATOM     19  C   UNL     1       1.984   3.866  20.576  0.00  0.00    +0.000 C 
ATOM     20  F   UNL     1       2.527   3.747  21.814  0.00  0.00    +0.000 F 
ATOM     21  F   UNL     1       0.645   4.034  20.751  0.00  0.00    +0.000 F 
ATOM     22  F   UNL     1       2.139   2.661  19.964  0.00  0.00    +0.000 F 
ENDBRANCH   5  19
TORSDOF 2
ENDMDL
MODEL 9
REMARK VINA RESULT:      -7.4      2.896      6.479
REMARK  Name = 
REMARK  3 active torsions:
REMARK  status: ('A' for Active; 'I' for Inactive)
REMARK    1  A    between atoms: C_1  and  C_2
REMARK    2  A    between atoms: C_6  and  C_7
REMARK    3  A    between atoms: C_11  and  C_12
REMARK                            x       y       z     vdW  Elec       q    Type
REMARK                         _______ _______ _______ _____ _____    ______ ____
ROOT
ATOM      1  C   UNL     1       3.466   3.597  17.562  0.00  0.00    +0.000 C 
ATOM      2  O   UNL     1       3.055   2.781  16.737  0.00  0.00    +0.000 OA
ATOM      3  N   UNL     1       4.738   4.168  17.353  0.00  0.00    +0.000 N 
ATOM      4  N   UNL     1       5.443   4.680  18.413  0.00  0.00    +0.000 NA
ATOM      5  C   UNL     1       6.645   5.015  17.899  0.00  0.00    +0.000 A 
ATOM      6  C   UNL     1       6.678   4.829  16.493  0.00  0.00    +0.000 A 
ATOM      7  C   UNL     1       7.593   5.056  15.451  0.00  0.00    +0.000 A 
ATOM      8  C   UNL     1       7.186   4.743  14.154  0.00  0.00    +0.000 A 
ATOM      9  C   UNL     1       5.920   4.217  13.955  0.00  0.00    +0.000 A 
ATOM     10  N   UNL     1       5.015   3.971  14.924  0.00  0.00    +0.000 NA
ATOM     11  C   UNL     1       5.444   4.282  16.167  0.00  0.00    +0.000 A 
ENDROOT
BRANCH   1  17
ATOM     12  C   UNL     1       1.448   2.329  21.982  0.00  0.00    +0.000 C 
ATOM     13  C   UNL     1       1.640   3.332  20.883  0.00  0.00    +0.000 A 
ATOM     14  C   UNL     1       1.113   4.625  20.986  0.00  0.00    +0.000 A 
ATOM     15  C   UNL     1       1.320   5.556  19.966  0.00  0.00    +0.000 A 
ATOM     16  C   UNL     1       2.061   5.206  18.839  0.00  0.00    +0.000 A 
ATOM     17  C   UNL     1       2.584   3.913  18.716  0.00  0.00    +0.000 A 
ATOM     18  C   UNL     1       2.374   2.980  19.741  0.00  0.00    +0.000 A 
ENDBRANCH   1  17
BRANCH   5  19
ATOM     19  C   UNL     1       7.780   5.537  18.734  0.00  0.00    +0.000 C 
ATOM     20  F   UNL     1       8.256   6.738  18.319  0.00  0.00    +0.000 F 
ATOM     21  F   UNL     1       7.411   5.691  20.034  0.00  0.00    +0.000 F 
ATOM     22  F   UNL     1       8.836   4.678  18.736  0.00  0.00    +0.000 F 
ENDBRANCH   5  19
TORSDOF 2
ENDMDL
