MODEL 1
REMARK VINA RESULT:      -8.7      0.000      0.000
REMARK  Name = 
REMARK  12 active torsions:
REMARK  status: ('A' for Active; 'I' for Inactive)
REMARK    1  A    between atoms: C_1  and  O_2
REMARK    2  A    between atoms: O_2  and  C_3
REMARK    3  A    between atoms: C_5  and  O_6
REMARK    4  A    between atoms: O_6  and  C_7
REMARK    5  A    between atoms: C_9  and  N_10
REMARK    6  A    between atoms: N_10  and  C_11
REMARK    7  A    between atoms: N_10  and  C_21
REMARK    8  A    between atoms: C_11  and  C_12
REMARK    9  A    between atoms: C_13  and  C_14
REMARK   10  A    between atoms: C_19  and  N_20
REMARK   11  A    between atoms: C_27  and  C_28
REMARK   12  A    between atoms: N_31  and  C_32
REMARK                            x       y       z     vdW  Elec       q    Type
REMARK                         _______ _______ _______ _____ _____    ______ ____
ROOT
ATOM      1  N   UNL     1      -0.017  11.140  19.027  0.00  0.00    +0.000 N 
ENDROOT
BRANCH   1   2
ATOM      2  C   UNL     1       0.850  10.015  19.255  0.00  0.00    +0.000 A 
ATOM      3  C   UNL     1       0.702   9.278  20.427  0.00  0.00    +0.000 A 
ATOM      4  C   UNL     1       1.297   8.039  20.568  0.00  0.00    +0.000 A 
ATOM      5  C   UNL     1       2.109   7.520  19.587  0.00  0.00    +0.000 A 
ATOM      6  N   UNL     1       2.461   6.257  19.783  0.00  0.00    +0.000 NA
ATOM      7  C   UNL     1       3.284   5.733  18.868  0.00  0.00    +0.000 A 
ATOM      8  C   UNL     1       3.843   6.459  17.823  0.00  0.00    +0.000 A 
ATOM      9  N   UNL     1       3.433   7.744  17.583  0.00  0.00    +0.000 NA
ATOM     10  C   UNL     1       2.500   8.286  18.461  0.00  0.00    +0.000 A 
ATOM     11  C   UNL     1       1.831   9.542  18.325  0.00  0.00    +0.000 A 
BRANCH   8  12
ATOM     12  C   UNL     1       4.880   5.772  17.053  0.00  0.00    +0.000 A 
ATOM     13  C   UNL     1       5.843   4.843  17.547  0.00  0.00    +0.000 A 
ATOM     14  N   UNL     1       6.579   4.283  16.591  0.00  0.00    +0.000 NA
ATOM     15  N   UNL     1       6.102   4.842  15.469  0.00  0.00    +0.000 N 
ATOM     16  C   UNL     1       6.540   4.310  14.201  0.00  0.00    +0.000 C 
ATOM     17  C   UNL     1       5.147   5.805  15.698  0.00  0.00    +0.000 A 
ENDBRANCH   8  12
ENDBRANCH   1   2
BRANCH   1  22
ATOM     18  C   UNL     1      -3.736  11.464  18.387  0.00  0.00    +0.000 A 
ATOM     19  C   UNL     1      -3.890  10.696  17.242  0.00  0.00    +0.000 A 
ATOM     20  C   UNL     1      -2.772  10.126  16.657  0.00  0.00    +0.000 A 
ATOM     21  C   UNL     1      -1.499  10.343  17.216  0.00  0.00    +0.000 A 
ATOM     22  C   UNL     1      -1.309  11.070  18.421  0.00  0.00    +0.000 A 
ATOM     23  C   UNL     1      -2.467  11.645  18.976  0.00  0.00    +0.000 A 
BRANCH  18  25
ATOM     24  C   UNL     1      -6.052  11.801  18.064  0.00  0.00    +0.000 C 
ATOM     25  O   UNL     1      -4.916  11.931  18.907  0.00  0.00    +0.000 OA
ENDBRANCH  18  25
BRANCH  20  26
ATOM     26  O   UNL     1      -3.014   9.382  15.531  0.00  0.00    +0.000 OA
ATOM     27  C   UNL     1      -3.309  10.142  14.361  0.00  0.00    +0.000 C 
ENDBRANCH  20  26
ENDBRANCH   1  22
BRANCH   1  28
ATOM     28  C   UNL     1       0.507  12.454  19.654  0.00  0.00    +0.000 C 
BRANCH  28  29
ATOM     29  C   UNL     1      -0.214  12.775  20.953  0.00  0.00    +0.000 C 
ATOM     30  C   UNL     1      -0.832  13.051  22.068  0.00  0.00    +0.000 C 
BRANCH  30  31
ATOM     31  C   UNL     1      -1.518  13.607  23.205  0.00  0.00    +0.000 A 
ATOM     32  N   UNL     1      -0.803  14.531  23.889  0.00  0.00    +0.000 NA
ATOM     33  C   UNL     1      -1.439  15.156  24.907  0.00  0.00    +0.000 A 
ATOM     34  C   UNL     1      -2.762  14.930  25.253  0.00  0.00    +0.000 A 
ATOM     35  C   UNL     1      -3.466  13.960  24.552  0.00  0.00    +0.000 A 
ATOM     36  C   UNL     1      -2.828  13.211  23.555  0.00  0.00    +0.000 A 
BRANCH  36  37
ATOM     37  N   UNL     1      -3.595  12.271  22.837  0.00  0.00    +0.000 N 
ATOM     38  H   UNL     1      -4.493  12.077  23.272  0.00  0.00    +0.000 HD
ATOM     39  H   UNL     1      -3.080  11.415  22.647  0.00  0.00    +0.000 HD
ENDBRANCH  36  37
ENDBRANCH  30  31
ENDBRANCH  28  29
ENDBRANCH   1  28
TORSDOF 9
ENDMDL
MODEL 2
REMARK VINA RESULT:      -8.7      2.247      3.746
REMARK  Name = 
REMARK  12 active torsions:
REMARK  status: ('A' for Active; 'I' for Inactive)
REMARK    1  A    between atoms: C_1  and  O_2
REMARK    2  A    between atoms: O_2  and  C_3
REMARK    3  A    between atoms: C_5  and  O_6
REMARK    4  A    between atoms: O_6  and  C_7
REMARK    5  A    between atoms: C_9  and  N_10
REMARK    6  A    between atoms: N_10  and  C_11
REMARK    7  A    between atoms: N_10  and  C_21
REMARK    8  A    between atoms: C_11  and  C_12
REMARK    9  A    between atoms: C_13  and  C_14
REMARK   10  A    between atoms: C_19  and  N_20
REMARK   11  A    between atoms: C_27  and  C_28
REMARK   12  A    between atoms: N_31  and  C_32
REMARK                            x       y       z     vdW  Elec       q    Type
REMARK                         _______ _______ _______ _____ _____    ______ ____
ROOT
ATOM      1  N   UNL     1      -0.545  10.752  19.564  0.00  0.00    +0.000 N 
ENDROOT
BRANCH   1   2
ATOM      2  C   UNL     1       0.501   9.767  19.653  0.00  0.00    +0.000 A 
ATOM      3  C   UNL     1       0.542   8.928  20.763  0.00  0.00    +0.000 A 
ATOM      4  C   UNL     1       1.331   7.794  20.768  0.00  0.00    +0.000 A 
ATOM      5  C   UNL     1       2.153   7.490  19.708  0.00  0.00    +0.000 A 
ATOM      6  N   UNL     1       2.710   6.289  19.778  0.00  0.00    +0.000 NA
ATOM      7  C   UNL     1       3.548   5.977  18.783  0.00  0.00    +0.000 A 
ATOM      8  C   UNL     1       3.921   6.862  17.780  0.00  0.00    +0.000 A 
ATOM      9  N   UNL     1       3.301   8.080  17.671  0.00  0.00    +0.000 NA
ATOM     10  C   UNL     1       2.350   8.394  18.636  0.00  0.00    +0.000 A 
ATOM     11  C   UNL     1       1.485   9.533  18.641  0.00  0.00    +0.000 A 
BRANCH   8  12
ATOM     12  C   UNL     1       5.004   6.414  16.904  0.00  0.00    +0.000 A 
ATOM     13  C   UNL     1       6.395   6.699  17.044  0.00  0.00    +0.000 A 
ATOM     14  N   UNL     1       7.160   6.051  16.170  0.00  0.00    +0.000 NA
ATOM     15  N   UNL     1       6.275   5.340  15.456  0.00  0.00    +0.000 N 
ATOM     16  C   UNL     1       6.779   4.352  14.533  0.00  0.00    +0.000 C 
ATOM     17  C   UNL     1       4.966   5.591  15.796  0.00  0.00    +0.000 A 
ENDBRANCH   8  12
ENDBRANCH   1   2
BRANCH   1  22
ATOM     18  C   UNL     1      -2.685  10.066  16.516  0.00  0.00    +0.000 A 
ATOM     19  C   UNL     1      -3.801  10.848  16.776  0.00  0.00    +0.000 A 
ATOM     20  C   UNL     1      -3.870  11.547  17.969  0.00  0.00    +0.000 A 
ATOM     21  C   UNL     1      -2.823  11.446  18.905  0.00  0.00    +0.000 A 
ATOM     22  C   UNL     1      -1.638  10.707  18.647  0.00  0.00    +0.000 A 
ATOM     23  C   UNL     1      -1.613  10.000  17.431  0.00  0.00    +0.000 A 
BRANCH  18  25
ATOM     24  C   UNL     1      -3.331  10.207  14.247  0.00  0.00    +0.000 C 
ATOM     25  O   UNL     1      -2.702   9.464  15.283  0.00  0.00    +0.000 OA
ENDBRANCH  18  25
BRANCH  20  26
ATOM     26  O   UNL     1      -5.005  12.296  18.145  0.00  0.00    +0.000 OA
ATOM     27  C   UNL     1      -6.215  11.654  17.745  0.00  0.00    +0.000 C 
ENDBRANCH  20  26
ENDBRANCH   1  22
BRANCH   1  28
ATOM     28  C   UNL     1      -0.479  11.817  20.685  0.00  0.00    +0.000 C 
BRANCH  28  29
ATOM     29  C   UNL     1       0.070  13.136  20.166  0.00  0.00    +0.000 C 
ATOM     30  C   UNL     1       0.541  14.268  19.721  0.00  0.00    +0.000 C 
BRANCH  30  31
ATOM     31  C   UNL     1       1.008  15.416  18.987  0.00  0.00    +0.000 A 
ATOM     32  N   UNL     1       2.315  15.360  18.639  0.00  0.00    +0.000 NA
ATOM     33  C   UNL     1       2.778  16.367  17.863  0.00  0.00    +0.000 A 
ATOM     34  C   UNL     1       1.994  17.407  17.388  0.00  0.00    +0.000 A 
ATOM     35  C   UNL     1       0.662  17.454  17.779  0.00  0.00    +0.000 A 
ATOM     36  C   UNL     1       0.154  16.494  18.662  0.00  0.00    +0.000 A 
BRANCH  36  37
ATOM     37  N   UNL     1      -1.215  16.553  18.994  0.00  0.00    +0.000 N 
ATOM     38  H   UNL     1      -1.382  16.917  19.928  0.00  0.00    +0.000 HD
ATOM     39  H   UNL     1      -1.688  15.664  18.850  0.00  0.00    +0.000 HD
ENDBRANCH  36  37
ENDBRANCH  30  31
ENDBRANCH  28  29
ENDBRANCH   1  28
TORSDOF 9
ENDMDL
MODEL 3
REMARK VINA RESULT:      -8.6      2.380      3.415
REMARK  Name = 
REMARK  12 active torsions:
REMARK  status: ('A' for Active; 'I' for Inactive)
REMARK    1  A    between atoms: C_1  and  O_2
REMARK    2  A    between atoms: O_2  and  C_3
REMARK    3  A    between atoms: C_5  and  O_6
REMARK    4  A    between atoms: O_6  and  C_7
REMARK    5  A    between atoms: C_9  and  N_10
REMARK    6  A    between atoms: N_10  and  C_11
REMARK    7  A    between atoms: N_10  and  C_21
REMARK    8  A    between atoms: C_11  and  C_12
REMARK    9  A    between atoms: C_13  and  C_14
REMARK   10  A    between atoms: C_19  and  N_20
REMARK   11  A    between atoms: C_27  and  C_28
REMARK   12  A    between atoms: N_31  and  C_32
REMARK                            x       y       z     vdW  Elec       q    Type
REMARK                         _______ _______ _______ _____ _____    ______ ____
ROOT
ATOM      1  N   UNL     1      -0.236  10.970  19.644  0.00  0.00    +0.000 N 
ENDROOT
BRANCH   1   2
ATOM      2  C   UNL     1       0.643   9.840  19.787  0.00  0.00    +0.000 A 
ATOM      3  C   UNL     1       0.623   9.119  20.979  0.00  0.00    +0.000 A 
ATOM      4  C   UNL     1       1.221   7.876  21.067  0.00  0.00    +0.000 A 
ATOM      5  C   UNL     1       1.911   7.338  20.007  0.00  0.00    +0.000 A 
ATOM      6  N   UNL     1       2.273   6.074  20.179  0.00  0.00    +0.000 NA
ATOM      7  C   UNL     1       2.984   5.531  19.183  0.00  0.00    +0.000 A 
ATOM      8  C   UNL     1       3.426   6.239  18.073  0.00  0.00    +0.000 A 
ATOM      9  N   UNL     1       3.001   7.525  17.864  0.00  0.00    +0.000 NA
ATOM     10  C   UNL     1       2.178   8.086  18.835  0.00  0.00    +0.000 A 
ATOM     11  C   UNL     1       1.509   9.347  18.759  0.00  0.00    +0.000 A 
BRANCH   8  12
ATOM     12  C   UNL     1       4.364   5.534  17.199  0.00  0.00    +0.000 A 
ATOM     13  C   UNL     1       4.550   4.122  17.100  0.00  0.00    +0.000 A 
ATOM     14  N   UNL     1       5.382   3.764  16.127  0.00  0.00    +0.000 NA
ATOM     15  N   UNL     1       5.745   4.936  15.586  0.00  0.00    +0.000 N 
ATOM     16  C   UNL     1       6.500   4.917  14.356  0.00  0.00    +0.000 C 
ATOM     17  C   UNL     1       5.234   6.029  16.247  0.00  0.00    +0.000 A 
ENDBRANCH   8  12
ENDBRANCH   1   2
BRANCH   1  22
ATOM     18  C   UNL     1      -3.730  11.593  18.322  0.00  0.00    +0.000 A 
ATOM     19  C   UNL     1      -3.719  10.857  17.146  0.00  0.00    +0.000 A 
ATOM     20  C   UNL     1      -2.555  10.209  16.767  0.00  0.00    +0.000 A 
ATOM     21  C   UNL     1      -1.399  10.318  17.564  0.00  0.00    +0.000 A 
ATOM     22  C   UNL     1      -1.390  11.010  18.804  0.00  0.00    +0.000 A 
ATOM     23  C   UNL     1      -2.587  11.665  19.145  0.00  0.00    +0.000 A 
BRANCH  18  25
ATOM     24  C   UNL     1      -5.996  11.854  17.705  0.00  0.00    +0.000 C 
ATOM     25  O   UNL     1      -4.950  12.144  18.623  0.00  0.00    +0.000 OA
ENDBRANCH  18  25
BRANCH  20  26
ATOM     26  O   UNL     1      -2.632   9.503  15.595  0.00  0.00    +0.000 OA
ATOM     27  C   UNL     1      -3.307  10.175  14.532  0.00  0.00    +0.000 C 
ENDBRANCH  20  26
ENDBRANCH   1  22
BRANCH   1  28
ATOM     28  C   UNL     1       0.084  12.122  20.626  0.00  0.00    +0.000 C 
BRANCH  28  29
ATOM     29  C   UNL     1       0.250  13.445  19.896  0.00  0.00    +0.000 C 
ATOM     30  C   UNL     1       0.392  14.580  19.270  0.00  0.00    +0.000 C 
BRANCH  30  31
ATOM     31  C   UNL     1       0.809  15.805  18.639  0.00  0.00    +0.000 A 
ATOM     32  N   UNL     1       2.115  15.832  18.285  0.00  0.00    +0.000 NA
ATOM     33  C   UNL     1       2.535  16.921  17.600  0.00  0.00    +0.000 A 
ATOM     34  C   UNL     1       1.708  17.967  17.221  0.00  0.00    +0.000 A 
ATOM     35  C   UNL     1       0.377  17.927  17.617  0.00  0.00    +0.000 A 
ATOM     36  C   UNL     1      -0.088  16.873  18.413  0.00  0.00    +0.000 A 
BRANCH  36  37
ATOM     37  N   UNL     1      -1.457  16.849  18.751  0.00  0.00    +0.000 N 
ATOM     38  H   UNL     1      -1.622  16.996  19.743  0.00  0.00    +0.000 HD
ATOM     39  H   UNL     1      -1.924  16.010  18.415  0.00  0.00    +0.000 HD
ENDBRANCH  36  37
ENDBRANCH  30  31
ENDBRANCH  28  29
ENDBRANCH   1  28
TORSDOF 9
ENDMDL
MODEL 4
REMARK VINA RESULT:      -8.5      0.973      1.082
REMARK  Name = 
REMARK  12 active torsions:
REMARK  status: ('A' for Active; 'I' for Inactive)
REMARK    1  A    between atoms: C_1  and  O_2
REMARK    2  A    between atoms: O_2  and  C_3
REMARK    3  A    between atoms: C_5  and  O_6
REMARK    4  A    between atoms: O_6  and  C_7
REMARK    5  A    between atoms: C_9  and  N_10
REMARK    6  A    between atoms: N_10  and  C_11
REMARK    7  A    between atoms: N_10  and  C_21
REMARK    8  A    between atoms: C_11  and  C_12
REMARK    9  A    between atoms: C_13  and  C_14
REMARK   10  A    between atoms: C_19  and  N_20
REMARK   11  A    between atoms: C_27  and  C_28
REMARK   12  A    between atoms: N_31  and  C_32
REMARK                            x       y       z     vdW  Elec       q    Type
REMARK                         _______ _______ _______ _____ _____    ______ ____
ROOT
ATOM      1  N   UNL     1      -0.421  11.381  19.081  0.00  0.00    +0.000 N 
ENDROOT
BRANCH   1   2
ATOM      2  C   UNL     1       0.374  10.265  19.520  0.00  0.00    +0.000 A 
ATOM      3  C   UNL     1       0.159   9.745  20.794  0.00  0.00    +0.000 A 
ATOM      4  C   UNL     1       0.678   8.518  21.157  0.00  0.00    +0.000 A 
ATOM      5  C   UNL     1       1.478   7.798  20.302  0.00  0.00    +0.000 A 
ATOM      6  N   UNL     1       1.752   6.569  20.717  0.00  0.00    +0.000 NA
ATOM      7  C   UNL     1       2.562   5.854  19.928  0.00  0.00    +0.000 A 
ATOM      8  C   UNL     1       3.184   6.363  18.794  0.00  0.00    +0.000 A 
ATOM      9  N   UNL     1       2.855   7.610  18.330  0.00  0.00    +0.000 NA
ATOM     10  C   UNL     1       1.937   8.341  19.076  0.00  0.00    +0.000 A 
ATOM     11  C   UNL     1       1.345   9.590  18.713  0.00  0.00    +0.000 A 
BRANCH   8  12
ATOM     12  C   UNL     1       4.196   5.501  18.181  0.00  0.00    +0.000 A 
ATOM     13  C   UNL     1       3.977   4.472  17.217  0.00  0.00    +0.000 A 
ATOM     14  N   UNL     1       5.100   3.940  16.745  0.00  0.00    +0.000 NA
ATOM     15  N   UNL     1       6.058   4.618  17.395  0.00  0.00    +0.000 N 
ATOM     16  C   UNL     1       7.427   4.437  16.976  0.00  0.00    +0.000 C 
ATOM     17  C   UNL     1       5.568   5.499  18.331  0.00  0.00    +0.000 A 
ENDBRANCH   8  12
ENDBRANCH   1   2
BRANCH   1  22
ATOM     18  C   UNL     1      -4.075  11.645  18.120  0.00  0.00    +0.000 A 
ATOM     19  C   UNL     1      -4.126  10.840  16.991  0.00  0.00    +0.000 A 
ATOM     20  C   UNL     1      -2.958  10.263  16.521  0.00  0.00    +0.000 A 
ATOM     21  C   UNL     1      -1.738  10.511  17.179  0.00  0.00    +0.000 A 
ATOM     22  C   UNL     1      -1.656  11.278  18.371  0.00  0.00    +0.000 A 
ATOM     23  C   UNL     1      -2.862  11.858  18.807  0.00  0.00    +0.000 A 
BRANCH  18  25
ATOM     24  C   UNL     1      -5.487  12.207  19.929  0.00  0.00    +0.000 C 
ATOM     25  O   UNL     1      -5.299  12.116  18.523  0.00  0.00    +0.000 OA
ENDBRANCH  18  25
BRANCH  20  26
ATOM     26  O   UNL     1      -3.098   9.481  15.404  0.00  0.00    +0.000 OA
ATOM     27  C   UNL     1      -3.719  10.126  14.293  0.00  0.00    +0.000 C 
ENDBRANCH  20  26
ENDBRANCH   1  22
BRANCH   1  28
ATOM     28  C   UNL     1       0.101  12.744  19.594  0.00  0.00    +0.000 C 
BRANCH  28  29
ATOM     29  C   UNL     1      -0.437  13.059  20.980  0.00  0.00    +0.000 C 
ATOM     30  C   UNL     1      -0.898  13.329  22.170  0.00  0.00    +0.000 C 
BRANCH  30  31
ATOM     31  C   UNL     1      -1.588  13.777  23.351  0.00  0.00    +0.000 A 
ATOM     32  N   UNL     1      -0.918  14.711  24.066  0.00  0.00    +0.000 NA
ATOM     33  C   UNL     1      -1.566  15.237  25.132  0.00  0.00    +0.000 A 
ATOM     34  C   UNL     1      -2.861  14.903  25.497  0.00  0.00    +0.000 A 
ATOM     35  C   UNL     1      -3.518  13.925  24.761  0.00  0.00    +0.000 A 
ATOM     36  C   UNL     1      -2.859  13.275  23.710  0.00  0.00    +0.000 A 
BRANCH  36  37
ATOM     37  N   UNL     1      -3.581  12.324  22.961  0.00  0.00    +0.000 N 
ATOM     38  H   UNL     1      -2.986  11.757  22.363  0.00  0.00    +0.000 HD
ATOM     39  H   UNL     1      -4.345  12.742  22.436  0.00  0.00    +0.000 HD
ENDBRANCH  36  37
ENDBRANCH  30  31
ENDBRANCH  28  29
ENDBRANCH   1  28
TORSDOF 9
ENDMDL
MODEL 5
REMARK VINA RESULT:      -8.5      2.594      3.797
REMARK  Name = 
REMARK  12 active torsions:
REMARK  status: ('A' for Active; 'I' for Inactive)
REMARK    1  A    between atoms: C_1  and  O_2
REMARK    2  A    between atoms: O_2  and  C_3
REMARK    3  A    between atoms: C_5  and  O_6
REMARK    4  A    between atoms: O_6  and  C_7
REMARK    5  A    between atoms: C_9  and  N_10
REMARK    6  A    between atoms: N_10  and  C_11
REMARK    7  A    between atoms: N_10  and  C_21
REMARK    8  A    between atoms: C_11  and  C_12
REMARK    9  A    between atoms: C_13  and  C_14
REMARK   10  A    between atoms: C_19  and  N_20
REMARK   11  A    between atoms: C_27  and  C_28
REMARK   12  A    between atoms: N_31  and  C_32
REMARK                            x       y       z     vdW  Elec       q    Type
REMARK                         _______ _______ _______ _____ _____    ______ ____
ROOT
ATOM      1  N   UNL     1      -0.925  11.251  19.348  0.00  0.00    +0.000 N 
ENDROOT
BRANCH   1   2
ATOM      2  C   UNL     1       0.069  10.242  19.604  0.00  0.00    +0.000 A 
ATOM      3  C   UNL     1       0.209   9.749  20.899  0.00  0.00    +0.000 A 
ATOM      4  C   UNL     1       0.931   8.598  21.147  0.00  0.00    +0.000 A 
ATOM      5  C   UNL     1       1.591   7.936  20.138  0.00  0.00    +0.000 A 
ATOM      6  N   UNL     1       2.088   6.760  20.493  0.00  0.00    +0.000 NA
ATOM      7  C   UNL     1       2.772   6.107  19.545  0.00  0.00    +0.000 A 
ATOM      8  C   UNL     1       3.058   6.637  18.294  0.00  0.00    +0.000 A 
ATOM      9  N   UNL     1       2.494   7.824  17.904  0.00  0.00    +0.000 NA
ATOM     10  C   UNL     1       1.695   8.481  18.834  0.00  0.00    +0.000 A 
ATOM     11  C   UNL     1       0.900   9.646  18.603  0.00  0.00    +0.000 A 
BRANCH   8  12
ATOM     12  C   UNL     1       3.993   5.866  17.473  0.00  0.00    +0.000 A 
ATOM     13  C   UNL     1       4.039   4.448  17.327  0.00  0.00    +0.000 A 
ATOM     14  N   UNL     1       4.915   4.037  16.416  0.00  0.00    +0.000 NA
ATOM     15  N   UNL     1       5.446   5.182  15.961  0.00  0.00    +0.000 N 
ATOM     16  C   UNL     1       6.304   5.124  14.802  0.00  0.00    +0.000 C 
ATOM     17  C   UNL     1       4.993   6.299  16.625  0.00  0.00    +0.000 A 
ENDBRANCH   8  12
ENDBRANCH   1   2
BRANCH   1  22
ATOM     18  C   UNL     1      -2.821  10.700  16.117  0.00  0.00    +0.000 A 
ATOM     19  C   UNL     1      -4.084  11.168  16.450  0.00  0.00    +0.000 A 
ATOM     20  C   UNL     1      -4.320  11.607  17.742  0.00  0.00    +0.000 A 
ATOM     21  C   UNL     1      -3.290  11.559  18.700  0.00  0.00    +0.000 A 
ATOM     22  C   UNL     1      -1.970  11.145  18.380  0.00  0.00    +0.000 A 
ATOM     23  C   UNL     1      -1.775  10.694  17.062  0.00  0.00    +0.000 A 
BRANCH  18  25
ATOM     24  C   UNL     1      -3.902  10.038  14.122  0.00  0.00    +0.000 C 
ATOM     25  O   UNL     1      -2.690  10.344  14.798  0.00  0.00    +0.000 OA
ENDBRANCH  18  25
BRANCH  20  26
ATOM     26  O   UNL     1      -5.593  12.055  17.986  0.00  0.00    +0.000 OA
ATOM     27  C   UNL     1      -6.553  11.029  18.234  0.00  0.00    +0.000 C 
ENDBRANCH  20  26
ENDBRANCH   1  22
BRANCH   1  28
ATOM     28  C   UNL     1      -0.871  12.431  20.347  0.00  0.00    +0.000 C 
BRANCH  28  29
ATOM     29  C   UNL     1      -0.495  13.730  19.653  0.00  0.00    +0.000 C 
ATOM     30  C   UNL     1      -0.173  14.844  19.056  0.00  0.00    +0.000 C 
BRANCH  30  31
ATOM     31  C   UNL     1       0.116  16.189  18.631  0.00  0.00    +0.000 A 
ATOM     32  N   UNL     1       1.378  16.371  18.178  0.00  0.00    +0.000 NA
ATOM     33  C   UNL     1       1.670  17.593  17.675  0.00  0.00    +0.000 A 
ATOM     34  C   UNL     1       0.756  18.630  17.570  0.00  0.00    +0.000 A 
ATOM     35  C   UNL     1      -0.526  18.426  18.064  0.00  0.00    +0.000 A 
ATOM     36  C   UNL     1      -0.855  17.215  18.687  0.00  0.00    +0.000 A 
BRANCH  36  37
ATOM     37  N   UNL     1      -2.181  17.034  19.131  0.00  0.00    +0.000 N 
ATOM     38  H   UNL     1      -2.347  16.109  19.516  0.00  0.00    +0.000 HD
ATOM     39  H   UNL     1      -2.864  17.269  18.415  0.00  0.00    +0.000 HD
ENDBRANCH  36  37
ENDBRANCH  30  31
ENDBRANCH  28  29
ENDBRANCH   1  28
TORSDOF 9
ENDMDL
MODEL 6
REMARK VINA RESULT:      -8.5      2.292      4.142
REMARK  Name = 
REMARK  12 active torsions:
REMARK  status: ('A' for Active; 'I' for Inactive)
REMARK    1  A    between atoms: C_1  and  O_2
REMARK    2  A    between atoms: O_2  and  C_3
REMARK    3  A    between atoms: C_5  and  O_6
REMARK    4  A    between atoms: O_6  and  C_7
REMARK    5  A    between atoms: C_9  and  N_10
REMARK    6  A    between atoms: N_10  and  C_11
REMARK    7  A    between atoms: N_10  and  C_21
REMARK    8  A    between atoms: C_11  and  C_12
REMARK    9  A    between atoms: C_13  and  C_14
REMARK   10  A    between atoms: C_19  and  N_20
REMARK   11  A    between atoms: C_27  and  C_28
REMARK   12  A    between atoms: N_31  and  C_32
REMARK                            x       y       z     vdW  Elec       q    Type
REMARK                         _______ _______ _______ _____ _____    ______ ____
ROOT
ATOM      1  N   UNL     1      -0.345  10.759  19.799  0.00  0.00    +0.000 N 
ENDROOT
BRANCH   1   2
ATOM      2  C   UNL     1       0.587   9.669  19.916  0.00  0.00    +0.000 A 
ATOM      3  C   UNL     1       0.628   8.943  21.104  0.00  0.00    +0.000 A 
ATOM      4  C   UNL     1       1.282   7.729  21.173  0.00  0.00    +0.000 A 
ATOM      5  C   UNL     1       1.972   7.226  20.095  0.00  0.00    +0.000 A 
ATOM      6  N   UNL     1       2.395   5.979  20.253  0.00  0.00    +0.000 NA
ATOM      7  C   UNL     1       3.105   5.473  19.238  0.00  0.00    +0.000 A 
ATOM      8  C   UNL     1       3.489   6.204  18.121  0.00  0.00    +0.000 A 
ATOM      9  N   UNL     1       3.002   7.471  17.928  0.00  0.00    +0.000 NA
ATOM     10  C   UNL     1       2.177   7.990  18.920  0.00  0.00    +0.000 A 
ATOM     11  C   UNL     1       1.450   9.219  18.866  0.00  0.00    +0.000 A 
BRANCH   8  12
ATOM     12  C   UNL     1       4.437   5.545  17.222  0.00  0.00    +0.000 A 
ATOM     13  C   UNL     1       4.817   4.170  17.233  0.00  0.00    +0.000 A 
ATOM     14  N   UNL     1       5.602   3.828  16.216  0.00  0.00    +0.000 NA
ATOM     15  N   UNL     1       5.740   4.976  15.536  0.00  0.00    +0.000 N 
ATOM     16  C   UNL     1       6.377   4.930  14.242  0.00  0.00    +0.000 C 
ATOM     17  C   UNL     1       5.137   6.052  16.145  0.00  0.00    +0.000 A 
ENDBRANCH   8  12
ENDBRANCH   1   2
BRANCH   1  22
ATOM     18  C   UNL     1      -2.764  10.137  16.951  0.00  0.00    +0.000 A 
ATOM     19  C   UNL     1      -3.816  10.974  17.291  0.00  0.00    +0.000 A 
ATOM     20  C   UNL     1      -3.752  11.691  18.474  0.00  0.00    +0.000 A 
ATOM     21  C   UNL     1      -2.636  11.552  19.321  0.00  0.00    +0.000 A 
ATOM     22  C   UNL     1      -1.513  10.754  18.977  0.00  0.00    +0.000 A 
ATOM     23  C   UNL     1      -1.624  10.031  17.775  0.00  0.00    +0.000 A 
BRANCH  18  25
ATOM     24  C   UNL     1      -3.041  10.392  14.619  0.00  0.00    +0.000 C 
ATOM     25  O   UNL     1      -2.912   9.521  15.735  0.00  0.00    +0.000 OA
ENDBRANCH  18  25
BRANCH  20  26
ATOM     26  O   UNL     1      -4.833  12.495  18.731  0.00  0.00    +0.000 OA
ATOM     27  C   UNL     1      -5.890  11.867  19.454  0.00  0.00    +0.000 C 
ENDBRANCH  20  26
ENDBRANCH   1  22
BRANCH   1  28
ATOM     28  C   UNL     1      -0.062  11.915  20.787  0.00  0.00    +0.000 C 
BRANCH  28  29
ATOM     29  C   UNL     1       0.653  13.068  20.103  0.00  0.00    +0.000 C 
ATOM     30  C   UNL     1       1.267  14.058  19.517  0.00  0.00    +0.000 C 
BRANCH  30  31
ATOM     31  C   UNL     1       1.797  15.083  18.655  0.00  0.00    +0.000 A 
ATOM     32  N   UNL     1       1.100  16.242  18.675  0.00  0.00    +0.000 NA
ATOM     33  C   UNL     1       1.613  17.270  17.958  0.00  0.00    +0.000 A 
ATOM     34  C   UNL     1       2.804  17.207  17.252  0.00  0.00    +0.000 A 
ATOM     35  C   UNL     1       3.489  15.999  17.228  0.00  0.00    +0.000 A 
ATOM     36  C   UNL     1       2.953  14.875  17.869  0.00  0.00    +0.000 A 
BRANCH  36  37
ATOM     37  N   UNL     1       3.705  13.682  17.858  0.00  0.00    +0.000 N 
ATOM     38  H   UNL     1       3.538  13.101  18.675  0.00  0.00    +0.000 HD
ATOM     39  H   UNL     1       4.699  13.852  17.719  0.00  0.00    +0.000 HD
ENDBRANCH  36  37
ENDBRANCH  30  31
ENDBRANCH  28  29
ENDBRANCH   1  28
TORSDOF 9
ENDMDL
MODEL 7
REMARK VINA RESULT:      -8.4      1.776      2.995
REMARK  Name = 
REMARK  12 active torsions:
REMARK  status: ('A' for Active; 'I' for Inactive)
REMARK    1  A    between atoms: C_1  and  O_2
REMARK    2  A    between atoms: O_2  and  C_3
REMARK    3  A    between atoms: C_5  and  O_6
REMARK    4  A    between atoms: O_6  and  C_7
REMARK    5  A    between atoms: C_9  and  N_10
REMARK    6  A    between atoms: N_10  and  C_11
REMARK    7  A    between atoms: N_10  and  C_21
REMARK    8  A    between atoms: C_11  and  C_12
REMARK    9  A    between atoms: C_13  and  C_14
REMARK   10  A    between atoms: C_19  and  N_20
REMARK   11  A    between atoms: C_27  and  C_28
REMARK   12  A    between atoms: N_31  and  C_32
REMARK                            x       y       z     vdW  Elec       q    Type
REMARK                         _______ _______ _______ _____ _____    ______ ____
ROOT
ATOM      1  N   UNL     1       0.594   9.185  20.715  0.00  0.00    +0.000 N 
ENDROOT
BRANCH   1   2
ATOM      2  C   UNL     1       1.428   8.080  20.320  0.00  0.00    +0.000 A 
ATOM      3  C   UNL     1       1.289   6.863  20.981  0.00  0.00    +0.000 A 
ATOM      4  C   UNL     1       1.844   5.707  20.466  0.00  0.00    +0.000 A 
ATOM      5  C   UNL     1       2.606   5.728  19.322  0.00  0.00    +0.000 A 
ATOM      6  N   UNL     1       2.919   4.528  18.854  0.00  0.00    +0.000 NA
ATOM      7  C   UNL     1       3.696   4.511  17.764  0.00  0.00    +0.000 A 
ATOM      8  C   UNL     1       4.248   5.650  17.191  0.00  0.00    +0.000 A 
ATOM      9  N   UNL     1       3.877   6.892  17.635  0.00  0.00    +0.000 NA
ATOM     10  C   UNL     1       2.990   6.944  18.705  0.00  0.00    +0.000 A 
ATOM     11  C   UNL     1       2.363   8.113  19.236  0.00  0.00    +0.000 A 
BRANCH   8  12
ATOM     12  C   UNL     1       5.236   5.418  16.137  0.00  0.00    +0.000 A 
ATOM     13  C   UNL     1       6.638   5.676  16.203  0.00  0.00    +0.000 A 
ATOM     14  N   UNL     1       7.307   5.247  15.138  0.00  0.00    +0.000 NA
ATOM     15  N   UNL     1       6.349   4.706  14.371  0.00  0.00    +0.000 N 
ATOM     16  C   UNL     1       6.749   3.953  13.206  0.00  0.00    +0.000 C 
ATOM     17  C   UNL     1       5.082   4.863  14.882  0.00  0.00    +0.000 A 
ENDBRANCH   8  12
ENDBRANCH   1   2
BRANCH   1  22
ATOM     18  C   UNL     1      -1.275  11.244  18.144  0.00  0.00    +0.000 A 
ATOM     19  C   UNL     1      -0.444  12.346  18.011  0.00  0.00    +0.000 A 
ATOM     20  C   UNL     1       0.690  12.435  18.801  0.00  0.00    +0.000 A 
ATOM     21  C   UNL     1       0.976  11.421  19.736  0.00  0.00    +0.000 A 
ATOM     22  C   UNL     1       0.183  10.250  19.856  0.00  0.00    +0.000 A 
ATOM     23  C   UNL     1      -0.967  10.205  19.046  0.00  0.00    +0.000 A 
BRANCH  18  25
ATOM     24  C   UNL     1      -3.623  11.241  17.876  0.00  0.00    +0.000 C 
ATOM     25  O   UNL     1      -2.336  11.238  17.274  0.00  0.00    +0.000 OA
ENDBRANCH  18  25
BRANCH  20  26
ATOM     26  O   UNL     1       1.457  13.554  18.604  0.00  0.00    +0.000 OA
ATOM     27  C   UNL     1       1.490  14.461  19.705  0.00  0.00    +0.000 C 
ENDBRANCH  20  26
ENDBRANCH   1  22
BRANCH   1  28
ATOM     28  C   UNL     1       0.026   9.041  22.147  0.00  0.00    +0.000 C 
BRANCH  28  29
ATOM     29  C   UNL     1      -0.705  10.300  22.584  0.00  0.00    +0.000 C 
ATOM     30  C   UNL     1      -1.331  11.381  22.958  0.00  0.00    +0.000 C 
BRANCH  30  31
ATOM     31  C   UNL     1      -2.241  12.415  23.379  0.00  0.00    +0.000 A 
ATOM     32  N   UNL     1      -3.448  11.961  23.789  0.00  0.00    +0.000 NA
ATOM     33  C   UNL     1      -4.304  12.883  24.287  0.00  0.00    +0.000 A 
ATOM     34  C   UNL     1      -4.001  14.229  24.430  0.00  0.00    +0.000 A 
ATOM     35  C   UNL     1      -2.765  14.673  23.980  0.00  0.00    +0.000 A 
ATOM     36  C   UNL     1      -1.879  13.781  23.364  0.00  0.00    +0.000 A 
BRANCH  36  37
ATOM     37  N   UNL     1      -0.616  14.266  22.966  0.00  0.00    +0.000 N 
ATOM     38  H   UNL     1      -0.652  15.215  22.605  0.00  0.00    +0.000 HD
ATOM     39  H   UNL     1      -0.146  13.638  22.318  0.00  0.00    +0.000 HD
ENDBRANCH  36  37
ENDBRANCH  30  31
ENDBRANCH  28  29
ENDBRANCH   1  28
TORSDOF 9
ENDMDL
MODEL 8
REMARK VINA RESULT:      -8.3      2.416      3.552
REMARK  Name = 
REMARK  12 active torsions:
REMARK  status: ('A' for Active; 'I' for Inactive)
REMARK    1  A    between atoms: C_1  and  O_2
REMARK    2  A    between atoms: O_2  and  C_3
REMARK    3  A    between atoms: C_5  and  O_6
REMARK    4  A    between atoms: O_6  and  C_7
REMARK    5  A    between atoms: C_9  and  N_10
REMARK    6  A    between atoms: N_10  and  C_11
REMARK    7  A    between atoms: N_10  and  C_21
REMARK    8  A    between atoms: C_11  and  C_12
REMARK    9  A    between atoms: C_13  and  C_14
REMARK   10  A    between atoms: C_19  and  N_20
REMARK   11  A    between atoms: C_27  and  C_28
REMARK   12  A    between atoms: N_31  and  C_32
REMARK                            x       y       z     vdW  Elec       q    Type
REMARK                         _______ _______ _______ _____ _____    ______ ____
ROOT
ATOM      1  N   UNL     1      -0.465  11.111  19.697  0.00  0.00    +0.000 N 
ENDROOT
BRANCH   1   2
ATOM      2  C   UNL     1       0.439  10.004  19.862  0.00  0.00    +0.000 A 
ATOM      3  C   UNL     1       0.464   9.332  21.082  0.00  0.00    +0.000 A 
ATOM      4  C   UNL     1       1.087   8.105  21.204  0.00  0.00    +0.000 A 
ATOM      5  C   UNL     1       1.760   7.536  20.148  0.00  0.00    +0.000 A 
ATOM      6  N   UNL     1       2.150   6.287  20.361  0.00  0.00    +0.000 NA
ATOM      7  C   UNL     1       2.844   5.716  19.369  0.00  0.00    +0.000 A 
ATOM      8  C   UNL     1       3.243   6.386  18.220  0.00  0.00    +0.000 A 
ATOM      9  N   UNL     1       2.789   7.655  17.970  0.00  0.00    +0.000 NA
ATOM     10  C   UNL     1       1.981   8.241  18.939  0.00  0.00    +0.000 A 
ATOM     11  C   UNL     1       1.286   9.484  18.831  0.00  0.00    +0.000 A 
BRANCH   8  12
ATOM     12  C   UNL     1       4.170   5.662  17.349  0.00  0.00    +0.000 A 
ATOM     13  C   UNL     1       4.257   4.249  17.173  0.00  0.00    +0.000 A 
ATOM     14  N   UNL     1       5.110   3.884  16.221  0.00  0.00    +0.000 NA
ATOM     15  N   UNL     1       5.586   5.054  15.770  0.00  0.00    +0.000 N 
ATOM     16  C   UNL     1       6.401   5.047  14.579  0.00  0.00    +0.000 C 
ATOM     17  C   UNL     1       5.123   6.143  16.473  0.00  0.00    +0.000 A 
ENDBRANCH   8  12
ENDBRANCH   1   2
BRANCH   1  22
ATOM     18  C   UNL     1      -3.878  11.698  18.164  0.00  0.00    +0.000 A 
ATOM     19  C   UNL     1      -3.782  10.975  16.984  0.00  0.00    +0.000 A 
ATOM     20  C   UNL     1      -2.586  10.350  16.672  0.00  0.00    +0.000 A 
ATOM     21  C   UNL     1      -1.485  10.466  17.541  0.00  0.00    +0.000 A 
ATOM     22  C   UNL     1      -1.564  11.144  18.786  0.00  0.00    +0.000 A 
ATOM     23  C   UNL     1      -2.791  11.778  19.059  0.00  0.00    +0.000 A 
BRANCH  18  25
ATOM     24  C   UNL     1      -6.015  11.399  19.128  0.00  0.00    +0.000 C 
ATOM     25  O   UNL     1      -5.123  12.227  18.394  0.00  0.00    +0.000 OA
ENDBRANCH  18  25
BRANCH  20  26
ATOM     26  O   UNL     1      -2.579   9.656  15.490  0.00  0.00    +0.000 OA
ATOM     27  C   UNL     1      -3.483  10.145  14.501  0.00  0.00    +0.000 C 
ENDBRANCH  20  26
ENDBRANCH   1  22
BRANCH   1  28
ATOM     28  C   UNL     1      -0.244  12.240  20.732  0.00  0.00    +0.000 C 
BRANCH  28  29
ATOM     29  C   UNL     1       0.131  13.549  20.056  0.00  0.00    +0.000 C 
ATOM     30  C   UNL     1       0.453  14.671  19.476  0.00  0.00    +0.000 C 
BRANCH  30  31
ATOM     31  C   UNL     1       0.621  15.843  18.655  0.00  0.00    +0.000 A 
ATOM     32  N   UNL     1      -0.536  16.473  18.343  0.00  0.00    +0.000 NA
ATOM     33  C   UNL     1      -0.426  17.634  17.656  0.00  0.00    +0.000 A 
ATOM     34  C   UNL     1       0.781  18.215  17.299  0.00  0.00    +0.000 A 
ATOM     35  C   UNL     1       1.952  17.537  17.611  0.00  0.00    +0.000 A 
ATOM     36  C   UNL     1       1.895  16.283  18.231  0.00  0.00    +0.000 A 
BRANCH  36  37
ATOM     37  N   UNL     1       3.109  15.653  18.572  0.00  0.00    +0.000 N 
ATOM     38  H   UNL     1       3.868  16.312  18.726  0.00  0.00    +0.000 HD
ATOM     39  H   UNL     1       3.373  14.932  17.905  0.00  0.00    +0.000 HD
ENDBRANCH  36  37
ENDBRANCH  30  31
ENDBRANCH  28  29
ENDBRANCH   1  28
TORSDOF 9
ENDMDL
MODEL 9
REMARK VINA RESULT:      -8.3      2.359      4.233
REMARK  Name = 
REMARK  12 active torsions:
REMARK  status: ('A' for Active; 'I' for Inactive)
REMARK    1  A    between atoms: C_1  and  O_2
REMARK    2  A    between atoms: O_2  and  C_3
REMARK    3  A    between atoms: C_5  and  O_6
REMARK    4  A    between atoms: O_6  and  C_7
REMARK    5  A    between atoms: C_9  and  N_10
REMARK    6  A    between atoms: N_10  and  C_11
REMARK    7  A    between atoms: N_10  and  C_21
REMARK    8  A    between atoms: C_11  and  C_12
REMARK    9  A    between atoms: C_13  and  C_14
REMARK   10  A    between atoms: C_19  and  N_20
REMARK   11  A    between atoms: C_27  and  C_28
REMARK   12  A    between atoms: N_31  and  C_32
REMARK                            x       y       z     vdW  Elec       q    Type
REMARK                         _______ _______ _______ _____ _____    ______ ____
ROOT
ATOM      1  N   UNL     1      -1.161  11.634  19.361  0.00  0.00    +0.000 N 
ENDROOT
BRANCH   1   2
ATOM      2  C   UNL     1      -0.191  10.614  19.658  0.00  0.00    +0.000 A 
ATOM      3  C   UNL     1      -0.104  10.127  20.960  0.00  0.00    +0.000 A 
ATOM      4  C   UNL     1       0.593   8.967  21.240  0.00  0.00    +0.000 A 
ATOM      5  C   UNL     1       1.278   8.290  20.259  0.00  0.00    +0.000 A 
ATOM      6  N   UNL     1       1.745   7.109  20.638  0.00  0.00    +0.000 NA
ATOM      7  C   UNL     1       2.453   6.440  19.720  0.00  0.00    +0.000 A 
ATOM      8  C   UNL     1       2.791   6.959  18.476  0.00  0.00    +0.000 A 
ATOM      9  N   UNL     1       2.259   8.151  18.060  0.00  0.00    +0.000 NA
ATOM     10  C   UNL     1       1.436   8.825  18.956  0.00  0.00    +0.000 A 
ATOM     11  C   UNL     1       0.667   9.999  18.690  0.00  0.00    +0.000 A 
BRANCH   8  12
ATOM     12  C   UNL     1       3.744   6.170  17.694  0.00  0.00    +0.000 A 
ATOM     13  C   UNL     1       3.836   4.747  17.634  0.00  0.00    +0.000 A 
ATOM     14  N   UNL     1       4.717   4.309  16.740  0.00  0.00    +0.000 NA
ATOM     15  N   UNL     1       5.205   5.441  16.210  0.00  0.00    +0.000 N 
ATOM     16  C   UNL     1       6.054   5.341  15.047  0.00  0.00    +0.000 C 
ATOM     17  C   UNL     1       4.721   6.581  16.809  0.00  0.00    +0.000 A 
ENDBRANCH   8  12
ENDBRANCH   1   2
BRANCH   1  22
ATOM     18  C   UNL     1      -3.168  11.209  16.177  0.00  0.00    +0.000 A 
ATOM     19  C   UNL     1      -4.459  11.440  16.628  0.00  0.00    +0.000 A 
ATOM     20  C   UNL     1      -4.670  11.677  17.976  0.00  0.00    +0.000 A 
ATOM     21  C   UNL     1      -3.583  11.665  18.870  0.00  0.00    +0.000 A 
ATOM     22  C   UNL     1      -2.241  11.494  18.437  0.00  0.00    +0.000 A 
ATOM     23  C   UNL     1      -2.071  11.242  17.063  0.00  0.00    +0.000 A 
BRANCH  18  25
ATOM     24  C   UNL     1      -3.698   9.874  14.301  0.00  0.00    +0.000 C 
ATOM     25  O   UNL     1      -3.074  11.041  14.819  0.00  0.00    +0.000 OA
ENDBRANCH  18  25
BRANCH  20  26
ATOM     26  O   UNL     1      -5.975  11.898  18.335  0.00  0.00    +0.000 OA
ATOM     27  C   UNL     1      -6.624  10.788  18.954  0.00  0.00    +0.000 C 
ENDBRANCH  20  26
ENDBRANCH   1  22
BRANCH   1  28
ATOM     28  C   UNL     1      -1.035  12.881  20.268  0.00  0.00    +0.000 C 
BRANCH  28  29
ATOM     29  C   UNL     1       0.179  13.717  19.897  0.00  0.00    +0.000 C 
ATOM     30  C   UNL     1       1.220  14.436  19.580  0.00  0.00    +0.000 C 
BRANCH  30  31
ATOM     31  C   UNL     1       2.460  15.002  19.116  0.00  0.00    +0.000 A 
ATOM     32  N   UNL     1       2.735  16.228  19.619  0.00  0.00    +0.000 NA
ATOM     33  C   UNL     1       3.935  16.761  19.292  0.00  0.00    +0.000 A 
ATOM     34  C   UNL     1       4.888  16.117  18.517  0.00  0.00    +0.000 A 
ATOM     35  C   UNL     1       4.572  14.870  17.994  0.00  0.00    +0.000 A 
ATOM     36  C   UNL     1       3.306  14.314  18.216  0.00  0.00    +0.000 A 
BRANCH  36  37
ATOM     37  N   UNL     1       3.046  13.026  17.706  0.00  0.00    +0.000 N 
ATOM     38  H   UNL     1       2.151  12.962  17.228  0.00  0.00    +0.000 HD
ATOM     39  H   UNL     1       3.143  12.301  18.413  0.00  0.00    +0.000 HD
ENDBRANCH  36  37
ENDBRANCH  30  31
ENDBRANCH  28  29
ENDBRANCH   1  28
TORSDOF 9
ENDMDL
