MODEL 1
REMARK VINA RESULT:      -8.7      0.000      0.000
REMARK  Name = 
REMARK  7 active torsions:
REMARK  status: ('A' for Active; 'I' for Inactive)
REMARK    1  A    between atoms: C_1  and  C_2
REMARK    2  A    between atoms: C_7  and  C_8
REMARK    3  A    between atoms: N_10  and  C_11
REMARK    4  A    between atoms: C_11  and  C_12
REMARK    5  A    between atoms: C_15  and  C_16
REMARK    6  A    between atoms: C_25  and  N_26
REMARK    7  A    between atoms: C_28  and  C_29
REMARK                            x       y       z     vdW  Elec       q    Type
REMARK                         _______ _______ _______ _____ _____    ______ ____
ROOT
ATOM      1  C   UNL     1      -0.056  11.840  20.696  0.00  0.00    +0.000 C 
ATOM      2  O   UNL     1       0.987  12.272  21.161  0.00  0.00    +0.000 OA
ATOM      3  N   UNL     1      -0.042  11.132  19.522  0.00  0.00    +0.000 N 
ATOM      4  H   UNL     1      -0.924  10.756  19.153  0.00  0.00    +0.000 HD
ENDROOT
BRANCH   1  11
ATOM      5  C   UNL     1      -7.015  13.499  23.687  0.00  0.00    +0.000 C 
ATOM      6  C   UNL     1      -5.612  13.020  23.425  0.00  0.00    +0.000 A 
ATOM      7  N   UNL     1      -4.982  12.396  24.456  0.00  0.00    +0.000 NA
ATOM      8  N   UNL     1      -3.755  11.922  24.346  0.00  0.00    +0.000 NA
ATOM      9  C   UNL     1      -3.081  12.063  23.196  0.00  0.00    +0.000 A 
ATOM     10  S   UNL     1      -1.546  11.515  22.988  0.00  0.00    +0.000 S 
ATOM     11  C   UNL     1      -1.365  12.048  21.411  0.00  0.00    +0.000 A 
ATOM     12  C   UNL     1      -2.580  12.694  21.010  0.00  0.00    +0.000 A 
ATOM     13  C   UNL     1      -3.590  12.691  22.059  0.00  0.00    +0.000 A 
ATOM     14  C   UNL     1      -4.946  13.183  22.165  0.00  0.00    +0.000 A 
ATOM     15  C   UNL     1      -5.767  13.842  21.076  0.00  0.00    +0.000 C 
BRANCH  12  16
ATOM     16  N   UNL     1      -2.702  13.288  19.721  0.00  0.00    +0.000 N 
ATOM     17  H   UNL     1      -3.601  13.309  19.227  0.00  0.00    +0.000 HD
ATOM     18  H   UNL     1      -1.922  13.640  19.175  0.00  0.00    +0.000 HD
ENDBRANCH  12  16
ENDBRANCH   1  11
BRANCH   3  19
ATOM     19  C   UNL     1       1.137  10.791  18.745  0.00  0.00    +0.000 C 
BRANCH  19  20
ATOM     20  C   UNL     1       1.549   9.352  18.990  0.00  0.00    +0.000 A 
ATOM     21  C   UNL     1       2.124   8.596  17.962  0.00  0.00    +0.000 A 
ATOM     22  C   UNL     1       2.532   7.278  18.188  0.00  0.00    +0.000 A 
ATOM     23  C   UNL     1       2.354   6.661  19.445  0.00  0.00    +0.000 A 
ATOM     24  C   UNL     1       1.769   7.427  20.475  0.00  0.00    +0.000 A 
ATOM     25  C   UNL     1       1.387   8.755  20.255  0.00  0.00    +0.000 A 
BRANCH  23  26
ATOM     26  C   UNL     1       2.789   5.238  19.662  0.00  0.00    +0.000 A 
ATOM     27  C   UNL     1       4.092   4.833  19.302  0.00  0.00    +0.000 A 
ATOM     28  C   UNL     1       4.511   3.516  19.491  0.00  0.00    +0.000 A 
ATOM     29  C   UNL     1       3.626   2.590  20.030  0.00  0.00    +0.000 A 
ATOM     30  N   UNL     1       2.372   2.974  20.375  0.00  0.00    +0.000 NA
ATOM     31  C   UNL     1       1.934   4.253  20.218  0.00  0.00    +0.000 A 
ATOM     32  F   UNL     1       0.650   4.528  20.551  0.00  0.00    +0.000 F 
ENDBRANCH  23  26
ENDBRANCH  19  20
ENDBRANCH   3  19
TORSDOF 5
ENDMDL
MODEL 2
REMARK VINA RESULT:      -8.7      1.022      1.265
REMARK  Name = 
REMARK  7 active torsions:
REMARK  status: ('A' for Active; 'I' for Inactive)
REMARK    1  A    between atoms: C_1  and  C_2
REMARK    2  A    between atoms: C_7  and  C_8
REMARK    3  A    between atoms: N_10  and  C_11
REMARK    4  A    between atoms: C_11  and  C_12
REMARK    5  A    between atoms: C_15  and  C_16
REMARK    6  A    between atoms: C_25  and  N_26
REMARK    7  A    between atoms: C_28  and  C_29
REMARK                            x       y       z     vdW  Elec       q    Type
REMARK                         _______ _______ _______ _____ _____    ______ ____
ROOT
ATOM      1  C   UNL     1      -0.203  11.940  20.793  0.00  0.00    +0.000 C 
ATOM      2  O   UNL     1       0.822  12.399  21.272  0.00  0.00    +0.000 OA
ATOM      3  N   UNL     1      -0.154  11.222  19.626  0.00  0.00    +0.000 N 
ATOM      4  H   UNL     1      -1.021  10.824  19.246  0.00  0.00    +0.000 HD
ENDROOT
BRANCH   1  11
ATOM      5  C   UNL     1      -7.255  13.451  23.644  0.00  0.00    +0.000 C 
ATOM      6  C   UNL     1      -5.833  13.012  23.414  0.00  0.00    +0.000 A 
ATOM      7  N   UNL     1      -5.196  12.442  24.471  0.00  0.00    +0.000 NA
ATOM      8  N   UNL     1      -3.952  12.007  24.392  0.00  0.00    +0.000 NA
ATOM      9  C   UNL     1      -3.268  12.136  23.246  0.00  0.00    +0.000 A 
ATOM     10  S   UNL     1      -1.712  11.634  23.076  0.00  0.00    +0.000 S 
ATOM     11  C   UNL     1      -1.528  12.125  21.485  0.00  0.00    +0.000 A 
ATOM     12  C   UNL     1      -2.758  12.716  21.049  0.00  0.00    +0.000 A 
ATOM     13  C   UNL     1      -3.783  12.710  22.085  0.00  0.00    +0.000 A 
ATOM     14  C   UNL     1      -5.155  13.159  22.158  0.00  0.00    +0.000 A 
ATOM     15  C   UNL     1      -5.983  13.756  21.039  0.00  0.00    +0.000 C 
BRANCH  12  16
ATOM     16  N   UNL     1      -2.883  13.266  19.740  0.00  0.00    +0.000 N 
ATOM     17  H   UNL     1      -2.112  13.787  19.305  0.00  0.00    +0.000 HD
ATOM     18  H   UNL     1      -3.738  13.262  19.195  0.00  0.00    +0.000 HD
ENDBRANCH  12  16
ENDBRANCH   1  11
BRANCH   3  19
ATOM     19  C   UNL     1       1.045  10.902  18.871  0.00  0.00    +0.000 C 
BRANCH  19  20
ATOM     20  C   UNL     1       1.449   9.455  19.087  0.00  0.00    +0.000 A 
ATOM     21  C   UNL     1       2.016   8.716  18.043  0.00  0.00    +0.000 A 
ATOM     22  C   UNL     1       2.417   7.391  18.242  0.00  0.00    +0.000 A 
ATOM     23  C   UNL     1       2.239   6.752  19.487  0.00  0.00    +0.000 A 
ATOM     24  C   UNL     1       1.662   7.501  20.534  0.00  0.00    +0.000 A 
ATOM     25  C   UNL     1       1.288   8.835  20.341  0.00  0.00    +0.000 A 
BRANCH  23  26
ATOM     26  C   UNL     1       2.666   5.322  19.676  0.00  0.00    +0.000 A 
ATOM     27  C   UNL     1       1.735   4.357  20.119  0.00  0.00    +0.000 A 
ATOM     28  C   UNL     1       2.115   3.028  20.305  0.00  0.00    +0.000 A 
ATOM     29  C   UNL     1       3.431   2.654  20.061  0.00  0.00    +0.000 A 
ATOM     30  N   UNL     1       4.329   3.578  19.638  0.00  0.00    +0.000 NA
ATOM     31  C   UNL     1       3.991   4.880  19.432  0.00  0.00    +0.000 A 
ATOM     32  F   UNL     1       4.969   5.736  19.051  0.00  0.00    +0.000 F 
ENDBRANCH  23  26
ENDBRANCH  19  20
ENDBRANCH   3  19
TORSDOF 5
ENDMDL
MODEL 3
REMARK VINA RESULT:      -8.6      3.474      4.887
REMARK  Name = 
REMARK  7 active torsions:
REMARK  status: ('A' for Active; 'I' for Inactive)
REMARK    1  A    between atoms: C_1  and  C_2
REMARK    2  A    between atoms: C_7  and  C_8
REMARK    3  A    between atoms: N_10  and  C_11
REMARK    4  A    between atoms: C_11  and  C_12
REMARK    5  A    between atoms: C_15  and  C_16
REMARK    6  A    between atoms: C_25  and  N_26
REMARK    7  A    between atoms: C_28  and  C_29
REMARK                            x       y       z     vdW  Elec       q    Type
REMARK                         _______ _______ _______ _____ _____    ______ ____
ROOT
ATOM      1  C   UNL     1       0.240   8.737  21.348  0.00  0.00    +0.000 C 
ATOM      2  O   UNL     1      -0.740   8.072  21.644  0.00  0.00    +0.000 OA
ATOM      3  N   UNL     1       1.402   8.116  20.969  0.00  0.00    +0.000 N 
ATOM      4  H   UNL     1       2.212   8.688  20.702  0.00  0.00    +0.000 HD
ENDROOT
BRANCH   1  11
ATOM      5  C   UNL     1      -0.731  16.398  22.055  0.00  0.00    +0.000 C 
ATOM      6  C   UNL     1      -0.337  15.006  21.639  0.00  0.00    +0.000 A 
ATOM      7  N   UNL     1       0.430  14.901  20.521  0.00  0.00    +0.000 NA
ATOM      8  N   UNL     1       0.849  13.736  20.062  0.00  0.00    +0.000 NA
ATOM      9  C   UNL     1       0.505  12.603  20.692  0.00  0.00    +0.000 A 
ATOM     10  S   UNL     1       0.973  11.117  20.172  0.00  0.00    +0.000 S 
ATOM     11  C   UNL     1       0.185  10.242  21.364  0.00  0.00    +0.000 A 
ATOM     12  C   UNL     1      -0.486  11.164  22.232  0.00  0.00    +0.000 A 
ATOM     13  C   UNL     1      -0.286  12.552  21.840  0.00  0.00    +0.000 A 
ATOM     14  C   UNL     1      -0.720  13.828  22.364  0.00  0.00    +0.000 A 
ATOM     15  C   UNL     1      -1.526  14.073  23.623  0.00  0.00    +0.000 C 
BRANCH  12  16
ATOM     16  N   UNL     1      -1.278  10.699  23.321  0.00  0.00    +0.000 N 
ATOM     17  H   UNL     1      -1.084   9.799  23.776  0.00  0.00    +0.000 HD
ATOM     18  H   UNL     1      -2.117  11.159  23.659  0.00  0.00    +0.000 HD
ENDBRANCH  12  16
ENDBRANCH   1  11
BRANCH   3  19
ATOM     19  C   UNL     1       1.601   6.682  20.841  0.00  0.00    +0.000 C 
BRANCH  19  20
ATOM     20  C   UNL     1       2.585   6.371  19.730  0.00  0.00    +0.000 A 
ATOM     21  C   UNL     1       3.381   5.220  19.793  0.00  0.00    +0.000 A 
ATOM     22  C   UNL     1       4.271   4.911  18.759  0.00  0.00    +0.000 A 
ATOM     23  C   UNL     1       4.414   5.757  17.639  0.00  0.00    +0.000 A 
ATOM     24  C   UNL     1       3.612   6.917  17.584  0.00  0.00    +0.000 A 
ATOM     25  C   UNL     1       2.703   7.210  18.606  0.00  0.00    +0.000 A 
BRANCH  23  26
ATOM     26  C   UNL     1       5.386   5.411  16.544  0.00  0.00    +0.000 A 
ATOM     27  C   UNL     1       5.029   4.474  15.550  0.00  0.00    +0.000 A 
ATOM     28  C   UNL     1       5.919   4.137  14.531  0.00  0.00    +0.000 A 
ATOM     29  C   UNL     1       7.179   4.724  14.504  0.00  0.00    +0.000 A 
ATOM     30  N   UNL     1       7.527   5.622  15.459  0.00  0.00    +0.000 NA
ATOM     31  C   UNL     1       6.679   5.985  16.459  0.00  0.00    +0.000 A 
ATOM     32  F   UNL     1       7.135   6.856  17.391  0.00  0.00    +0.000 F 
ENDBRANCH  23  26
ENDBRANCH  19  20
ENDBRANCH   3  19
TORSDOF 5
ENDMDL
MODEL 4
REMARK VINA RESULT:      -8.4      3.309      4.631
REMARK  Name = 
REMARK  7 active torsions:
REMARK  status: ('A' for Active; 'I' for Inactive)
REMARK    1  A    between atoms: C_1  and  C_2
REMARK    2  A    between atoms: C_7  and  C_8
REMARK    3  A    between atoms: N_10  and  C_11
REMARK    4  A    between atoms: C_11  and  C_12
REMARK    5  A    between atoms: C_15  and  C_16
REMARK    6  A    between atoms: C_25  and  N_26
REMARK    7  A    between atoms: C_28  and  C_29
REMARK                            x       y       z     vdW  Elec       q    Type
REMARK                         _______ _______ _______ _____ _____    ______ ____
ROOT
ATOM      1  C   UNL     1       0.842   9.863  21.558  0.00  0.00    +0.000 C 
ATOM      2  O   UNL     1       1.009   9.585  22.735  0.00  0.00    +0.000 OA
ATOM      3  N   UNL     1       0.984   8.897  20.597  0.00  0.00    +0.000 N 
ATOM      4  H   UNL     1       0.819   9.140  19.613  0.00  0.00    +0.000 HD
ENDROOT
BRANCH   1  11
ATOM      5  C   UNL     1      -1.842  16.989  20.087  0.00  0.00    +0.000 C 
ATOM      6  C   UNL     1      -1.141  15.656  20.067  0.00  0.00    +0.000 A 
ATOM      7  N   UNL     1      -0.363  15.397  18.982  0.00  0.00    +0.000 NA
ATOM      8  N   UNL     1       0.311  14.270  18.853  0.00  0.00    +0.000 NA
ATOM      9  C   UNL     1       0.229  13.326  19.802  0.00  0.00    +0.000 A 
ATOM     10  S   UNL     1       1.024  11.891  19.704  0.00  0.00    +0.000 S 
ATOM     11  C   UNL     1       0.447  11.256  21.143  0.00  0.00    +0.000 A 
ATOM     12  C   UNL     1      -0.420  12.223  21.748  0.00  0.00    +0.000 A 
ATOM     13  C   UNL     1      -0.537  13.444  20.962  0.00  0.00    +0.000 A 
ATOM     14  C   UNL     1      -1.252  14.691  21.121  0.00  0.00    +0.000 A 
ATOM     15  C   UNL     1      -2.100  15.113  22.303  0.00  0.00    +0.000 C 
BRANCH  12  16
ATOM     16  N   UNL     1      -1.094  11.938  22.971  0.00  0.00    +0.000 N 
ATOM     17  H   UNL     1      -2.116  11.997  23.043  0.00  0.00    +0.000 HD
ATOM     18  H   UNL     1      -0.628  11.750  23.853  0.00  0.00    +0.000 HD
ENDBRANCH  12  16
ENDBRANCH   1  11
BRANCH   3  19
ATOM     19  C   UNL     1       1.298   7.497  20.834  0.00  0.00    +0.000 C 
BRANCH  19  20
ATOM     20  C   UNL     1       2.293   6.986  19.809  0.00  0.00    +0.000 A 
ATOM     21  C   UNL     1       2.528   7.706  18.632  0.00  0.00    +0.000 A 
ATOM     22  C   UNL     1       3.463   7.257  17.694  0.00  0.00    +0.000 A 
ATOM     23  C   UNL     1       4.179   6.057  17.892  0.00  0.00    +0.000 A 
ATOM     24  C   UNL     1       3.934   5.333  19.079  0.00  0.00    +0.000 A 
ATOM     25  C   UNL     1       3.018   5.799  20.028  0.00  0.00    +0.000 A 
BRANCH  23  26
ATOM     26  C   UNL     1       5.172   5.585  16.866  0.00  0.00    +0.000 A 
ATOM     27  C   UNL     1       4.909   4.425  16.105  0.00  0.00    +0.000 A 
ATOM     28  C   UNL     1       5.821   3.971  15.153  0.00  0.00    +0.000 A 
ATOM     29  C   UNL     1       7.010   4.665  14.962  0.00  0.00    +0.000 A 
ATOM     30  N   UNL     1       7.269   5.778  15.693  0.00  0.00    +0.000 NA
ATOM     31  C   UNL     1       6.396   6.258  16.620  0.00  0.00    +0.000 A 
ATOM     32  F   UNL     1       6.764   7.351  17.330  0.00  0.00    +0.000 F 
ENDBRANCH  23  26
ENDBRANCH  19  20
ENDBRANCH   3  19
TORSDOF 5
ENDMDL
MODEL 5
REMARK VINA RESULT:      -8.4      4.125      5.487
REMARK  Name = 
REMARK  7 active torsions:
REMARK  status: ('A' for Active; 'I' for Inactive)
REMARK    1  A    between atoms: C_1  and  C_2
REMARK    2  A    between atoms: C_7  and  C_8
REMARK    3  A    between atoms: N_10  and  C_11
REMARK    4  A    between atoms: C_11  and  C_12
REMARK    5  A    between atoms: C_15  and  C_16
REMARK    6  A    between atoms: C_25  and  N_26
REMARK    7  A    between atoms: C_28  and  C_29
REMARK                            x       y       z     vdW  Elec       q    Type
REMARK                         _______ _______ _______ _____ _____    ______ ____
ROOT
ATOM      1  C   UNL     1       0.189  10.828  19.305  0.00  0.00    +0.000 C 
ATOM      2  O   UNL     1      -0.857  10.349  18.899  0.00  0.00    +0.000 OA
ATOM      3  N   UNL     1       1.116  10.028  19.921  0.00  0.00    +0.000 N 
ATOM      4  H   UNL     1       2.002  10.439  20.239  0.00  0.00    +0.000 HD
ENDROOT
BRANCH   1  11
ATOM      5  C   UNL     1       0.845  18.490  18.307  0.00  0.00    +0.000 C 
ATOM      6  C   UNL     1       1.069  17.006  18.428  0.00  0.00    +0.000 A 
ATOM      7  N   UNL     1       2.323  16.557  18.152  0.00  0.00    +0.000 NA
ATOM      8  N   UNL     1       2.647  15.281  18.233  0.00  0.00    +0.000 NA
ATOM      9  C   UNL     1       1.722  14.374  18.581  0.00  0.00    +0.000 A 
ATOM     10  S   UNL     1       2.045  12.767  18.687  0.00  0.00    +0.000 S 
ATOM     11  C   UNL     1       0.496  12.290  19.112  0.00  0.00    +0.000 A 
ATOM     12  C   UNL     1      -0.333  13.457  19.183  0.00  0.00    +0.000 A 
ATOM     13  C   UNL     1       0.395  14.682  18.880  0.00  0.00    +0.000 A 
ATOM     14  C   UNL     1       0.045  16.084  18.824  0.00  0.00    +0.000 A 
ATOM     15  C   UNL     1      -1.295  16.705  19.160  0.00  0.00    +0.000 C 
BRANCH  12  16
ATOM     16  N   UNL     1      -1.721  13.351  19.484  0.00  0.00    +0.000 N 
ATOM     17  H   UNL     1      -2.111  12.502  19.909  0.00  0.00    +0.000 HD
ATOM     18  H   UNL     1      -2.418  14.043  19.230  0.00  0.00    +0.000 HD
ENDBRANCH  12  16
ENDBRANCH   1  11
BRANCH   3  19
ATOM     19  C   UNL     1       1.002   8.594  20.129  0.00  0.00    +0.000 C 
BRANCH  19  20
ATOM     20  C   UNL     1       2.041   7.846  19.314  0.00  0.00    +0.000 A 
ATOM     21  C   UNL     1       2.518   8.384  18.113  0.00  0.00    +0.000 A 
ATOM     22  C   UNL     1       3.495   7.715  17.370  0.00  0.00    +0.000 A 
ATOM     23  C   UNL     1       4.011   6.471  17.791  0.00  0.00    +0.000 A 
ATOM     24  C   UNL     1       3.522   5.932  19.000  0.00  0.00    +0.000 A 
ATOM     25  C   UNL     1       2.564   6.616  19.756  0.00  0.00    +0.000 A 
BRANCH  23  26
ATOM     26  C   UNL     1       5.053   5.762  16.970  0.00  0.00    +0.000 A 
ATOM     27  C   UNL     1       4.769   4.503  16.397  0.00  0.00    +0.000 A 
ATOM     28  C   UNL     1       5.726   3.830  15.638  0.00  0.00    +0.000 A 
ATOM     29  C   UNL     1       6.978   4.403  15.455  0.00  0.00    +0.000 A 
ATOM     30  N   UNL     1       7.257   5.611  16.005  0.00  0.00    +0.000 NA
ATOM     31  C   UNL     1       6.344   6.303  16.740  0.00  0.00    +0.000 A 
ATOM     32  F   UNL     1       6.731   7.481  17.285  0.00  0.00    +0.000 F 
ENDBRANCH  23  26
ENDBRANCH  19  20
ENDBRANCH   3  19
TORSDOF 5
ENDMDL
MODEL 6
REMARK VINA RESULT:      -8.3      1.491      1.670
REMARK  Name = 
REMARK  7 active torsions:
REMARK  status: ('A' for Active; 'I' for Inactive)
REMARK    1  A    between atoms: C_1  and  C_2
REMARK    2  A    between atoms: C_7  and  C_8
REMARK    3  A    between atoms: N_10  and  C_11
REMARK    4  A    between atoms: C_11  and  C_12
REMARK    5  A    between atoms: C_15  and  C_16
REMARK    6  A    between atoms: C_25  and  N_26
REMARK    7  A    between atoms: C_28  and  C_29
REMARK                            x       y       z     vdW  Elec       q    Type
REMARK                         _______ _______ _______ _____ _____    ______ ____
ROOT
ATOM      1  C   UNL     1      -1.254  11.861  19.270  0.00  0.00    +0.000 C 
ATOM      2  O   UNL     1      -1.423  12.181  18.104  0.00  0.00    +0.000 OA
ATOM      3  N   UNL     1      -0.088  11.248  19.651  0.00  0.00    +0.000 N 
ATOM      4  H   UNL     1       0.050  11.004  20.639  0.00  0.00    +0.000 HD
ENDROOT
BRANCH   1  11
ATOM      5  C   UNL     1      -7.177  13.685  23.931  0.00  0.00    +0.000 C 
ATOM      6  C   UNL     1      -5.850  13.297  23.336  0.00  0.00    +0.000 A 
ATOM      7  N   UNL     1      -4.821  13.126  24.208  0.00  0.00    +0.000 NA
ATOM      8  N   UNL     1      -3.612  12.775  23.811  0.00  0.00    +0.000 NA
ATOM      9  C   UNL     1      -3.361  12.592  22.506  0.00  0.00    +0.000 A 
ATOM     10  S   UNL     1      -1.880  12.171  21.934  0.00  0.00    +0.000 S 
ATOM     11  C   UNL     1      -2.300  12.158  20.312  0.00  0.00    +0.000 A 
ATOM     12  C   UNL     1      -3.687  12.499  20.202  0.00  0.00    +0.000 A 
ATOM     13  C   UNL     1      -4.311  12.742  21.496  0.00  0.00    +0.000 A 
ATOM     14  C   UNL     1      -5.644  13.095  21.931  0.00  0.00    +0.000 A 
ATOM     15  C   UNL     1      -6.875  13.258  21.063  0.00  0.00    +0.000 C 
BRANCH  12  16
ATOM     16  N   UNL     1      -4.315  12.607  18.927  0.00  0.00    +0.000 N 
ATOM     17  H   UNL     1      -4.476  13.521  18.489  0.00  0.00    +0.000 HD
ATOM     18  H   UNL     1      -4.716  11.828  18.416  0.00  0.00    +0.000 HD
ENDBRANCH  12  16
ENDBRANCH   1  11
BRANCH   3  19
ATOM     19  C   UNL     1       1.040  10.948  18.786  0.00  0.00    +0.000 C 
BRANCH  19  20
ATOM     20  C   UNL     1       1.472   9.503  18.943  0.00  0.00    +0.000 A 
ATOM     21  C   UNL     1       2.007   8.803  17.856  0.00  0.00    +0.000 A 
ATOM     22  C   UNL     1       2.434   7.478  17.999  0.00  0.00    +0.000 A 
ATOM     23  C   UNL     1       2.315   6.801  19.232  0.00  0.00    +0.000 A 
ATOM     24  C   UNL     1       1.771   7.511  20.323  0.00  0.00    +0.000 A 
ATOM     25  C   UNL     1       1.370   8.844  20.184  0.00  0.00    +0.000 A 
BRANCH  23  26
ATOM     26  C   UNL     1       2.769   5.373  19.361  0.00  0.00    +0.000 A 
ATOM     27  C   UNL     1       1.820   4.338  19.504  0.00  0.00    +0.000 A 
ATOM     28  C   UNL     1       2.223   3.009  19.631  0.00  0.00    +0.000 A 
ATOM     29  C   UNL     1       3.578   2.704  19.628  0.00  0.00    +0.000 A 
ATOM     30  N   UNL     1       4.494   3.695  19.494  0.00  0.00    +0.000 NA
ATOM     31  C   UNL     1       4.137   5.001  19.354  0.00  0.00    +0.000 A 
ATOM     32  F   UNL     1       5.127   5.923  19.270  0.00  0.00    +0.000 F 
ENDBRANCH  23  26
ENDBRANCH  19  20
ENDBRANCH   3  19
TORSDOF 5
ENDMDL
MODEL 7
REMARK VINA RESULT:      -8.3      2.306      2.740
REMARK  Name = 
REMARK  7 active torsions:
REMARK  status: ('A' for Active; 'I' for Inactive)
REMARK    1  A    between atoms: C_1  and  C_2
REMARK    2  A    between atoms: C_7  and  C_8
REMARK    3  A    between atoms: N_10  and  C_11
REMARK    4  A    between atoms: C_11  and  C_12
REMARK    5  A    between atoms: C_15  and  C_16
REMARK    6  A    between atoms: C_25  and  N_26
REMARK    7  A    between atoms: C_28  and  C_29
REMARK                            x       y       z     vdW  Elec       q    Type
REMARK                         _______ _______ _______ _____ _____    ______ ____
ROOT
ATOM      1  C   UNL     1      -1.079  10.800  18.283  0.00  0.00    +0.000 C 
ATOM      2  O   UNL     1      -1.135   9.945  17.414  0.00  0.00    +0.000 OA
ATOM      3  N   UNL     1       0.136  11.202  18.774  0.00  0.00    +0.000 N 
ATOM      4  H   UNL     1       0.170  11.937  19.489  0.00  0.00    +0.000 HD
ENDROOT
BRANCH   1  11
ATOM      5  C   UNL     1      -7.915  13.939  20.168  0.00  0.00    +0.000 C 
ATOM      6  C   UNL     1      -6.479  13.489  20.104  0.00  0.00    +0.000 A 
ATOM      7  N   UNL     1      -5.655  13.953  21.081  0.00  0.00    +0.000 NA
ATOM      8  N   UNL     1      -4.379  13.622  21.141  0.00  0.00    +0.000 NA
ATOM      9  C   UNL     1      -3.850  12.816  20.208  0.00  0.00    +0.000 A 
ATOM     10  S   UNL     1      -2.268  12.373  20.205  0.00  0.00    +0.000 S 
ATOM     11  C   UNL     1      -2.332  11.448  18.810  0.00  0.00    +0.000 A 
ATOM     12  C   UNL     1      -3.675  11.478  18.310  0.00  0.00    +0.000 A 
ATOM     13  C   UNL     1      -4.567  12.275  19.141  0.00  0.00    +0.000 A 
ATOM     14  C   UNL     1      -5.973  12.610  19.091  0.00  0.00    +0.000 A 
ATOM     15  C   UNL     1      -6.995  12.114  18.090  0.00  0.00    +0.000 C 
BRANCH  12  16
ATOM     16  N   UNL     1      -4.020  10.808  17.101  0.00  0.00    +0.000 N 
ATOM     17  H   UNL     1      -3.934  11.274  16.190  0.00  0.00    +0.000 HD
ATOM     18  H   UNL     1      -4.445   9.888  17.055  0.00  0.00    +0.000 HD
ENDBRANCH  12  16
ENDBRANCH   1  11
BRANCH   3  19
ATOM     19  C   UNL     1       1.435  10.723  18.331  0.00  0.00    +0.000 C 
BRANCH  19  20
ATOM     20  C   UNL     1       1.660   9.288  18.769  0.00  0.00    +0.000 A 
ATOM     21  C   UNL     1       2.151   8.342  17.862  0.00  0.00    +0.000 A 
ATOM     22  C   UNL     1       2.388   7.023  18.265  0.00  0.00    +0.000 A 
ATOM     23  C   UNL     1       2.115   6.601  19.584  0.00  0.00    +0.000 A 
ATOM     24  C   UNL     1       1.615   7.559  20.491  0.00  0.00    +0.000 A 
ATOM     25  C   UNL     1       1.406   8.884  20.093  0.00  0.00    +0.000 A 
BRANCH  23  26
ATOM     26  C   UNL     1       2.366   5.175  19.993  0.00  0.00    +0.000 A 
ATOM     27  C   UNL     1       1.350   4.433  20.634  0.00  0.00    +0.000 A 
ATOM     28  C   UNL     1       1.566   3.112  21.025  0.00  0.00    +0.000 A 
ATOM     29  C   UNL     1       2.804   2.526  20.790  0.00  0.00    +0.000 A 
ATOM     30  N   UNL     1       3.783   3.235  20.177  0.00  0.00    +0.000 NA
ATOM     31  C   UNL     1       3.603   4.521  19.769  0.00  0.00    +0.000 A 
ATOM     32  F   UNL     1       4.657   5.161  19.206  0.00  0.00    +0.000 F 
ENDBRANCH  23  26
ENDBRANCH  19  20
ENDBRANCH   3  19
TORSDOF 5
ENDMDL
MODEL 8
REMARK VINA RESULT:      -8.2      3.471      4.965
REMARK  Name = 
REMARK  7 active torsions:
REMARK  status: ('A' for Active; 'I' for Inactive)
REMARK    1  A    between atoms: C_1  and  C_2
REMARK    2  A    between atoms: C_7  and  C_8
REMARK    3  A    between atoms: N_10  and  C_11
REMARK    4  A    between atoms: C_11  and  C_12
REMARK    5  A    between atoms: C_15  and  C_16
REMARK    6  A    between atoms: C_25  and  N_26
REMARK    7  A    between atoms: C_28  and  C_29
REMARK                            x       y       z     vdW  Elec       q    Type
REMARK                         _______ _______ _______ _____ _____    ______ ____
ROOT
ATOM      1  C   UNL     1       0.221   8.570  21.293  0.00  0.00    +0.000 C 
ATOM      2  O   UNL     1      -0.756   7.894  21.574  0.00  0.00    +0.000 OA
ATOM      3  N   UNL     1       1.407   7.961  20.973  0.00  0.00    +0.000 N 
ATOM      4  H   UNL     1       2.215   8.540  20.717  0.00  0.00    +0.000 HD
ENDROOT
BRANCH   1  11
ATOM      5  C   UNL     1       0.403  16.274  20.429  0.00  0.00    +0.000 C 
ATOM      6  C   UNL     1       0.190  14.859  20.898  0.00  0.00    +0.000 A 
ATOM      7  N   UNL     1      -0.423  14.705  22.103  0.00  0.00    +0.000 NA
ATOM      8  N   UNL     1      -0.675  13.515  22.616  0.00  0.00    +0.000 NA
ATOM      9  C   UNL     1      -0.309  12.407  21.955  0.00  0.00    +0.000 A 
ATOM     10  S   UNL     1      -0.574  10.894  22.537  0.00  0.00    +0.000 S 
ATOM     11  C   UNL     1       0.138  10.073  21.262  0.00  0.00    +0.000 A 
ATOM     12  C   UNL     1       0.612  11.036  20.313  0.00  0.00    +0.000 A 
ATOM     13  C   UNL     1       0.337  12.408  20.719  0.00  0.00    +0.000 A 
ATOM     14  C   UNL     1       0.586  13.709  20.139  0.00  0.00    +0.000 A 
ATOM     15  C   UNL     1       1.207  14.003  18.789  0.00  0.00    +0.000 C 
BRANCH  12  16
ATOM     16  N   UNL     1       1.304  10.626  19.138  0.00  0.00    +0.000 N 
ATOM     17  H   UNL     1       2.180  11.078  18.849  0.00  0.00    +0.000 HD
ATOM     18  H   UNL     1       0.953   9.943  18.473  0.00  0.00    +0.000 HD
ENDBRANCH  12  16
ENDBRANCH   1  11
BRANCH   3  19
ATOM     19  C   UNL     1       1.637   6.528  20.895  0.00  0.00    +0.000 C 
BRANCH  19  20
ATOM     20  C   UNL     1       2.596   6.195  19.768  0.00  0.00    +0.000 A 
ATOM     21  C   UNL     1       2.850   7.129  18.758  0.00  0.00    +0.000 A 
ATOM     22  C   UNL     1       3.755   6.841  17.730  0.00  0.00    +0.000 A 
ATOM     23  C   UNL     1       4.417   5.597  17.666  0.00  0.00    +0.000 A 
ATOM     24  C   UNL     1       4.153   4.658  18.686  0.00  0.00    +0.000 A 
ATOM     25  C   UNL     1       3.269   4.959  19.727  0.00  0.00    +0.000 A 
BRANCH  23  26
ATOM     26  C   UNL     1       5.377   5.304  16.546  0.00  0.00    +0.000 A 
ATOM     27  C   UNL     1       5.009   4.416  15.511  0.00  0.00    +0.000 A 
ATOM     28  C   UNL     1       5.888   4.128  14.468  0.00  0.00    +0.000 A 
ATOM     29  C   UNL     1       7.148   4.715  14.456  0.00  0.00    +0.000 A 
ATOM     30  N   UNL     1       7.507   5.566  15.449  0.00  0.00    +0.000 NA
ATOM     31  C   UNL     1       6.670   5.881  16.475  0.00  0.00    +0.000 A 
ATOM     32  F   UNL     1       7.137   6.706  17.443  0.00  0.00    +0.000 F 
ENDBRANCH  23  26
ENDBRANCH  19  20
ENDBRANCH   3  19
TORSDOF 5
ENDMDL
MODEL 9
REMARK VINA RESULT:      -8.2      1.325      1.667
REMARK  Name = 
REMARK  7 active torsions:
REMARK  status: ('A' for Active; 'I' for Inactive)
REMARK    1  A    between atoms: C_1  and  C_2
REMARK    2  A    between atoms: C_7  and  C_8
REMARK    3  A    between atoms: N_10  and  C_11
REMARK    4  A    between atoms: C_11  and  C_12
REMARK    5  A    between atoms: C_15  and  C_16
REMARK    6  A    between atoms: C_25  and  N_26
REMARK    7  A    between atoms: C_28  and  C_29
REMARK                            x       y       z     vdW  Elec       q    Type
REMARK                         _______ _______ _______ _____ _____    ______ ____
ROOT
ATOM      1  C   UNL     1      -1.699  11.964  19.241  0.00  0.00    +0.000 C 
ATOM      2  O   UNL     1      -2.011  11.936  18.061  0.00  0.00    +0.000 OA
ATOM      3  N   UNL     1      -0.397  11.743  19.612  0.00  0.00    +0.000 N 
ATOM      4  H   UNL     1      -0.144  11.791  20.606  0.00  0.00    +0.000 HD
ENDROOT
BRANCH   1  11
ATOM      5  C   UNL     1      -7.516  13.829  24.018  0.00  0.00    +0.000 C 
ATOM      6  C   UNL     1      -6.202  13.434  23.397  0.00  0.00    +0.000 A 
ATOM      7  N   UNL     1      -5.154  13.269  24.248  0.00  0.00    +0.000 NA
ATOM      8  N   UNL     1      -3.955  12.913  23.826  0.00  0.00    +0.000 NA
ATOM      9  C   UNL     1      -3.733  12.720  22.518  0.00  0.00    +0.000 A 
ATOM     10  S   UNL     1      -2.265  12.293  21.916  0.00  0.00    +0.000 S 
ATOM     11  C   UNL     1      -2.721  12.270  20.304  0.00  0.00    +0.000 A 
ATOM     12  C   UNL     1      -4.110  12.612  20.222  0.00  0.00    +0.000 A 
ATOM     13  C   UNL     1      -4.705  12.865  21.527  0.00  0.00    +0.000 A 
ATOM     14  C   UNL     1      -6.027  13.222  21.989  0.00  0.00    +0.000 A 
ATOM     15  C   UNL     1      -7.277  13.381  21.148  0.00  0.00    +0.000 C 
BRANCH  12  16
ATOM     16  N   UNL     1      -4.766  12.712  18.961  0.00  0.00    +0.000 N 
ATOM     17  H   UNL     1      -4.380  13.289  18.204  0.00  0.00    +0.000 HD
ATOM     18  H   UNL     1      -5.674  12.310  18.752  0.00  0.00    +0.000 HD
ENDBRANCH  12  16
ENDBRANCH   1  11
BRANCH   3  19
ATOM     19  C   UNL     1       0.716  11.498  18.711  0.00  0.00    +0.000 C 
BRANCH  19  20
ATOM     20  C   UNL     1       1.265  10.096  18.900  0.00  0.00    +0.000 A 
ATOM     21  C   UNL     1       1.124   9.442  20.130  0.00  0.00    +0.000 A 
ATOM     22  C   UNL     1       1.602   8.139  20.304  0.00  0.00    +0.000 A 
ATOM     23  C   UNL     1       2.260   7.455  19.260  0.00  0.00    +0.000 A 
ATOM     24  C   UNL     1       2.403   8.122  18.024  0.00  0.00    +0.000 A 
ATOM     25  C   UNL     1       1.899   9.415  17.844  0.00  0.00    +0.000 A 
BRANCH  23  26
ATOM     26  C   UNL     1       2.777   6.059  19.473  0.00  0.00    +0.000 A 
ATOM     27  C   UNL     1       4.031   5.680  18.947  0.00  0.00    +0.000 A 
ATOM     28  C   UNL     1       4.524   4.388  19.129  0.00  0.00    +0.000 A 
ATOM     29  C   UNL     1       3.761   3.460  19.829  0.00  0.00    +0.000 A 
ATOM     30  N   UNL     1       2.554   3.819  20.333  0.00  0.00    +0.000 NA
ATOM     31  C   UNL     1       2.049   5.074  20.186  0.00  0.00    +0.000 A 
ATOM     32  F   UNL     1       0.815   5.323  20.688  0.00  0.00    +0.000 F 
ENDBRANCH  23  26
ENDBRANCH  19  20
ENDBRANCH   3  19
TORSDOF 5
ENDMDL
