MODEL 1
REMARK VINA RESULT:      -8.8      0.000      0.000
REMARK  Name = 
REMARK  12 active torsions:
REMARK  status: ('A' for Active; 'I' for Inactive)
REMARK    1  A    between atoms: C_1  and  C_2
REMARK    2  A    between atoms: C_5  and  C_6
REMARK    3  A    between atoms: C_7  and  C_8
REMARK    4  A    between atoms: C_16  and  C_17
REMARK    5  A    between atoms: C_17  and  C_18
REMARK    6  A    between atoms: C_18  and  N_19
REMARK    7  A    between atoms: N_19  and  C_20
REMARK    8  A    between atoms: C_20  and  C_21
REMARK    9  A    between atoms: C_21  and  C_22
REMARK   10  A    between atoms: C_22  and  C_23
REMARK   11  A    between atoms: C_23  and  C_24
REMARK   12  A    between atoms: C_27  and  O_28
REMARK                            x       y       z     vdW  Elec       q    Type
REMARK                         _______ _______ _______ _____ _____    ______ ____
ROOT
ATOM      1  C   UNL     1       4.325   4.336  17.372  0.00  0.00    +0.000 A 
ATOM      2  N   UNL     1       3.908   3.119  17.863  0.00  0.00    +0.000 N 
ATOM      3  C   UNL     1       2.927   3.249  18.811  0.00  0.00    +0.000 A 
ATOM      4  C   UNL     1       2.192   2.262  19.482  0.00  0.00    +0.000 A 
ATOM      5  C   UNL     1       1.266   2.669  20.447  0.00  0.00    +0.000 A 
ATOM      6  C   UNL     1       1.098   4.011  20.742  0.00  0.00    +0.000 A 
ATOM      7  C   UNL     1       1.841   4.979  20.059  0.00  0.00    +0.000 A 
ATOM      8  C   UNL     1       2.767   4.610  19.046  0.00  0.00    +0.000 A 
ATOM      9  C   UNL     1       3.646   5.306  18.125  0.00  0.00    +0.000 A 
ATOM     10  H   UNL     1       4.271   2.229  17.565  0.00  0.00    +0.000 HD
ENDROOT
BRANCH   1  17
ATOM     11  C   UNL     1       5.507   3.597  12.568  0.00  0.00    +0.000 C 
ATOM     12  C   UNL     1       5.915   4.105  13.920  0.00  0.00    +0.000 A 
ATOM     13  C   UNL     1       7.187   4.616  14.145  0.00  0.00    +0.000 A 
ATOM     14  C   UNL     1       7.550   5.031  15.425  0.00  0.00    +0.000 A 
ATOM     15  C   UNL     1       6.662   4.926  16.517  0.00  0.00    +0.000 A 
ATOM     16  C   UNL     1       7.199   5.315  17.870  0.00  0.00    +0.000 C 
ATOM     17  C   UNL     1       5.349   4.447  16.300  0.00  0.00    +0.000 A 
ATOM     18  C   UNL     1       5.007   4.058  14.989  0.00  0.00    +0.000 A 
ENDBRANCH   1  17
BRANCH   9  19
ATOM     19  C   UNL     1       3.806   6.799  17.953  0.00  0.00    +0.000 C 
BRANCH  19  20
ATOM     20  C   UNL     1       2.532   7.599  18.156  0.00  0.00    +0.000 C 
BRANCH  20  21
ATOM     21  N   UNL     1       2.465   8.811  17.343  0.00  0.00    +0.000 NA
ATOM     22  H   UNL     1       2.167   8.572  16.397  0.00  0.00    +0.000 HD
BRANCH  21  23
ATOM     23  C   UNL     1       1.482   9.698  17.962  0.00  0.00    +0.000 C 
BRANCH  23  24
ATOM     24  C   UNL     1       1.259   9.284  19.403  0.00  0.00    +0.000 C 
BRANCH  24  25
ATOM     25  C   UNL     1      -0.110   9.768  19.863  0.00  0.00    +0.000 C 
BRANCH  25  26
ATOM     26  C   UNL     1      -0.434  11.108  19.219  0.00  0.00    +0.000 C 
BRANCH  26  27
ATOM     27  C   UNL     1      -1.848  11.130  18.704  0.00  0.00    +0.000 A 
ATOM     28  C   UNL     1      -2.798  11.979  19.285  0.00  0.00    +0.000 A 
ATOM     29  C   UNL     1      -4.113  11.987  18.820  0.00  0.00    +0.000 A 
ATOM     30  C   UNL     1      -4.474  11.138  17.779  0.00  0.00    +0.000 A 
ATOM     31  C   UNL     1      -3.547  10.279  17.203  0.00  0.00    +0.000 A 
ATOM     32  C   UNL     1      -2.232  10.271  17.667  0.00  0.00    +0.000 A 
BRANCH  30  33
ATOM     33  O   UNL     1      -5.745  11.112  17.290  0.00  0.00    +0.000 OA
ATOM     34  H   UNL     1      -6.360  11.246  18.035  0.00  0.00    +0.000 HD
ENDBRANCH  30  33
ENDBRANCH  26  27
ENDBRANCH  25  26
ENDBRANCH  24  25
ENDBRANCH  23  24
ENDBRANCH  21  23
ENDBRANCH  20  21
ENDBRANCH  19  20
ENDBRANCH   9  19
TORSDOF 10
ENDMDL
MODEL 2
REMARK VINA RESULT:      -8.5      1.011      1.226
REMARK  Name = 
REMARK  12 active torsions:
REMARK  status: ('A' for Active; 'I' for Inactive)
REMARK    1  A    between atoms: C_1  and  C_2
REMARK    2  A    between atoms: C_5  and  C_6
REMARK    3  A    between atoms: C_7  and  C_8
REMARK    4  A    between atoms: C_16  and  C_17
REMARK    5  A    between atoms: C_17  and  C_18
REMARK    6  A    between atoms: C_18  and  N_19
REMARK    7  A    between atoms: N_19  and  C_20
REMARK    8  A    between atoms: C_20  and  C_21
REMARK    9  A    between atoms: C_21  and  C_22
REMARK   10  A    between atoms: C_22  and  C_23
REMARK   11  A    between atoms: C_23  and  C_24
REMARK   12  A    between atoms: C_27  and  O_28
REMARK                            x       y       z     vdW  Elec       q    Type
REMARK                         _______ _______ _______ _____ _____    ______ ____
ROOT
ATOM      1  C   UNL     1       4.390   4.290  17.544  0.00  0.00    +0.000 A 
ATOM      2  N   UNL     1       4.368   3.166  18.338  0.00  0.00    +0.000 N 
ATOM      3  C   UNL     1       3.335   3.185  19.238  0.00  0.00    +0.000 A 
ATOM      4  C   UNL     1       2.924   2.206  20.154  0.00  0.00    +0.000 A 
ATOM      5  C   UNL     1       1.850   2.500  20.998  0.00  0.00    +0.000 A 
ATOM      6  C   UNL     1       1.225   3.733  20.941  0.00  0.00    +0.000 A 
ATOM      7  C   UNL     1       1.649   4.695  20.019  0.00  0.00    +0.000 A 
ATOM      8  C   UNL     1       2.715   4.424  19.119  0.00  0.00    +0.000 A 
ATOM      9  C   UNL     1       3.375   5.126  18.034  0.00  0.00    +0.000 A 
ATOM     10  H   UNL     1       5.027   2.408  18.273  0.00  0.00    +0.000 HD
ENDROOT
BRANCH   1  17
ATOM     11  C   UNL     1       5.626   3.517  12.759  0.00  0.00    +0.000 C 
ATOM     12  C   UNL     1       5.982   4.112  14.089  0.00  0.00    +0.000 A 
ATOM     13  C   UNL     1       7.193   4.764  14.288  0.00  0.00    +0.000 A 
ATOM     14  C   UNL     1       7.514   5.259  15.550  0.00  0.00    +0.000 A 
ATOM     15  C   UNL     1       6.647   5.098  16.651  0.00  0.00    +0.000 A 
ATOM     16  C   UNL     1       7.145   5.587  17.986  0.00  0.00    +0.000 C 
ATOM     17  C   UNL     1       5.392   4.474  16.461  0.00  0.00    +0.000 A 
ATOM     18  C   UNL     1       5.089   4.005  15.166  0.00  0.00    +0.000 A 
ENDBRANCH   1  17
BRANCH   9  19
ATOM     19  C   UNL     1       3.041   6.492  17.482  0.00  0.00    +0.000 C 
BRANCH  19  20
ATOM     20  C   UNL     1       3.141   7.623  18.489  0.00  0.00    +0.000 C 
BRANCH  20  21
ATOM     21  N   UNL     1       1.861   7.982  19.096  0.00  0.00    +0.000 NA
ATOM     22  H   UNL     1       1.951   7.976  20.112  0.00  0.00    +0.000 HD
BRANCH  21  23
ATOM     23  C   UNL     1       1.523   9.328  18.638  0.00  0.00    +0.000 C 
BRANCH  23  24
ATOM     24  C   UNL     1       0.535   9.960  19.598  0.00  0.00    +0.000 C 
BRANCH  24  25
ATOM     25  C   UNL     1      -0.120  11.164  18.934  0.00  0.00    +0.000 C 
BRANCH  25  26
ATOM     26  C   UNL     1      -1.622  11.140  19.175  0.00  0.00    +0.000 C 
BRANCH  26  27
ATOM     27  C   UNL     1      -2.369  10.886  17.894  0.00  0.00    +0.000 A 
ATOM     28  C   UNL     1      -3.586  11.533  17.645  0.00  0.00    +0.000 A 
ATOM     29  C   UNL     1      -4.287  11.284  16.465  0.00  0.00    +0.000 A 
ATOM     30  C   UNL     1      -3.770  10.381  15.540  0.00  0.00    +0.000 A 
ATOM     31  C   UNL     1      -2.572   9.721  15.780  0.00  0.00    +0.000 A 
ATOM     32  C   UNL     1      -1.870   9.970  16.959  0.00  0.00    +0.000 A 
BRANCH  30  33
ATOM     33  O   UNL     1      -4.418  10.109  14.373  0.00  0.00    +0.000 OA
ATOM     34  H   UNL     1      -4.132   9.228  14.067  0.00  0.00    +0.000 HD
ENDBRANCH  30  33
ENDBRANCH  26  27
ENDBRANCH  25  26
ENDBRANCH  24  25
ENDBRANCH  23  24
ENDBRANCH  21  23
ENDBRANCH  20  21
ENDBRANCH  19  20
ENDBRANCH   9  19
TORSDOF 10
ENDMDL
MODEL 3
REMARK VINA RESULT:      -8.5      0.604      1.024
REMARK  Name = 
REMARK  12 active torsions:
REMARK  status: ('A' for Active; 'I' for Inactive)
REMARK    1  A    between atoms: C_1  and  C_2
REMARK    2  A    between atoms: C_5  and  C_6
REMARK    3  A    between atoms: C_7  and  C_8
REMARK    4  A    between atoms: C_16  and  C_17
REMARK    5  A    between atoms: C_17  and  C_18
REMARK    6  A    between atoms: C_18  and  N_19
REMARK    7  A    between atoms: N_19  and  C_20
REMARK    8  A    between atoms: C_20  and  C_21
REMARK    9  A    between atoms: C_21  and  C_22
REMARK   10  A    between atoms: C_22  and  C_23
REMARK   11  A    between atoms: C_23  and  C_24
REMARK   12  A    between atoms: C_27  and  O_28
REMARK                            x       y       z     vdW  Elec       q    Type
REMARK                         _______ _______ _______ _____ _____    ______ ____
ROOT
ATOM      1  C   UNL     1       4.392   4.339  16.916  0.00  0.00    +0.000 A 
ATOM      2  N   UNL     1       4.078   3.126  17.484  0.00  0.00    +0.000 N 
ATOM      3  C   UNL     1       3.092   3.233  18.430  0.00  0.00    +0.000 A 
ATOM      4  C   UNL     1       2.443   2.233  19.168  0.00  0.00    +0.000 A 
ATOM      5  C   UNL     1       1.490   2.622  20.113  0.00  0.00    +0.000 A 
ATOM      6  C   UNL     1       1.213   3.962  20.325  0.00  0.00    +0.000 A 
ATOM      7  C   UNL     1       1.871   4.943  19.577  0.00  0.00    +0.000 A 
ATOM      8  C   UNL     1       2.822   4.589  18.582  0.00  0.00    +0.000 A 
ATOM      9  C   UNL     1       3.637   5.295  17.612  0.00  0.00    +0.000 A 
ATOM     10  H   UNL     1       4.512   2.251  17.239  0.00  0.00    +0.000 HD
ENDROOT
BRANCH   1  17
ATOM     11  C   UNL     1       5.679   3.273  12.201  0.00  0.00    +0.000 C 
ATOM     12  C   UNL     1       6.015   3.960  13.492  0.00  0.00    +0.000 A 
ATOM     13  C   UNL     1       7.213   4.642  13.656  0.00  0.00    +0.000 A 
ATOM     14  C   UNL     1       7.517   5.224  14.885  0.00  0.00    +0.000 A 
ATOM     15  C   UNL     1       6.643   5.122  15.988  0.00  0.00    +0.000 A 
ATOM     16  C   UNL     1       7.122   5.706  17.291  0.00  0.00    +0.000 C 
ATOM     17  C   UNL     1       5.399   4.467  15.830  0.00  0.00    +0.000 A 
ATOM     18  C   UNL     1       5.114   3.909  14.567  0.00  0.00    +0.000 A 
ENDBRANCH   1  17
BRANCH   9  19
ATOM     19  C   UNL     1       3.673   6.783  17.347  0.00  0.00    +0.000 C 
BRANCH  19  20
ATOM     20  C   UNL     1       2.641   7.587  18.116  0.00  0.00    +0.000 C 
BRANCH  20  21
ATOM     21  N   UNL     1       2.423   8.928  17.578  0.00  0.00    +0.000 NA
ATOM     22  H   UNL     1       2.588   8.924  16.571  0.00  0.00    +0.000 HD
BRANCH  21  23
ATOM     23  C   UNL     1       1.033   9.287  17.850  0.00  0.00    +0.000 C 
BRANCH  23  24
ATOM     24  C   UNL     1       0.912   9.820  19.264  0.00  0.00    +0.000 C 
BRANCH  24  25
ATOM     25  C   UNL     1      -0.524  10.256  19.522  0.00  0.00    +0.000 C 
BRANCH  25  26
ATOM     26  C   UNL     1      -0.836  11.519  18.733  0.00  0.00    +0.000 C 
BRANCH  26  27
ATOM     27  C   UNL     1      -2.273  11.532  18.284  0.00  0.00    +0.000 A 
ATOM     28  C   UNL     1      -2.609  11.146  16.981  0.00  0.00    +0.000 A 
ATOM     29  C   UNL     1      -3.938  11.174  16.559  0.00  0.00    +0.000 A 
ATOM     30  C   UNL     1      -4.926  11.598  17.442  0.00  0.00    +0.000 A 
ATOM     31  C   UNL     1      -4.606  11.999  18.733  0.00  0.00    +0.000 A 
ATOM     32  C   UNL     1      -3.278  11.970  19.155  0.00  0.00    +0.000 A 
BRANCH  30  33
ATOM     33  O   UNL     1      -6.238  11.640  17.076  0.00  0.00    +0.000 OA
ATOM     34  H   UNL     1      -6.545  10.724  16.942  0.00  0.00    +0.000 HD
ENDBRANCH  30  33
ENDBRANCH  26  27
ENDBRANCH  25  26
ENDBRANCH  24  25
ENDBRANCH  23  24
ENDBRANCH  21  23
ENDBRANCH  20  21
ENDBRANCH  19  20
ENDBRANCH   9  19
TORSDOF 10
ENDMDL
MODEL 4
REMARK VINA RESULT:      -8.3      0.832      1.243
REMARK  Name = 
REMARK  12 active torsions:
REMARK  status: ('A' for Active; 'I' for Inactive)
REMARK    1  A    between atoms: C_1  and  C_2
REMARK    2  A    between atoms: C_5  and  C_6
REMARK    3  A    between atoms: C_7  and  C_8
REMARK    4  A    between atoms: C_16  and  C_17
REMARK    5  A    between atoms: C_17  and  C_18
REMARK    6  A    between atoms: C_18  and  N_19
REMARK    7  A    between atoms: N_19  and  C_20
REMARK    8  A    between atoms: C_20  and  C_21
REMARK    9  A    between atoms: C_21  and  C_22
REMARK   10  A    between atoms: C_22  and  C_23
REMARK   11  A    between atoms: C_23  and  C_24
REMARK   12  A    between atoms: C_27  and  O_28
REMARK                            x       y       z     vdW  Elec       q    Type
REMARK                         _______ _______ _______ _____ _____    ______ ____
ROOT
ATOM      1  C   UNL     1       4.555   4.306  17.857  0.00  0.00    +0.000 A 
ATOM      2  N   UNL     1       4.680   3.264  18.748  0.00  0.00    +0.000 N 
ATOM      3  C   UNL     1       3.673   3.249  19.677  0.00  0.00    +0.000 A 
ATOM      4  C   UNL     1       3.399   2.319  20.689  0.00  0.00    +0.000 A 
ATOM      5  C   UNL     1       2.318   2.566  21.539  0.00  0.00    +0.000 A 
ATOM      6  C   UNL     1       1.554   3.711  21.394  0.00  0.00    +0.000 A 
ATOM      7  C   UNL     1       1.844   4.626  20.376  0.00  0.00    +0.000 A 
ATOM      8  C   UNL     1       2.912   4.395  19.469  0.00  0.00    +0.000 A 
ATOM      9  C   UNL     1       3.462   5.063  18.304  0.00  0.00    +0.000 A 
ATOM     10  H   UNL     1       5.420   2.582  18.728  0.00  0.00    +0.000 HD
ENDROOT
BRANCH   1  17
ATOM     11  C   UNL     1       5.573   3.556  13.017  0.00  0.00    +0.000 C 
ATOM     12  C   UNL     1       5.985   4.150  14.331  0.00  0.00    +0.000 A 
ATOM     13  C   UNL     1       7.199   4.811  14.475  0.00  0.00    +0.000 A 
ATOM     14  C   UNL     1       7.575   5.305  15.722  0.00  0.00    +0.000 A 
ATOM     15  C   UNL     1       6.761   5.133  16.863  0.00  0.00    +0.000 A 
ATOM     16  C   UNL     1       7.317   5.623  18.174  0.00  0.00    +0.000 C 
ATOM     17  C   UNL     1       5.503   4.500  16.729  0.00  0.00    +0.000 A 
ATOM     18  C   UNL     1       5.144   4.032  15.448  0.00  0.00    +0.000 A 
ENDBRANCH   1  17
BRANCH   9  19
ATOM     19  C   UNL     1       2.960   6.327  17.645  0.00  0.00    +0.000 C 
BRANCH  19  20
ATOM     20  C   UNL     1       3.045   7.570  18.512  0.00  0.00    +0.000 C 
BRANCH  20  21
ATOM     21  N   UNL     1       1.760   8.236  18.708  0.00  0.00    +0.000 NA
ATOM     22  H   UNL     1       1.011   7.654  18.330  0.00  0.00    +0.000 HD
BRANCH  21  23
ATOM     23  C   UNL     1       1.573   8.408  20.148  0.00  0.00    +0.000 C 
BRANCH  23  24
ATOM     24  C   UNL     1       0.479   9.427  20.401  0.00  0.00    +0.000 C 
BRANCH  24  25
ATOM     25  C   UNL     1       0.088  10.089  19.087  0.00  0.00    +0.000 C 
BRANCH  25  26
ATOM     26  C   UNL     1      -0.669  11.381  19.358  0.00  0.00    +0.000 C 
BRANCH  26  27
ATOM     27  C   UNL     1      -2.036  11.345  18.729  0.00  0.00    +0.000 A 
ATOM     28  C   UNL     1      -2.240  10.672  17.518  0.00  0.00    +0.000 A 
ATOM     29  C   UNL     1      -3.502  10.653  16.927  0.00  0.00    +0.000 A 
ATOM     30  C   UNL     1      -4.557  11.316  17.547  0.00  0.00    +0.000 A 
ATOM     31  C   UNL     1      -4.367  12.001  18.740  0.00  0.00    +0.000 A 
ATOM     32  C   UNL     1      -3.105  12.019  19.333  0.00  0.00    +0.000 A 
BRANCH  30  33
ATOM     33  O   UNL     1      -5.808  11.323  17.008  0.00  0.00    +0.000 OA
ATOM     34  H   UNL     1      -5.939  10.482  16.533  0.00  0.00    +0.000 HD
ENDBRANCH  30  33
ENDBRANCH  26  27
ENDBRANCH  25  26
ENDBRANCH  24  25
ENDBRANCH  23  24
ENDBRANCH  21  23
ENDBRANCH  20  21
ENDBRANCH  19  20
ENDBRANCH   9  19
TORSDOF 10
ENDMDL
MODEL 5
REMARK VINA RESULT:      -8.2      2.204      2.881
REMARK  Name = 
REMARK  12 active torsions:
REMARK  status: ('A' for Active; 'I' for Inactive)
REMARK    1  A    between atoms: C_1  and  C_2
REMARK    2  A    between atoms: C_5  and  C_6
REMARK    3  A    between atoms: C_7  and  C_8
REMARK    4  A    between atoms: C_16  and  C_17
REMARK    5  A    between atoms: C_17  and  C_18
REMARK    6  A    between atoms: C_18  and  N_19
REMARK    7  A    between atoms: N_19  and  C_20
REMARK    8  A    between atoms: C_20  and  C_21
REMARK    9  A    between atoms: C_21  and  C_22
REMARK   10  A    between atoms: C_22  and  C_23
REMARK   11  A    between atoms: C_23  and  C_24
REMARK   12  A    between atoms: C_27  and  O_28
REMARK                            x       y       z     vdW  Elec       q    Type
REMARK                         _______ _______ _______ _____ _____    ______ ____
ROOT
ATOM      1  C   UNL     1       4.526   4.208  18.028  0.00  0.00    +0.000 A 
ATOM      2  N   UNL     1       4.727   3.158  18.896  0.00  0.00    +0.000 N 
ATOM      3  C   UNL     1       3.738   3.066  19.840  0.00  0.00    +0.000 A 
ATOM      4  C   UNL     1       3.536   2.102  20.837  0.00  0.00    +0.000 A 
ATOM      5  C   UNL     1       2.457   2.268  21.709  0.00  0.00    +0.000 A 
ATOM      6  C   UNL     1       1.625   3.369  21.599  0.00  0.00    +0.000 A 
ATOM      7  C   UNL     1       1.843   4.319  20.596  0.00  0.00    +0.000 A 
ATOM      8  C   UNL     1       2.909   4.169  19.667  0.00  0.00    +0.000 A 
ATOM      9  C   UNL     1       3.399   4.891  18.508  0.00  0.00    +0.000 A 
ATOM     10  H   UNL     1       5.505   2.521  18.850  0.00  0.00    +0.000 HD
ENDROOT
BRANCH   1  17
ATOM     11  C   UNL     1       5.512   3.600  13.161  0.00  0.00    +0.000 C 
ATOM     12  C   UNL     1       5.908   4.198  14.479  0.00  0.00    +0.000 A 
ATOM     13  C   UNL     1       7.079   4.932  14.616  0.00  0.00    +0.000 A 
ATOM     14  C   UNL     1       7.443   5.429  15.866  0.00  0.00    +0.000 A 
ATOM     15  C   UNL     1       6.660   5.189  17.015  0.00  0.00    +0.000 A 
ATOM     16  C   UNL     1       7.204   5.692  18.326  0.00  0.00    +0.000 C 
ATOM     17  C   UNL     1       5.443   4.479  16.890  0.00  0.00    +0.000 A 
ATOM     18  C   UNL     1       5.093   4.010  15.607  0.00  0.00    +0.000 A 
ENDBRANCH   1  17
BRANCH   9  19
ATOM     19  C   UNL     1       2.813   6.136  17.882  0.00  0.00    +0.000 C 
BRANCH  19  20
ATOM     20  C   UNL     1       2.600   7.288  18.846  0.00  0.00    +0.000 C 
BRANCH  20  21
ATOM     21  N   UNL     1       2.762   8.604  18.231  0.00  0.00    +0.000 NA
ATOM     22  H   UNL     1       3.564   8.591  17.602  0.00  0.00    +0.000 HD
BRANCH  21  23
ATOM     23  C   UNL     1       1.543   8.884  17.473  0.00  0.00    +0.000 C 
BRANCH  23  24
ATOM     24  C   UNL     1       0.974  10.222  17.901  0.00  0.00    +0.000 C 
BRANCH  24  25
ATOM     25  C   UNL     1      -0.532  10.097  18.085  0.00  0.00    +0.000 C 
BRANCH  25  26
ATOM     26  C   UNL     1      -1.021  11.119  19.101  0.00  0.00    +0.000 C 
BRANCH  26  27
ATOM     27  C   UNL     1      -0.752  10.652  20.506  0.00  0.00    +0.000 A 
ATOM     28  C   UNL     1      -1.028  11.489  21.594  0.00  0.00    +0.000 A 
ATOM     29  C   UNL     1      -0.762  11.064  22.895  0.00  0.00    +0.000 A 
ATOM     30  C   UNL     1      -0.213   9.802  23.103  0.00  0.00    +0.000 A 
ATOM     31  C   UNL     1       0.081   8.966  22.033  0.00  0.00    +0.000 A 
ATOM     32  C   UNL     1      -0.185   9.391  20.732  0.00  0.00    +0.000 A 
BRANCH  30  33
ATOM     33  O   UNL     1       0.061   9.342  24.355  0.00  0.00    +0.000 OA
ATOM     34  H   UNL     1      -0.519   8.579  24.532  0.00  0.00    +0.000 HD
ENDBRANCH  30  33
ENDBRANCH  26  27
ENDBRANCH  25  26
ENDBRANCH  24  25
ENDBRANCH  23  24
ENDBRANCH  21  23
ENDBRANCH  20  21
ENDBRANCH  19  20
ENDBRANCH   9  19
TORSDOF 10
ENDMDL
MODEL 6
REMARK VINA RESULT:      -8.2      1.969      2.436
REMARK  Name = 
REMARK  12 active torsions:
REMARK  status: ('A' for Active; 'I' for Inactive)
REMARK    1  A    between atoms: C_1  and  C_2
REMARK    2  A    between atoms: C_5  and  C_6
REMARK    3  A    between atoms: C_7  and  C_8
REMARK    4  A    between atoms: C_16  and  C_17
REMARK    5  A    between atoms: C_17  and  C_18
REMARK    6  A    between atoms: C_18  and  N_19
REMARK    7  A    between atoms: N_19  and  C_20
REMARK    8  A    between atoms: C_20  and  C_21
REMARK    9  A    between atoms: C_21  and  C_22
REMARK   10  A    between atoms: C_22  and  C_23
REMARK   11  A    between atoms: C_23  and  C_24
REMARK   12  A    between atoms: C_27  and  O_28
REMARK                            x       y       z     vdW  Elec       q    Type
REMARK                         _______ _______ _______ _____ _____    ______ ____
ROOT
ATOM      1  C   UNL     1       4.481   4.283  17.639  0.00  0.00    +0.000 A 
ATOM      2  N   UNL     1       4.122   3.057  18.152  0.00  0.00    +0.000 N 
ATOM      3  C   UNL     1       3.184   3.164  19.146  0.00  0.00    +0.000 A 
ATOM      4  C   UNL     1       2.510   2.160  19.855  0.00  0.00    +0.000 A 
ATOM      5  C   UNL     1       1.621   2.545  20.862  0.00  0.00    +0.000 A 
ATOM      6  C   UNL     1       1.430   3.883  21.160  0.00  0.00    +0.000 A 
ATOM      7  C   UNL     1       2.112   4.869  20.439  0.00  0.00    +0.000 A 
ATOM      8  C   UNL     1       2.998   4.521  19.384  0.00  0.00    +0.000 A 
ATOM      9  C   UNL     1       3.812   5.237  18.420  0.00  0.00    +0.000 A 
ATOM     10  H   UNL     1       4.495   2.176  17.840  0.00  0.00    +0.000 HD
ENDROOT
BRANCH   1  17
ATOM     11  C   UNL     1       5.387   3.728  12.750  0.00  0.00    +0.000 C 
ATOM     12  C   UNL     1       5.878   4.167  14.098  0.00  0.00    +0.000 A 
ATOM     13  C   UNL     1       7.173   4.639  14.275  0.00  0.00    +0.000 A 
ATOM     14  C   UNL     1       7.614   4.990  15.550  0.00  0.00    +0.000 A 
ATOM     15  C   UNL     1       6.783   4.858  16.683  0.00  0.00    +0.000 A 
ATOM     16  C   UNL     1       7.401   5.174  18.020  0.00  0.00    +0.000 C 
ATOM     17  C   UNL     1       5.449   4.418  16.518  0.00  0.00    +0.000 A 
ATOM     18  C   UNL     1       5.028   4.094  15.212  0.00  0.00    +0.000 A 
ENDBRANCH   1  17
BRANCH   9  19
ATOM     19  C   UNL     1       3.922   6.733  18.237  0.00  0.00    +0.000 C 
BRANCH  19  20
ATOM     20  C   UNL     1       2.673   7.396  17.684  0.00  0.00    +0.000 C 
BRANCH  20  21
ATOM     21  N   UNL     1       2.060   8.350  18.605  0.00  0.00    +0.000 NA
ATOM     22  H   UNL     1       2.785   8.810  19.154  0.00  0.00    +0.000 HD
BRANCH  21  23
ATOM     23  C   UNL     1       1.348   9.339  17.798  0.00  0.00    +0.000 C 
BRANCH  23  24
ATOM     24  C   UNL     1       0.257   9.985  18.629  0.00  0.00    +0.000 C 
BRANCH  24  25
ATOM     25  C   UNL     1       0.877  10.659  19.845  0.00  0.00    +0.000 C 
BRANCH  25  26
ATOM     26  C   UNL     1       0.283  12.047  20.032  0.00  0.00    +0.000 C 
BRANCH  26  27
ATOM     27  C   UNL     1      -0.781  12.039  21.096  0.00  0.00    +0.000 A 
ATOM     28  C   UNL     1      -0.565  11.365  22.305  0.00  0.00    +0.000 A 
ATOM     29  C   UNL     1      -1.558  11.342  23.285  0.00  0.00    +0.000 A 
ATOM     30  C   UNL     1      -2.767  11.988  23.047  0.00  0.00    +0.000 A 
ATOM     31  C   UNL     1      -3.001  12.646  21.847  0.00  0.00    +0.000 A 
ATOM     32  C   UNL     1      -2.009  12.671  20.868  0.00  0.00    +0.000 A 
BRANCH  30  33
ATOM     33  O   UNL     1      -3.765  11.994  23.975  0.00  0.00    +0.000 OA
ATOM     34  H   UNL     1      -4.285  12.810  23.855  0.00  0.00    +0.000 HD
ENDBRANCH  30  33
ENDBRANCH  26  27
ENDBRANCH  25  26
ENDBRANCH  24  25
ENDBRANCH  23  24
ENDBRANCH  21  23
ENDBRANCH  20  21
ENDBRANCH  19  20
ENDBRANCH   9  19
TORSDOF 10
ENDMDL
MODEL 7
REMARK VINA RESULT:      -8.2      2.182      2.514
REMARK  Name = 
REMARK  12 active torsions:
REMARK  status: ('A' for Active; 'I' for Inactive)
REMARK    1  A    between atoms: C_1  and  C_2
REMARK    2  A    between atoms: C_5  and  C_6
REMARK    3  A    between atoms: C_7  and  C_8
REMARK    4  A    between atoms: C_16  and  C_17
REMARK    5  A    between atoms: C_17  and  C_18
REMARK    6  A    between atoms: C_18  and  N_19
REMARK    7  A    between atoms: N_19  and  C_20
REMARK    8  A    between atoms: C_20  and  C_21
REMARK    9  A    between atoms: C_21  and  C_22
REMARK   10  A    between atoms: C_22  and  C_23
REMARK   11  A    between atoms: C_23  and  C_24
REMARK   12  A    between atoms: C_27  and  O_28
REMARK                            x       y       z     vdW  Elec       q    Type
REMARK                         _______ _______ _______ _____ _____    ______ ____
ROOT
ATOM      1  C   UNL     1       4.504   4.376  17.445  0.00  0.00    +0.000 A 
ATOM      2  N   UNL     1       4.268   3.174  18.072  0.00  0.00    +0.000 N 
ATOM      3  C   UNL     1       3.293   3.269  19.030  0.00  0.00    +0.000 A 
ATOM      4  C   UNL     1       2.712   2.269  19.823  0.00  0.00    +0.000 A 
ATOM      5  C   UNL     1       1.755   2.647  20.768  0.00  0.00    +0.000 A 
ATOM      6  C   UNL     1       1.407   3.978  20.926  0.00  0.00    +0.000 A 
ATOM      7  C   UNL     1       1.998   4.959  20.124  0.00  0.00    +0.000 A 
ATOM      8  C   UNL     1       2.950   4.613  19.128  0.00  0.00    +0.000 A 
ATOM      9  C   UNL     1       3.709   5.319  18.113  0.00  0.00    +0.000 A 
ATOM     10  H   UNL     1       4.745   2.314  17.857  0.00  0.00    +0.000 HD
ENDROOT
BRANCH   1  17
ATOM     11  C   UNL     1       5.588   3.520  12.637  0.00  0.00    +0.000 C 
ATOM     12  C   UNL     1       6.001   4.108  13.953  0.00  0.00    +0.000 A 
ATOM     13  C   UNL     1       7.242   4.711  14.117  0.00  0.00    +0.000 A 
ATOM     14  C   UNL     1       7.616   5.201  15.367  0.00  0.00    +0.000 A 
ATOM     15  C   UNL     1       6.770   5.083  16.491  0.00  0.00    +0.000 A 
ATOM     16  C   UNL     1       7.320   5.561  17.809  0.00  0.00    +0.000 C 
ATOM     17  C   UNL     1       5.486   4.510  16.336  0.00  0.00    +0.000 A 
ATOM     18  C   UNL     1       5.131   4.045  15.053  0.00  0.00    +0.000 A 
ENDBRANCH   1  17
BRANCH   9  19
ATOM     19  C   UNL     1       3.658   6.793  17.782  0.00  0.00    +0.000 C 
BRANCH  19  20
ATOM     20  C   UNL     1       2.275   7.413  17.870  0.00  0.00    +0.000 C 
BRANCH  20  21
ATOM     21  N   UNL     1       2.242   8.826  17.497  0.00  0.00    +0.000 NA
ATOM     22  H   UNL     1       1.662   8.947  16.667  0.00  0.00    +0.000 HD
BRANCH  21  23
ATOM     23  C   UNL     1       1.658   9.559  18.619  0.00  0.00    +0.000 C 
BRANCH  23  24
ATOM     24  C   UNL     1       1.782  11.050  18.372  0.00  0.00    +0.000 C 
BRANCH  24  25
ATOM     25  C   UNL     1       0.582  11.765  18.979  0.00  0.00    +0.000 C 
BRANCH  25  26
ATOM     26  C   UNL     1       0.926  12.272  20.372  0.00  0.00    +0.000 C 
BRANCH  26  27
ATOM     27  C   UNL     1      -0.260  12.164  21.292  0.00  0.00    +0.000 A 
ATOM     28  C   UNL     1      -1.286  13.116  21.236  0.00  0.00    +0.000 A 
ATOM     29  C   UNL     1      -2.377  13.026  22.100  0.00  0.00    +0.000 A 
ATOM     30  C   UNL     1      -2.433  11.987  23.024  0.00  0.00    +0.000 A 
ATOM     31  C   UNL     1      -1.416  11.044  23.101  0.00  0.00    +0.000 A 
ATOM     32  C   UNL     1      -0.326  11.133  22.237  0.00  0.00    +0.000 A 
BRANCH  30  33
ATOM     33  O   UNL     1      -3.480  11.857  23.886  0.00  0.00    +0.000 OA
ATOM     34  H   UNL     1      -4.174  12.487  23.617  0.00  0.00    +0.000 HD
ENDBRANCH  30  33
ENDBRANCH  26  27
ENDBRANCH  25  26
ENDBRANCH  24  25
ENDBRANCH  23  24
ENDBRANCH  21  23
ENDBRANCH  20  21
ENDBRANCH  19  20
ENDBRANCH   9  19
TORSDOF 10
ENDMDL
MODEL 8
REMARK VINA RESULT:      -8.2      1.952      2.294
REMARK  Name = 
REMARK  12 active torsions:
REMARK  status: ('A' for Active; 'I' for Inactive)
REMARK    1  A    between atoms: C_1  and  C_2
REMARK    2  A    between atoms: C_5  and  C_6
REMARK    3  A    between atoms: C_7  and  C_8
REMARK    4  A    between atoms: C_16  and  C_17
REMARK    5  A    between atoms: C_17  and  C_18
REMARK    6  A    between atoms: C_18  and  N_19
REMARK    7  A    between atoms: N_19  and  C_20
REMARK    8  A    between atoms: C_20  and  C_21
REMARK    9  A    between atoms: C_21  and  C_22
REMARK   10  A    between atoms: C_22  and  C_23
REMARK   11  A    between atoms: C_23  and  C_24
REMARK   12  A    between atoms: C_27  and  O_28
REMARK                            x       y       z     vdW  Elec       q    Type
REMARK                         _______ _______ _______ _____ _____    ______ ____
ROOT
ATOM      1  C   UNL     1       4.275   4.387  17.191  0.00  0.00    +0.000 A 
ATOM      2  N   UNL     1       3.884   3.186  17.739  0.00  0.00    +0.000 N 
ATOM      3  C   UNL     1       2.898   3.340  18.678  0.00  0.00    +0.000 A 
ATOM      4  C   UNL     1       2.183   2.370  19.396  0.00  0.00    +0.000 A 
ATOM      5  C   UNL     1       1.246   2.803  20.338  0.00  0.00    +0.000 A 
ATOM      6  C   UNL     1       1.048   4.153  20.567  0.00  0.00    +0.000 A 
ATOM      7  C   UNL     1       1.770   5.104  19.839  0.00  0.00    +0.000 A 
ATOM      8  C   UNL     1       2.708   4.707  18.847  0.00  0.00    +0.000 A 
ATOM      9  C   UNL     1       3.573   5.377  17.895  0.00  0.00    +0.000 A 
ATOM     10  H   UNL     1       4.267   2.291  17.486  0.00  0.00    +0.000 HD
ENDROOT
BRANCH   1  17
ATOM     11  C   UNL     1       5.451   3.535  12.404  0.00  0.00    +0.000 C 
ATOM     12  C   UNL     1       5.862   4.071  13.744  0.00  0.00    +0.000 A 
ATOM     13  C   UNL     1       7.137   4.580  13.957  0.00  0.00    +0.000 A 
ATOM     14  C   UNL     1       7.503   5.021  15.228  0.00  0.00    +0.000 A 
ATOM     15  C   UNL     1       6.615   4.945  16.322  0.00  0.00    +0.000 A 
ATOM     16  C   UNL     1       7.155   5.360  17.665  0.00  0.00    +0.000 C 
ATOM     17  C   UNL     1       5.299   4.469  16.116  0.00  0.00    +0.000 A 
ATOM     18  C   UNL     1       4.955   4.052  14.814  0.00  0.00    +0.000 A 
ENDBRANCH   1  17
BRANCH   9  19
ATOM     19  C   UNL     1       3.700   6.863  17.651  0.00  0.00    +0.000 C 
BRANCH  19  20
ATOM     20  C   UNL     1       2.626   7.706  18.313  0.00  0.00    +0.000 C 
BRANCH  20  21
ATOM     21  N   UNL     1       1.947   8.617  17.394  0.00  0.00    +0.000 NA
ATOM     22  H   UNL     1       1.243   8.105  16.862  0.00  0.00    +0.000 HD
BRANCH  21  23
ATOM     23  C   UNL     1       1.301   9.650  18.202  0.00  0.00    +0.000 C 
BRANCH  23  24
ATOM     24  C   UNL     1       1.435   9.305  19.672  0.00  0.00    +0.000 C 
BRANCH  24  25
ATOM     25  C   UNL     1       0.096   9.514  20.366  0.00  0.00    +0.000 C 
BRANCH  25  26
ATOM     26  C   UNL     1       0.294  10.284  21.664  0.00  0.00    +0.000 C 
BRANCH  26  27
ATOM     27  C   UNL     1      -0.858  11.217  21.918  0.00  0.00    +0.000 A 
ATOM     28  C   UNL     1      -1.542  11.178  23.140  0.00  0.00    +0.000 A 
ATOM     29  C   UNL     1      -2.622  12.030  23.370  0.00  0.00    +0.000 A 
ATOM     30  C   UNL     1      -3.018  12.915  22.371  0.00  0.00    +0.000 A 
ATOM     31  C   UNL     1      -2.360  12.954  21.149  0.00  0.00    +0.000 A 
ATOM     32  C   UNL     1      -1.280  12.103  20.919  0.00  0.00    +0.000 A 
BRANCH  30  33
ATOM     33  O   UNL     1      -4.065  13.768  22.551  0.00  0.00    +0.000 OA
ATOM     34  H   UNL     1      -4.349  13.707  23.482  0.00  0.00    +0.000 HD
ENDBRANCH  30  33
ENDBRANCH  26  27
ENDBRANCH  25  26
ENDBRANCH  24  25
ENDBRANCH  23  24
ENDBRANCH  21  23
ENDBRANCH  20  21
ENDBRANCH  19  20
ENDBRANCH   9  19
TORSDOF 10
ENDMDL
MODEL 9
REMARK VINA RESULT:      -8.0      1.913      2.427
REMARK  Name = 
REMARK  12 active torsions:
REMARK  status: ('A' for Active; 'I' for Inactive)
REMARK    1  A    between atoms: C_1  and  C_2
REMARK    2  A    between atoms: C_5  and  C_6
REMARK    3  A    between atoms: C_7  and  C_8
REMARK    4  A    between atoms: C_16  and  C_17
REMARK    5  A    between atoms: C_17  and  C_18
REMARK    6  A    between atoms: C_18  and  N_19
REMARK    7  A    between atoms: N_19  and  C_20
REMARK    8  A    between atoms: C_20  and  C_21
REMARK    9  A    between atoms: C_21  and  C_22
REMARK   10  A    between atoms: C_22  and  C_23
REMARK   11  A    between atoms: C_23  and  C_24
REMARK   12  A    between atoms: C_27  and  O_28
REMARK                            x       y       z     vdW  Elec       q    Type
REMARK                         _______ _______ _______ _____ _____    ______ ____
ROOT
ATOM      1  C   UNL     1       4.338   4.396  17.304  0.00  0.00    +0.000 A 
ATOM      2  N   UNL     1       3.996   3.189  17.871  0.00  0.00    +0.000 N 
ATOM      3  C   UNL     1       3.007   3.317  18.811  0.00  0.00    +0.000 A 
ATOM      4  C   UNL     1       2.333   2.332  19.545  0.00  0.00    +0.000 A 
ATOM      5  C   UNL     1       1.382   2.741  20.484  0.00  0.00    +0.000 A 
ATOM      6  C   UNL     1       1.131   4.086  20.693  0.00  0.00    +0.000 A 
ATOM      7  C   UNL     1       1.813   5.053  19.948  0.00  0.00    +0.000 A 
ATOM      8  C   UNL     1       2.763   4.679  18.959  0.00  0.00    +0.000 A 
ATOM      9  C   UNL     1       3.598   5.367  17.994  0.00  0.00    +0.000 A 
ATOM     10  H   UNL     1       4.414   2.306  17.630  0.00  0.00    +0.000 HD
ENDROOT
BRANCH   1  17
ATOM     11  C   UNL     1       5.547   3.489  12.535  0.00  0.00    +0.000 C 
ATOM     12  C   UNL     1       5.933   4.076  13.860  0.00  0.00    +0.000 A 
ATOM     13  C   UNL     1       7.182   4.651  14.059  0.00  0.00    +0.000 A 
ATOM     14  C   UNL     1       7.528   5.139  15.317  0.00  0.00    +0.000 A 
ATOM     15  C   UNL     1       6.646   5.046  16.415  0.00  0.00    +0.000 A 
ATOM     16  C   UNL     1       7.168   5.519  17.747  0.00  0.00    +0.000 C 
ATOM     17  C   UNL     1       5.355   4.502  16.225  0.00  0.00    +0.000 A 
ATOM     18  C   UNL     1       5.029   4.038  14.933  0.00  0.00    +0.000 A 
ENDBRANCH   1  17
BRANCH   9  19
ATOM     19  C   UNL     1       3.666   6.854  17.728  0.00  0.00    +0.000 C 
BRANCH  19  20
ATOM     20  C   UNL     1       2.428   7.627  18.144  0.00  0.00    +0.000 C 
BRANCH  20  21
ATOM     21  N   UNL     1       2.408   9.006  17.660  0.00  0.00    +0.000 NA
ATOM     22  H   UNL     1       2.584   9.018  16.655  0.00  0.00    +0.000 HD
BRANCH  21  23
ATOM     23  C   UNL     1       1.078   9.546  17.935  0.00  0.00    +0.000 C 
BRANCH  23  24
ATOM     24  C   UNL     1       0.986   9.954  19.392  0.00  0.00    +0.000 C 
BRANCH  24  25
ATOM     25  C   UNL     1      -0.471   9.938  19.833  0.00  0.00    +0.000 C 
BRANCH  25  26
ATOM     26  C   UNL     1      -1.295  10.861  18.946  0.00  0.00    +0.000 C 
BRANCH  26  27
ATOM     27  C   UNL     1      -1.060  12.303  19.306  0.00  0.00    +0.000 A 
ATOM     28  C   UNL     1      -0.454  13.170  18.388  0.00  0.00    +0.000 A 
ATOM     29  C   UNL     1      -0.219  14.502  18.726  0.00  0.00    +0.000 A 
ATOM     30  C   UNL     1      -0.586  14.961  19.988  0.00  0.00    +0.000 A 
ATOM     31  C   UNL     1      -1.174  14.110  20.914  0.00  0.00    +0.000 A 
ATOM     32  C   UNL     1      -1.409  12.778  20.576  0.00  0.00    +0.000 A 
BRANCH  30  33
ATOM     33  O   UNL     1      -0.380  16.255  20.362  0.00  0.00    +0.000 OA
ATOM     34  H   UNL     1       0.152  16.690  19.670  0.00  0.00    +0.000 HD
ENDBRANCH  30  33
ENDBRANCH  26  27
ENDBRANCH  25  26
ENDBRANCH  24  25
ENDBRANCH  23  24
ENDBRANCH  21  23
ENDBRANCH  20  21
ENDBRANCH  19  20
ENDBRANCH   9  19
TORSDOF 10
ENDMDL
