MODEL 1
REMARK VINA RESULT:      -6.8      0.000      0.000
REMARK  Name = 
REMARK  6 active torsions:
REMARK  status: ('A' for Active; 'I' for Inactive)
REMARK    1  A    between atoms: C_1  and  C_2
REMARK    2  A    between atoms: C_2  and  O_3
REMARK    3  A    between atoms: O_3  and  C_4
REMARK    4  A    between atoms: C_4  and  C_6
REMARK    5  A    between atoms: C_12  and  C_14
REMARK    6  A    between atoms: C_22  and  C_23
REMARK                            x       y       z     vdW  Elec       q    Type
REMARK                         _______ _______ _______ _____ _____    ______ ____
ROOT
ATOM      1  C   UNL     1      -0.753  12.085  21.679  0.00  0.00    +0.000 A 
ATOM      2  S   UNL     1      -0.766  10.743  22.770  0.00  0.00    +0.000 S 
ATOM      3  C   UNL     1       0.183   9.812  21.676  0.00  0.00    +0.000 A 
ATOM      4  N   UNL     1       0.669   8.544  21.801  0.00  0.00    +0.000 NA
ATOM      5  C   UNL     1       1.293   8.220  20.696  0.00  0.00    +0.000 A 
ATOM      6  N   UNL     1       1.892   6.990  20.583  0.00  0.00    +0.000 N 
ATOM      7  C   UNL     1       2.363   6.402  19.434  0.00  0.00    +0.000 C 
ATOM      8  O   UNL     1       2.213   6.841  18.292  0.00  0.00    +0.000 OA
ATOM      9  S   UNL     1       1.397   9.425  19.483  0.00  0.00    +0.000 S 
ATOM     10  C   UNL     1       0.473  10.488  20.526  0.00  0.00    +0.000 A 
ATOM     11  C   UNL     1      -0.038  11.829  20.513  0.00  0.00    +0.000 A 
ATOM     12  C   UNL     1       0.207  12.741  19.362  0.00  0.00    +0.000 C 
ATOM     13  H   UNL     1       1.838   6.448  21.435  0.00  0.00    +0.000 HD
ENDROOT
BRANCH   7  14
ATOM     14  C   UNL     1       3.070   5.056  19.697  0.00  0.00    +0.000 C 
ATOM     15  C   UNL     1       2.375   4.224  20.787  0.00  0.00    +0.000 C 
ATOM     16  C   UNL     1       1.030   3.652  20.334  0.00  0.00    +0.000 C 
ATOM     17  C   UNL     1       1.142   2.886  19.020  0.00  0.00    +0.000 C 
ATOM     18  C   UNL     1       1.856   3.690  17.937  0.00  0.00    +0.000 C 
ATOM     19  C   UNL     1       3.209   4.213  18.420  0.00  0.00    +0.000 C 
ENDBRANCH   7  14
BRANCH   1  20
ATOM     20  C   UNL     1      -1.518  13.257  22.097  0.00  0.00    +0.000 C 
ATOM     21  O   UNL     1      -1.047  14.329  22.459  0.00  0.00    +0.000 OA
BRANCH  20  22
ATOM     22  O   UNL     1      -2.850  12.970  22.123  0.00  0.00    +0.000 OA
BRANCH  22  24
ATOM     23  C   UNL     1      -3.901  12.445  24.200  0.00  0.00    +0.000 C 
ATOM     24  C   UNL     1      -3.573  13.555  23.215  0.00  0.00    +0.000 C 
ENDBRANCH  22  24
ENDBRANCH  20  22
ENDBRANCH   1  20
TORSDOF 4
ENDMDL
MODEL 2
REMARK VINA RESULT:      -6.6      0.844      1.010
REMARK  Name = 
REMARK  6 active torsions:
REMARK  status: ('A' for Active; 'I' for Inactive)
REMARK    1  A    between atoms: C_1  and  C_2
REMARK    2  A    between atoms: C_2  and  O_3
REMARK    3  A    between atoms: O_3  and  C_4
REMARK    4  A    between atoms: C_4  and  C_6
REMARK    5  A    between atoms: C_12  and  C_14
REMARK    6  A    between atoms: C_22  and  C_23
REMARK                            x       y       z     vdW  Elec       q    Type
REMARK                         _______ _______ _______ _____ _____    ______ ____
ROOT
ATOM      1  C   UNL     1      -0.766  11.987  21.775  0.00  0.00    +0.000 A 
ATOM      2  S   UNL     1      -0.719  10.646  22.866  0.00  0.00    +0.000 S 
ATOM      3  C   UNL     1       0.212   9.732  21.743  0.00  0.00    +0.000 A 
ATOM      4  N   UNL     1       0.725   8.473  21.851  0.00  0.00    +0.000 NA
ATOM      5  C   UNL     1       1.320   8.160  20.728  0.00  0.00    +0.000 A 
ATOM      6  N   UNL     1       1.938   6.942  20.596  0.00  0.00    +0.000 N 
ATOM      7  C   UNL     1       2.383   6.362  19.432  0.00  0.00    +0.000 C 
ATOM      8  O   UNL     1       2.189   6.797  18.296  0.00  0.00    +0.000 OA
ATOM      9  S   UNL     1       1.363   9.367  19.512  0.00  0.00    +0.000 S 
ATOM     10  C   UNL     1       0.453  10.412  20.584  0.00  0.00    +0.000 A 
ATOM     11  C   UNL     1      -0.082  11.744  20.587  0.00  0.00    +0.000 A 
ATOM     12  C   UNL     1       0.109  12.660  19.429  0.00  0.00    +0.000 C 
ATOM     13  H   UNL     1       1.920   6.399  21.448  0.00  0.00    +0.000 HD
ENDROOT
BRANCH   7  14
ATOM     14  C   UNL     1       3.122   5.030  19.672  0.00  0.00    +0.000 C 
ATOM     15  C   UNL     1       2.489   4.194  20.797  0.00  0.00    +0.000 C 
ATOM     16  C   UNL     1       1.136   3.598  20.407  0.00  0.00    +0.000 C 
ATOM     17  C   UNL     1       1.203   2.823  19.095  0.00  0.00    +0.000 C 
ATOM     18  C   UNL     1       1.855   3.632  17.976  0.00  0.00    +0.000 C 
ATOM     19  C   UNL     1       3.219   4.179  18.396  0.00  0.00    +0.000 C 
ENDBRANCH   7  14
BRANCH   1  20
ATOM     20  C   UNL     1      -1.538  13.145  22.217  0.00  0.00    +0.000 C 
ATOM     21  O   UNL     1      -1.098  14.109  22.832  0.00  0.00    +0.000 OA
BRANCH  20  22
ATOM     22  O   UNL     1      -2.860  12.970  21.934  0.00  0.00    +0.000 OA
BRANCH  22  24
ATOM     23  C   UNL     1      -4.398  12.883  20.112  0.00  0.00    +0.000 C 
ATOM     24  C   UNL     1      -3.342  13.723  20.812  0.00  0.00    +0.000 C 
ENDBRANCH  22  24
ENDBRANCH  20  22
ENDBRANCH   1  20
TORSDOF 4
ENDMDL
MODEL 3
REMARK VINA RESULT:      -6.6      2.880      8.894
REMARK  Name = 
REMARK  6 active torsions:
REMARK  status: ('A' for Active; 'I' for Inactive)
REMARK    1  A    between atoms: C_1  and  C_2
REMARK    2  A    between atoms: C_2  and  O_3
REMARK    3  A    between atoms: O_3  and  C_4
REMARK    4  A    between atoms: C_4  and  C_6
REMARK    5  A    between atoms: C_12  and  C_14
REMARK    6  A    between atoms: C_22  and  C_23
REMARK                            x       y       z     vdW  Elec       q    Type
REMARK                         _______ _______ _______ _____ _____    ______ ____
ROOT
ATOM      1  C   UNL     1       3.710   5.236  18.694  0.00  0.00    +0.000 A 
ATOM      2  S   UNL     1       4.049   6.326  17.395  0.00  0.00    +0.000 S 
ATOM      3  C   UNL     1       3.005   7.510  18.081  0.00  0.00    +0.000 A 
ATOM      4  N   UNL     1       2.708   8.769  17.650  0.00  0.00    +0.000 NA
ATOM      5  C   UNL     1       1.819   9.294  18.457  0.00  0.00    +0.000 A 
ATOM      6  N   UNL     1       1.372  10.573  18.245  0.00  0.00    +0.000 N 
ATOM      7  C   UNL     1       0.284  11.176  18.829  0.00  0.00    +0.000 C 
ATOM      8  O   UNL     1      -0.540  10.619  19.556  0.00  0.00    +0.000 OA
ATOM      9  S   UNL     1       1.344   8.349  19.806  0.00  0.00    +0.000 S 
ATOM     10  C   UNL     1       2.411   7.081  19.233  0.00  0.00    +0.000 A 
ATOM     11  C   UNL     1       2.826   5.767  19.630  0.00  0.00    +0.000 A 
ATOM     12  C   UNL     1       2.320   5.137  20.881  0.00  0.00    +0.000 C 
ATOM     13  H   UNL     1       1.842  11.030  17.475  0.00  0.00    +0.000 HD
ENDROOT
BRANCH   7  14
ATOM     14  C   UNL     1       0.137  12.660  18.431  0.00  0.00    +0.000 C 
ATOM     15  C   UNL     1      -0.809  13.434  19.364  0.00  0.00    +0.000 C 
ATOM     16  C   UNL     1      -0.218  13.663  20.756  0.00  0.00    +0.000 C 
ATOM     17  C   UNL     1       1.167  14.300  20.698  0.00  0.00    +0.000 C 
ATOM     18  C   UNL     1       2.108  13.557  19.753  0.00  0.00    +0.000 C 
ATOM     19  C   UNL     1       1.493  13.381  18.365  0.00  0.00    +0.000 C 
ENDBRANCH   7  14
BRANCH   1  20
ATOM     20  C   UNL     1       4.341   3.922  18.609  0.00  0.00    +0.000 C 
ATOM     21  O   UNL     1       5.359   3.576  19.196  0.00  0.00    +0.000 OA
BRANCH  20  22
ATOM     22  O   UNL     1       3.692   3.142  17.699  0.00  0.00    +0.000 OA
BRANCH  22  24
ATOM     23  C   UNL     1       1.651   2.221  18.523  0.00  0.00    +0.000 C 
ATOM     24  C   UNL     1       3.116   1.942  18.233  0.00  0.00    +0.000 C 
ENDBRANCH  22  24
ENDBRANCH  20  22
ENDBRANCH   1  20
TORSDOF 4
ENDMDL
MODEL 4
REMARK VINA RESULT:      -6.6      0.933      1.074
REMARK  Name = 
REMARK  6 active torsions:
REMARK  status: ('A' for Active; 'I' for Inactive)
REMARK    1  A    between atoms: C_1  and  C_2
REMARK    2  A    between atoms: C_2  and  O_3
REMARK    3  A    between atoms: O_3  and  C_4
REMARK    4  A    between atoms: C_4  and  C_6
REMARK    5  A    between atoms: C_12  and  C_14
REMARK    6  A    between atoms: C_22  and  C_23
REMARK                            x       y       z     vdW  Elec       q    Type
REMARK                         _______ _______ _______ _____ _____    ______ ____
ROOT
ATOM      1  C   UNL     1      -0.835  12.152  21.776  0.00  0.00    +0.000 A 
ATOM      2  S   UNL     1      -0.814  10.786  22.838  0.00  0.00    +0.000 S 
ATOM      3  C   UNL     1       0.147   9.898  21.719  0.00  0.00    +0.000 A 
ATOM      4  N   UNL     1       0.658   8.639  21.813  0.00  0.00    +0.000 NA
ATOM      5  C   UNL     1       1.283   8.351  20.699  0.00  0.00    +0.000 A 
ATOM      6  N   UNL     1       1.906   7.137  20.556  0.00  0.00    +0.000 N 
ATOM      7  C   UNL     1       2.381   6.583  19.391  0.00  0.00    +0.000 C 
ATOM      8  O   UNL     1       2.216   7.043  18.260  0.00  0.00    +0.000 OA
ATOM      9  S   UNL     1       1.355   9.584  19.511  0.00  0.00    +0.000 S 
ATOM     10  C   UNL     1       0.416  10.605  20.582  0.00  0.00    +0.000 A 
ATOM     11  C   UNL     1      -0.121  11.935  20.601  0.00  0.00    +0.000 A 
ATOM     12  C   UNL     1       0.098  12.878  19.469  0.00  0.00    +0.000 C 
ATOM     13  H   UNL     1       1.867   6.575  21.395  0.00  0.00    +0.000 HD
ENDROOT
BRANCH   7  14
ATOM     14  C   UNL     1       3.117   5.247  19.620  0.00  0.00    +0.000 C 
ATOM     15  C   UNL     1       2.470   4.396  20.727  0.00  0.00    +0.000 C 
ATOM     16  C   UNL     1       1.120   3.807  20.313  0.00  0.00    +0.000 C 
ATOM     17  C   UNL     1       1.201   3.051  18.990  0.00  0.00    +0.000 C 
ATOM     18  C   UNL     1       1.867   3.875  17.891  0.00  0.00    +0.000 C 
ATOM     19  C   UNL     1       3.226   4.414  18.333  0.00  0.00    +0.000 C 
ENDBRANCH   7  14
BRANCH   1  20
ATOM     20  C   UNL     1      -1.620  13.298  22.224  0.00  0.00    +0.000 C 
ATOM     21  O   UNL     1      -2.242  14.068  21.502  0.00  0.00    +0.000 OA
BRANCH  20  22
ATOM     22  O   UNL     1      -1.495  13.462  23.572  0.00  0.00    +0.000 OA
BRANCH  22  24
ATOM     23  C   UNL     1      -1.300  15.320  25.056  0.00  0.00    +0.000 C 
ATOM     24  C   UNL     1      -2.228  14.568  24.116  0.00  0.00    +0.000 C 
ENDBRANCH  22  24
ENDBRANCH  20  22
ENDBRANCH   1  20
TORSDOF 4
ENDMDL
MODEL 5
REMARK VINA RESULT:      -6.6      0.868      1.646
REMARK  Name = 
REMARK  6 active torsions:
REMARK  status: ('A' for Active; 'I' for Inactive)
REMARK    1  A    between atoms: C_1  and  C_2
REMARK    2  A    between atoms: C_2  and  O_3
REMARK    3  A    between atoms: O_3  and  C_4
REMARK    4  A    between atoms: C_4  and  C_6
REMARK    5  A    between atoms: C_12  and  C_14
REMARK    6  A    between atoms: C_22  and  C_23
REMARK                            x       y       z     vdW  Elec       q    Type
REMARK                         _______ _______ _______ _____ _____    ______ ____
ROOT
ATOM      1  C   UNL     1      -0.684  11.923  21.838  0.00  0.00    +0.000 A 
ATOM      2  S   UNL     1      -0.607  10.573  22.916  0.00  0.00    +0.000 S 
ATOM      3  C   UNL     1       0.293   9.667  21.761  0.00  0.00    +0.000 A 
ATOM      4  N   UNL     1       0.808   8.408  21.846  0.00  0.00    +0.000 NA
ATOM      5  C   UNL     1       1.372   8.104  20.704  0.00  0.00    +0.000 A 
ATOM      6  N   UNL     1       1.985   6.887  20.545  0.00  0.00    +0.000 N 
ATOM      7  C   UNL     1       2.398   6.316  19.365  0.00  0.00    +0.000 C 
ATOM      8  O   UNL     1       2.173   6.760  18.238  0.00  0.00    +0.000 OA
ATOM      9  S   UNL     1       1.381   9.320  19.496  0.00  0.00    +0.000 S 
ATOM     10  C   UNL     1       0.501  10.357  20.601  0.00  0.00    +0.000 A 
ATOM     11  C   UNL     1      -0.034  11.688  20.629  0.00  0.00    +0.000 A 
ATOM     12  C   UNL     1       0.126  12.614  19.474  0.00  0.00    +0.000 C 
ATOM     13  H   UNL     1       1.991   6.338  21.393  0.00  0.00    +0.000 HD
ENDROOT
BRANCH   7  14
ATOM     14  C   UNL     1       3.144   4.982  19.574  0.00  0.00    +0.000 C 
ATOM     15  C   UNL     1       2.519   4.121  20.685  0.00  0.00    +0.000 C 
ATOM     16  C   UNL     1       1.166   3.527  20.289  0.00  0.00    +0.000 C 
ATOM     17  C   UNL     1       1.230   2.781  18.960  0.00  0.00    +0.000 C 
ATOM     18  C   UNL     1       1.874   3.614  17.856  0.00  0.00    +0.000 C 
ATOM     19  C   UNL     1       3.237   4.158  18.280  0.00  0.00    +0.000 C 
ENDBRANCH   7  14
BRANCH   1  20
ATOM     20  C   UNL     1      -1.443  13.076  22.310  0.00  0.00    +0.000 C 
ATOM     21  O   UNL     1      -2.617  13.317  22.054  0.00  0.00    +0.000 OA
BRANCH  20  22
ATOM     22  O   UNL     1      -0.636  13.921  23.012  0.00  0.00    +0.000 OA
BRANCH  22  24
ATOM     23  C   UNL     1       1.153  15.171  22.048  0.00  0.00    +0.000 C 
ATOM     24  C   UNL     1      -0.336  15.159  22.352  0.00  0.00    +0.000 C 
ENDBRANCH  22  24
ENDBRANCH  20  22
ENDBRANCH   1  20
TORSDOF 4
ENDMDL
MODEL 6
REMARK VINA RESULT:      -6.5      1.810      2.349
REMARK  Name = 
REMARK  6 active torsions:
REMARK  status: ('A' for Active; 'I' for Inactive)
REMARK    1  A    between atoms: C_1  and  C_2
REMARK    2  A    between atoms: C_2  and  O_3
REMARK    3  A    between atoms: O_3  and  C_4
REMARK    4  A    between atoms: C_4  and  C_6
REMARK    5  A    between atoms: C_12  and  C_14
REMARK    6  A    between atoms: C_22  and  C_23
REMARK                            x       y       z     vdW  Elec       q    Type
REMARK                         _______ _______ _______ _____ _____    ______ ____
ROOT
ATOM      1  C   UNL     1      -0.003  11.344  21.194  0.00  0.00    +0.000 A 
ATOM      2  S   UNL     1       0.558  11.377  19.558  0.00  0.00    +0.000 S 
ATOM      3  C   UNL     1       1.076   9.740  19.675  0.00  0.00    +0.000 A 
ATOM      4  N   UNL     1       1.652   8.936  18.737  0.00  0.00    +0.000 NA
ATOM      5  C   UNL     1       1.931   7.779  19.284  0.00  0.00    +0.000 A 
ATOM      6  N   UNL     1       2.501   6.784  18.531  0.00  0.00    +0.000 N 
ATOM      7  C   UNL     1       3.077   5.624  18.992  0.00  0.00    +0.000 C 
ATOM      8  O   UNL     1       3.278   5.346  20.175  0.00  0.00    +0.000 OA
ATOM      9  S   UNL     1       1.460   7.562  20.917  0.00  0.00    +0.000 S 
ATOM     10  C   UNL     1       0.852   9.205  20.911  0.00  0.00    +0.000 A 
ATOM     11  C   UNL     1       0.197  10.112  21.810  0.00  0.00    +0.000 A 
ATOM     12  C   UNL     1      -0.171   9.703  23.194  0.00  0.00    +0.000 C 
ATOM     13  H   UNL     1       2.603   7.039  17.558  0.00  0.00    +0.000 HD
ENDROOT
BRANCH   7  14
ATOM     14  C   UNL     1       3.526   4.686  17.853  0.00  0.00    +0.000 C 
ATOM     15  C   UNL     1       4.628   3.707  18.291  0.00  0.00    +0.000 C 
ATOM     16  C   UNL     1       4.120   2.625  19.246  0.00  0.00    +0.000 C 
ATOM     17  C   UNL     1       2.899   1.895  18.693  0.00  0.00    +0.000 C 
ATOM     18  C   UNL     1       1.809   2.857  18.228  0.00  0.00    +0.000 C 
ATOM     19  C   UNL     1       2.352   3.898  17.251  0.00  0.00    +0.000 C 
ENDBRANCH   7  14
BRANCH   1  20
ATOM     20  C   UNL     1      -0.549  12.596  21.708  0.00  0.00    +0.000 C 
ATOM     21  O   UNL     1       0.064  13.431  22.364  0.00  0.00    +0.000 OA
BRANCH  20  22
ATOM     22  O   UNL     1      -1.883  12.678  21.441  0.00  0.00    +0.000 OA
BRANCH  22  24
ATOM     23  C   UNL     1      -4.164  12.744  22.137  0.00  0.00    +0.000 C 
ATOM     24  C   UNL     1      -2.741  12.424  22.562  0.00  0.00    +0.000 C 
ENDBRANCH  22  24
ENDBRANCH  20  22
ENDBRANCH   1  20
TORSDOF 4
ENDMDL
MODEL 7
REMARK VINA RESULT:      -6.5      2.535      3.729
REMARK  Name = 
REMARK  6 active torsions:
REMARK  status: ('A' for Active; 'I' for Inactive)
REMARK    1  A    between atoms: C_1  and  C_2
REMARK    2  A    between atoms: C_2  and  O_3
REMARK    3  A    between atoms: O_3  and  C_4
REMARK    4  A    between atoms: C_4  and  C_6
REMARK    5  A    between atoms: C_12  and  C_14
REMARK    6  A    between atoms: C_22  and  C_23
REMARK                            x       y       z     vdW  Elec       q    Type
REMARK                         _______ _______ _______ _____ _____    ______ ____
ROOT
ATOM      1  C   UNL     1      -0.316  11.129  20.983  0.00  0.00    +0.000 A 
ATOM      2  S   UNL     1       0.301  11.417  19.393  0.00  0.00    +0.000 S 
ATOM      3  C   UNL     1       1.040   9.862  19.370  0.00  0.00    +0.000 A 
ATOM      4  N   UNL     1       1.761   9.252  18.388  0.00  0.00    +0.000 NA
ATOM      5  C   UNL     1       2.177   8.091  18.828  0.00  0.00    +0.000 A 
ATOM      6  N   UNL     1       2.913   7.271  18.009  0.00  0.00    +0.000 N 
ATOM      7  C   UNL     1       3.627   6.156  18.381  0.00  0.00    +0.000 C 
ATOM      8  O   UNL     1       3.816   5.780  19.538  0.00  0.00    +0.000 OA
ATOM      9  S   UNL     1       1.676   7.634  20.401  0.00  0.00    +0.000 S 
ATOM     10  C   UNL     1       0.842   9.170  20.530  0.00  0.00    +0.000 A 
ATOM     11  C   UNL     1       0.029   9.875  21.479  0.00  0.00    +0.000 A 
ATOM     12  C   UNL     1      -0.333   9.272  22.791  0.00  0.00    +0.000 C 
ATOM     13  H   UNL     1       3.018   7.642  17.075  0.00  0.00    +0.000 HD
ENDROOT
BRANCH   7  14
ATOM     14  C   UNL     1       4.251   5.418  17.178  0.00  0.00    +0.000 C 
ATOM     15  C   UNL     1       5.035   6.358  16.247  0.00  0.00    +0.000 C 
ATOM     16  C   UNL     1       6.341   6.858  16.867  0.00  0.00    +0.000 C 
ATOM     17  C   UNL     1       7.210   5.715  17.383  0.00  0.00    +0.000 C 
ATOM     18  C   UNL     1       6.435   4.759  18.287  0.00  0.00    +0.000 C 
ATOM     19  C   UNL     1       5.157   4.257  17.615  0.00  0.00    +0.000 C 
ENDBRANCH   7  14
BRANCH   1  20
ATOM     20  C   UNL     1      -1.054  12.232  21.592  0.00  0.00    +0.000 C 
ATOM     21  O   UNL     1      -2.206  12.556  21.330  0.00  0.00    +0.000 OA
BRANCH  20  22
ATOM     22  O   UNL     1      -0.249  12.930  22.442  0.00  0.00    +0.000 OA
BRANCH  22  24
ATOM     23  C   UNL     1       1.333  14.535  21.660  0.00  0.00    +0.000 C 
ATOM     24  C   UNL     1      -0.097  14.321  22.126  0.00  0.00    +0.000 C 
ENDBRANCH  22  24
ENDBRANCH  20  22
ENDBRANCH   1  20
TORSDOF 4
ENDMDL
MODEL 8
REMARK VINA RESULT:      -6.5      2.281      3.285
REMARK  Name = 
REMARK  6 active torsions:
REMARK  status: ('A' for Active; 'I' for Inactive)
REMARK    1  A    between atoms: C_1  and  C_2
REMARK    2  A    between atoms: C_2  and  O_3
REMARK    3  A    between atoms: O_3  and  C_4
REMARK    4  A    between atoms: C_4  and  C_6
REMARK    5  A    between atoms: C_12  and  C_14
REMARK    6  A    between atoms: C_22  and  C_23
REMARK                            x       y       z     vdW  Elec       q    Type
REMARK                         _______ _______ _______ _____ _____    ______ ____
ROOT
ATOM      1  C   UNL     1      -0.303  11.362  21.030  0.00  0.00    +0.000 A 
ATOM      2  S   UNL     1       0.299  11.582  19.424  0.00  0.00    +0.000 S 
ATOM      3  C   UNL     1       0.987  10.004  19.438  0.00  0.00    +0.000 A 
ATOM      4  N   UNL     1       1.675   9.341  18.466  0.00  0.00    +0.000 NA
ATOM      5  C   UNL     1       2.059   8.180  18.936  0.00  0.00    +0.000 A 
ATOM      6  N   UNL     1       2.757   7.313  18.133  0.00  0.00    +0.000 N 
ATOM      7  C   UNL     1       3.439   6.187  18.529  0.00  0.00    +0.000 C 
ATOM      8  O   UNL     1       3.633   5.841  19.695  0.00  0.00    +0.000 OA
ATOM      9  S   UNL     1       1.566   7.788  20.529  0.00  0.00    +0.000 S 
ATOM     10  C   UNL     1       0.785   9.354  20.622  0.00  0.00    +0.000 A 
ATOM     11  C   UNL     1       0.008  10.113  21.560  0.00  0.00    +0.000 A 
ATOM     12  C   UNL     1      -0.354   9.562  22.894  0.00  0.00    +0.000 C 
ATOM     13  H   UNL     1       2.860   7.652  17.187  0.00  0.00    +0.000 HD
ENDROOT
BRANCH   7  14
ATOM     14  C   UNL     1       4.022   5.393  17.341  0.00  0.00    +0.000 C 
ATOM     15  C   UNL     1       4.840   6.274  16.383  0.00  0.00    +0.000 C 
ATOM     16  C   UNL     1       6.172   6.730  16.984  0.00  0.00    +0.000 C 
ATOM     17  C   UNL     1       6.992   5.563  17.522  0.00  0.00    +0.000 C 
ATOM     18  C   UNL     1       6.183   4.664  18.453  0.00  0.00    +0.000 C 
ATOM     19  C   UNL     1       4.879   4.204  17.802  0.00  0.00    +0.000 C 
ENDBRANCH   7  14
BRANCH   1  20
ATOM     20  C   UNL     1      -0.997  12.506  21.615  0.00  0.00    +0.000 C 
ATOM     21  O   UNL     1      -0.577  13.211  22.525  0.00  0.00    +0.000 OA
BRANCH  20  22
ATOM     22  O   UNL     1      -2.240  12.637  21.071  0.00  0.00    +0.000 OA
BRANCH  22  24
ATOM     23  C   UNL     1      -4.616  12.775  21.245  0.00  0.00    +0.000 C 
ATOM     24  C   UNL     1      -3.312  12.701  22.022  0.00  0.00    +0.000 C 
ENDBRANCH  22  24
ENDBRANCH  20  22
ENDBRANCH   1  20
TORSDOF 4
ENDMDL
MODEL 9
REMARK VINA RESULT:      -6.4      1.160      1.600
REMARK  Name = 
REMARK  6 active torsions:
REMARK  status: ('A' for Active; 'I' for Inactive)
REMARK    1  A    between atoms: C_1  and  C_2
REMARK    2  A    between atoms: C_2  and  O_3
REMARK    3  A    between atoms: O_3  and  C_4
REMARK    4  A    between atoms: C_4  and  C_6
REMARK    5  A    between atoms: C_12  and  C_14
REMARK    6  A    between atoms: C_22  and  C_23
REMARK                            x       y       z     vdW  Elec       q    Type
REMARK                         _______ _______ _______ _____ _____    ______ ____
ROOT
ATOM      1  C   UNL     1      -0.996  11.257  22.421  0.00  0.00    +0.000 A 
ATOM      2  S   UNL     1      -0.515   9.810  23.239  0.00  0.00    +0.000 S 
ATOM      3  C   UNL     1       0.355   9.284  21.849  0.00  0.00    +0.000 A 
ATOM      4  N   UNL     1       1.098   8.158  21.658  0.00  0.00    +0.000 NA
ATOM      5  C   UNL     1       1.534   8.142  20.424  0.00  0.00    +0.000 A 
ATOM      6  N   UNL     1       2.330   7.112  19.990  0.00  0.00    +0.000 N 
ATOM      7  C   UNL     1       2.662   6.813  18.690  0.00  0.00    +0.000 C 
ATOM      8  O   UNL     1       2.196   7.360  17.689  0.00  0.00    +0.000 OA
ATOM      9  S   UNL     1       1.143   9.496  19.448  0.00  0.00    +0.000 S 
ATOM     10  C   UNL     1       0.261  10.161  20.808  0.00  0.00    +0.000 A 
ATOM     11  C   UNL     1      -0.499  11.337  21.123  0.00  0.00    +0.000 A 
ATOM     12  C   UNL     1      -0.683  12.432  20.132  0.00  0.00    +0.000 C 
ATOM     13  H   UNL     1       2.561   6.459  20.726  0.00  0.00    +0.000 HD
ENDROOT
BRANCH   7  14
ATOM     14  C   UNL     1       3.662   5.644  18.582  0.00  0.00    +0.000 C 
ATOM     15  C   UNL     1       3.721   4.794  19.862  0.00  0.00    +0.000 C 
ATOM     16  C   UNL     1       2.461   3.953  20.078  0.00  0.00    +0.000 C 
ATOM     17  C   UNL     1       2.111   3.113  18.854  0.00  0.00    +0.000 C 
ATOM     18  C   UNL     1       2.076   3.940  17.572  0.00  0.00    +0.000 C 
ATOM     19  C   UNL     1       3.366   4.736  17.378  0.00  0.00    +0.000 C 
ENDBRANCH   7  14
BRANCH   1  20
ATOM     20  C   UNL     1      -1.875  12.151  23.168  0.00  0.00    +0.000 C 
ATOM     21  O   UNL     1      -3.075  11.987  23.354  0.00  0.00    +0.000 OA
BRANCH  20  22
ATOM     22  O   UNL     1      -1.196  13.266  23.562  0.00  0.00    +0.000 OA
BRANCH  22  24
ATOM     23  C   UNL     1      -0.939  15.605  23.170  0.00  0.00    +0.000 C 
ATOM     24  C   UNL     1      -1.933  14.492  23.455  0.00  0.00    +0.000 C 
ENDBRANCH  22  24
ENDBRANCH  20  22
ENDBRANCH   1  20
TORSDOF 4
ENDMDL
