MODEL 1
REMARK VINA RESULT:      -8.5      0.000      0.000
REMARK  Name = 
REMARK  10 active torsions:
REMARK  status: ('A' for Active; 'I' for Inactive)
REMARK    1  A    between atoms: C_1  and  N_2
REMARK    2  A    between atoms: C_4  and  C_5
REMARK    3  A    between atoms: C_7  and  C_8
REMARK    4  A    between atoms: C_8  and  N_9
REMARK    5  A    between atoms: C_10  and  C_12
REMARK    6  A    between atoms: C_12  and  C_13
REMARK    7  A    between atoms: C_13  and  C_14
REMARK    8  A    between atoms: C_14  and  O_16
REMARK    9  A    between atoms: C_19  and  O_20
REMARK   10  A    between atoms: O_20  and  C_21
REMARK                            x       y       z     vdW  Elec       q    Type
REMARK                         _______ _______ _______ _____ _____    ______ ____
ROOT
ATOM      1  C   UNL     1       3.640   6.640  18.258  0.00  0.00    +0.000 A 
ATOM      2  C   UNL     1       3.140   7.853  17.739  0.00  0.00    +0.000 A 
ATOM      3  C   UNL     1       2.175   8.604  18.434  0.00  0.00    +0.000 A 
ATOM      4  C   UNL     1       1.686   8.118  19.649  0.00  0.00    +0.000 A 
ATOM      5  C   UNL     1       2.186   6.933  20.182  0.00  0.00    +0.000 A 
ATOM      6  C   UNL     1       3.123   6.161  19.478  0.00  0.00    +0.000 A 
ENDROOT
BRANCH   1  10
ATOM      7  C   UNL     1       5.357   4.599  14.121  0.00  0.00    +0.000 C 
ATOM      8  N   UNL     1       5.598   4.989  15.497  0.00  0.00    +0.000 N 
ATOM      9  C   UNL     1       4.596   5.630  16.242  0.00  0.00    +0.000 A 
ATOM     10  C   UNL     1       4.759   5.975  17.543  0.00  0.00    +0.000 A 
ATOM     11  C   UNL     1       6.030   5.697  18.153  0.00  0.00    +0.000 A 
ATOM     12  C   UNL     1       6.557   5.964  19.433  0.00  0.00    +0.000 A 
ATOM     13  C   UNL     1       7.841   5.451  19.449  0.00  0.00    +0.000 A 
ATOM     14  N   UNL     1       8.100   4.900  18.216  0.00  0.00    +0.000 N 
ATOM     15  C   UNL     1       7.004   5.065  17.414  0.00  0.00    +0.000 A 
ATOM     16  C   UNL     1       6.858   4.660  16.039  0.00  0.00    +0.000 A 
ATOM     17  O   UNL     1       7.749   4.099  15.407  0.00  0.00    +0.000 OA
ATOM     18  H   UNL     1       8.960   4.446  17.930  0.00  0.00    +0.000 HD
ENDBRANCH   1  10
BRANCH   3  19
ATOM     19  C   UNL     1       1.730   9.955  17.947  0.00  0.00    +0.000 C 
BRANCH  19  20
ATOM     20  N   UNL     1       0.308  10.046  17.729  0.00  0.00    +0.000 N 
ATOM     21  C   UNL     1      -0.440  10.876  18.533  0.00  0.00    +0.000 C 
ATOM     22  O   UNL     1       0.049  11.570  19.421  0.00  0.00    +0.000 OA
ATOM     23  H   UNL     1      -0.150   9.357  17.145  0.00  0.00    +0.000 HD
BRANCH  21  24
ATOM     24  C   UNL     1      -1.922  10.850  18.248  0.00  0.00    +0.000 C 
BRANCH  24  25
ATOM     25  C   UNL     1      -2.210   9.952  17.049  0.00  0.00    +0.000 C 
BRANCH  25  26
ATOM     26  C   UNL     1      -2.801  10.740  15.910  0.00  0.00    +0.000 C 
ATOM     27  O   UNL     1      -2.677  10.473  14.728  0.00  0.00    +0.000 OA
BRANCH  26  28
ATOM     28  O   UNL     1      -3.508  11.814  16.339  0.00  0.00    +0.000 OA
ATOM     29  H   UNL     1      -3.021  12.662  16.266  0.00  0.00    +0.000 HD
ENDBRANCH  26  28
ENDBRANCH  25  26
ENDBRANCH  24  25
ENDBRANCH  21  24
ENDBRANCH  19  20
ENDBRANCH   3  19
BRANCH   6  30
ATOM     30  O   UNL     1       3.584   4.957  19.989  0.00  0.00    +0.000 OA
BRANCH  30  31
ATOM     31  C   UNL     1       2.955   3.797  19.571  0.00  0.00    +0.000 A 
ATOM     32  C   UNL     1       3.607   2.817  18.812  0.00  0.00    +0.000 A 
ATOM     33  C   UNL     1       2.907   1.704  18.346  0.00  0.00    +0.000 A 
ATOM     34  C   UNL     1       1.570   1.530  18.694  0.00  0.00    +0.000 A 
ATOM     35  C   UNL     1       0.931   2.472  19.502  0.00  0.00    +0.000 A 
ATOM     36  C   UNL     1       1.621   3.608  19.940  0.00  0.00    +0.000 A 
ENDBRANCH  30  31
ENDBRANCH   6  30
TORSDOF 9
ENDMDL
MODEL 2
REMARK VINA RESULT:      -8.2      1.105      1.139
REMARK  Name = 
REMARK  10 active torsions:
REMARK  status: ('A' for Active; 'I' for Inactive)
REMARK    1  A    between atoms: C_1  and  N_2
REMARK    2  A    between atoms: C_4  and  C_5
REMARK    3  A    between atoms: C_7  and  C_8
REMARK    4  A    between atoms: C_8  and  N_9
REMARK    5  A    between atoms: C_10  and  C_12
REMARK    6  A    between atoms: C_12  and  C_13
REMARK    7  A    between atoms: C_13  and  C_14
REMARK    8  A    between atoms: C_14  and  O_16
REMARK    9  A    between atoms: C_19  and  O_20
REMARK   10  A    between atoms: O_20  and  C_21
REMARK                            x       y       z     vdW  Elec       q    Type
REMARK                         _______ _______ _______ _____ _____    ______ ____
ROOT
ATOM      1  C   UNL     1       3.544   6.915  18.145  0.00  0.00    +0.000 A 
ATOM      2  C   UNL     1       2.913   8.101  17.713  0.00  0.00    +0.000 A 
ATOM      3  C   UNL     1       1.934   8.736  18.499  0.00  0.00    +0.000 A 
ATOM      4  C   UNL     1       1.565   8.160  19.717  0.00  0.00    +0.000 A 
ATOM      5  C   UNL     1       2.195   7.002  20.163  0.00  0.00    +0.000 A 
ATOM      6  C   UNL     1       3.147   6.343  19.369  0.00  0.00    +0.000 A 
ENDROOT
BRANCH   1  10
ATOM      7  C   UNL     1       5.199   3.524  14.983  0.00  0.00    +0.000 C 
ATOM      8  N   UNL     1       5.465   4.716  15.766  0.00  0.00    +0.000 N 
ATOM      9  C   UNL     1       4.456   5.291  16.553  0.00  0.00    +0.000 A 
ATOM     10  C   UNL     1       4.668   6.380  17.334  0.00  0.00    +0.000 A 
ATOM     11  C   UNL     1       5.976   6.973  17.312  0.00  0.00    +0.000 A 
ATOM     12  C   UNL     1       6.522   8.114  17.934  0.00  0.00    +0.000 A 
ATOM     13  C   UNL     1       7.846   8.183  17.546  0.00  0.00    +0.000 A 
ATOM     14  N   UNL     1       8.104   7.129  16.701  0.00  0.00    +0.000 N 
ATOM     15  C   UNL     1       6.959   6.398  16.538  0.00  0.00    +0.000 A 
ATOM     16  C   UNL     1       6.779   5.228  15.718  0.00  0.00    +0.000 A 
ATOM     17  O   UNL     1       7.678   4.741  15.037  0.00  0.00    +0.000 OA
ATOM     18  H   UNL     1       8.990   6.918  16.258  0.00  0.00    +0.000 HD
ENDBRANCH   1  10
BRANCH   3  19
ATOM     19  C   UNL     1       1.348  10.063  18.103  0.00  0.00    +0.000 C 
BRANCH  19  20
ATOM     20  N   UNL     1      -0.025   9.978  17.674  0.00  0.00    +0.000 N 
ATOM     21  C   UNL     1      -1.021  10.364  18.541  0.00  0.00    +0.000 C 
ATOM     22  O   UNL     1      -0.799  10.805  19.665  0.00  0.00    +0.000 OA
ATOM     23  H   UNL     1      -0.254   9.449  16.841  0.00  0.00    +0.000 HD
BRANCH  21  24
ATOM     24  C   UNL     1      -2.420  10.182  18.004  0.00  0.00    +0.000 C 
BRANCH  24  25
ATOM     25  C   UNL     1      -2.774  11.330  17.063  0.00  0.00    +0.000 C 
BRANCH  25  26
ATOM     26  C   UNL     1      -3.283  10.813  15.744  0.00  0.00    +0.000 C 
ATOM     27  O   UNL     1      -2.587  10.447  14.813  0.00  0.00    +0.000 OA
BRANCH  26  28
ATOM     28  O   UNL     1      -4.637  10.793  15.686  0.00  0.00    +0.000 OA
ATOM     29  H   UNL     1      -5.053  10.203  16.349  0.00  0.00    +0.000 HD
ENDBRANCH  26  28
ENDBRANCH  25  26
ENDBRANCH  24  25
ENDBRANCH  21  24
ENDBRANCH  19  20
ENDBRANCH   3  19
BRANCH   6  30
ATOM     30  O   UNL     1       3.738   5.162  19.794  0.00  0.00    +0.000 OA
BRANCH  30  31
ATOM     31  C   UNL     1       3.091   3.975  19.498  0.00  0.00    +0.000 A 
ATOM     32  C   UNL     1       3.762   2.863  18.972  0.00  0.00    +0.000 A 
ATOM     33  C   UNL     1       3.053   1.716  18.614  0.00  0.00    +0.000 A 
ATOM     34  C   UNL     1       1.680   1.650  18.843  0.00  0.00    +0.000 A 
ATOM     35  C   UNL     1       1.017   2.732  19.424  0.00  0.00    +0.000 A 
ATOM     36  C   UNL     1       1.720   3.897  19.750  0.00  0.00    +0.000 A 
ENDBRANCH  30  31
ENDBRANCH   6  30
TORSDOF 9
ENDMDL
MODEL 3
REMARK VINA RESULT:      -8.1      0.813      1.260
REMARK  Name = 
REMARK  10 active torsions:
REMARK  status: ('A' for Active; 'I' for Inactive)
REMARK    1  A    between atoms: C_1  and  N_2
REMARK    2  A    between atoms: C_4  and  C_5
REMARK    3  A    between atoms: C_7  and  C_8
REMARK    4  A    between atoms: C_8  and  N_9
REMARK    5  A    between atoms: C_10  and  C_12
REMARK    6  A    between atoms: C_12  and  C_13
REMARK    7  A    between atoms: C_13  and  C_14
REMARK    8  A    between atoms: C_14  and  O_16
REMARK    9  A    between atoms: C_19  and  O_20
REMARK   10  A    between atoms: O_20  and  C_21
REMARK                            x       y       z     vdW  Elec       q    Type
REMARK                         _______ _______ _______ _____ _____    ______ ____
ROOT
ATOM      1  C   UNL     1       3.537   6.587  18.454  0.00  0.00    +0.000 A 
ATOM      2  C   UNL     1       3.030   7.818  17.988  0.00  0.00    +0.000 A 
ATOM      3  C   UNL     1       2.060   8.532  18.716  0.00  0.00    +0.000 A 
ATOM      4  C   UNL     1       1.575   7.990  19.908  0.00  0.00    +0.000 A 
ATOM      5  C   UNL     1       2.081   6.786  20.388  0.00  0.00    +0.000 A 
ATOM      6  C   UNL     1       3.023   6.051  19.651  0.00  0.00    +0.000 A 
ENDROOT
BRANCH   1  10
ATOM      7  C   UNL     1       5.242   4.672  14.252  0.00  0.00    +0.000 C 
ATOM      8  N   UNL     1       5.493   5.037  15.632  0.00  0.00    +0.000 N 
ATOM      9  C   UNL     1       4.488   5.641  16.404  0.00  0.00    +0.000 A 
ATOM     10  C   UNL     1       4.661   5.961  17.710  0.00  0.00    +0.000 A 
ATOM     11  C   UNL     1       5.944   5.696  18.298  0.00  0.00    +0.000 A 
ATOM     12  C   UNL     1       6.483   5.947  19.577  0.00  0.00    +0.000 A 
ATOM     13  C   UNL     1       7.777   5.460  19.566  0.00  0.00    +0.000 A 
ATOM     14  N   UNL     1       8.031   4.941  18.318  0.00  0.00    +0.000 N 
ATOM     15  C   UNL     1       6.922   5.101  17.533  0.00  0.00    +0.000 A 
ATOM     16  C   UNL     1       6.766   4.723  16.152  0.00  0.00    +0.000 A 
ATOM     17  O   UNL     1       7.661   4.194  15.496  0.00  0.00    +0.000 OA
ATOM     18  H   UNL     1       8.896   4.511  18.011  0.00  0.00    +0.000 HD
ENDBRANCH   1  10
BRANCH   3  19
ATOM     19  C   UNL     1       1.608   9.901  18.289  0.00  0.00    +0.000 C 
BRANCH  19  20
ATOM     20  N   UNL     1       0.441   9.881  17.444  0.00  0.00    +0.000 N 
ATOM     21  C   UNL     1      -0.790  10.151  17.997  0.00  0.00    +0.000 C 
ATOM     22  O   UNL     1      -0.946  10.435  19.181  0.00  0.00    +0.000 OA
ATOM     23  H   UNL     1       0.503   9.470  16.521  0.00  0.00    +0.000 HD
BRANCH  21  24
ATOM     24  C   UNL     1      -1.944  10.049  17.029  0.00  0.00    +0.000 C 
BRANCH  24  25
ATOM     25  C   UNL     1      -3.268  10.076  17.786  0.00  0.00    +0.000 C 
BRANCH  25  26
ATOM     26  C   UNL     1      -3.912  11.434  17.704  0.00  0.00    +0.000 C 
ATOM     27  O   UNL     1      -4.654  11.811  16.815  0.00  0.00    +0.000 OA
BRANCH  26  28
ATOM     28  O   UNL     1      -3.575  12.228  18.750  0.00  0.00    +0.000 OA
ATOM     29  H   UNL     1      -2.846  12.853  18.553  0.00  0.00    +0.000 HD
ENDBRANCH  26  28
ENDBRANCH  25  26
ENDBRANCH  24  25
ENDBRANCH  21  24
ENDBRANCH  19  20
ENDBRANCH   3  19
BRANCH   6  30
ATOM     30  O   UNL     1       3.491   4.828  20.107  0.00  0.00    +0.000 OA
BRANCH  30  31
ATOM     31  C   UNL     1       2.961   3.682  19.539  0.00  0.00    +0.000 A 
ATOM     32  C   UNL     1       1.583   3.483  19.391  0.00  0.00    +0.000 A 
ATOM     33  C   UNL     1       1.095   2.277  18.887  0.00  0.00    +0.000 A 
ATOM     34  C   UNL     1       1.984   1.291  18.467  0.00  0.00    +0.000 A 
ATOM     35  C   UNL     1       3.360   1.508  18.555  0.00  0.00    +0.000 A 
ATOM     36  C   UNL     1       3.852   2.702  19.094  0.00  0.00    +0.000 A 
ENDBRANCH  30  31
ENDBRANCH   6  30
TORSDOF 9
ENDMDL
MODEL 4
REMARK VINA RESULT:      -8.0      1.009      2.222
REMARK  Name = 
REMARK  10 active torsions:
REMARK  status: ('A' for Active; 'I' for Inactive)
REMARK    1  A    between atoms: C_1  and  N_2
REMARK    2  A    between atoms: C_4  and  C_5
REMARK    3  A    between atoms: C_7  and  C_8
REMARK    4  A    between atoms: C_8  and  N_9
REMARK    5  A    between atoms: C_10  and  C_12
REMARK    6  A    between atoms: C_12  and  C_13
REMARK    7  A    between atoms: C_13  and  C_14
REMARK    8  A    between atoms: C_14  and  O_16
REMARK    9  A    between atoms: C_19  and  O_20
REMARK   10  A    between atoms: O_20  and  C_21
REMARK                            x       y       z     vdW  Elec       q    Type
REMARK                         _______ _______ _______ _____ _____    ______ ____
ROOT
ATOM      1  C   UNL     1       3.637   6.551  18.755  0.00  0.00    +0.000 A 
ATOM      2  C   UNL     1       3.322   7.747  18.074  0.00  0.00    +0.000 A 
ATOM      3  C   UNL     1       2.203   8.521  18.435  0.00  0.00    +0.000 A 
ATOM      4  C   UNL     1       1.377   8.075  19.469  0.00  0.00    +0.000 A 
ATOM      5  C   UNL     1       1.688   6.908  20.161  0.00  0.00    +0.000 A 
ATOM      6  C   UNL     1       2.783   6.113  19.786  0.00  0.00    +0.000 A 
ENDROOT
BRANCH   1  10
ATOM      7  C   UNL     1       8.341   5.637  19.878  0.00  0.00    +0.000 C 
ATOM      8  N   UNL     1       7.218   5.408  18.991  0.00  0.00    +0.000 N 
ATOM      9  C   UNL     1       5.976   6.013  19.241  0.00  0.00    +0.000 A 
ATOM     10  C   UNL     1       4.909   5.864  18.418  0.00  0.00    +0.000 A 
ATOM     11  C   UNL     1       5.068   5.019  17.267  0.00  0.00    +0.000 A 
ATOM     12  C   UNL     1       4.179   4.601  16.255  0.00  0.00    +0.000 A 
ATOM     13  C   UNL     1       4.903   3.791  15.400  0.00  0.00    +0.000 A 
ATOM     14  N   UNL     1       6.190   3.701  15.877  0.00  0.00    +0.000 N 
ATOM     15  C   UNL     1       6.291   4.433  17.029  0.00  0.00    +0.000 A 
ATOM     16  C   UNL     1       7.452   4.590  17.866  0.00  0.00    +0.000 A 
ATOM     17  O   UNL     1       8.530   4.051  17.626  0.00  0.00    +0.000 OA
ATOM     18  H   UNL     1       6.950   3.178  15.459  0.00  0.00    +0.000 HD
ENDBRANCH   1  10
BRANCH   3  19
ATOM     19  C   UNL     1       1.933   9.855  17.797  0.00  0.00    +0.000 C 
BRANCH  19  20
ATOM     20  N   UNL     1       0.576  10.309  17.971  0.00  0.00    +0.000 N 
ATOM     21  C   UNL     1       0.341  11.449  18.706  0.00  0.00    +0.000 C 
ATOM     22  O   UNL     1       1.238  12.121  19.207  0.00  0.00    +0.000 OA
ATOM     23  H   UNL     1      -0.190   9.687  17.741  0.00  0.00    +0.000 HD
BRANCH  21  24
ATOM     24  C   UNL     1      -1.118  11.798  18.866  0.00  0.00    +0.000 C 
BRANCH  24  25
ATOM     25  C   UNL     1      -1.989  10.718  18.230  0.00  0.00    +0.000 C 
BRANCH  25  26
ATOM     26  C   UNL     1      -2.947  11.311  17.231  0.00  0.00    +0.000 C 
ATOM     27  O   UNL     1      -4.139  11.481  17.412  0.00  0.00    +0.000 OA
BRANCH  26  28
ATOM     28  O   UNL     1      -2.336  11.650  16.070  0.00  0.00    +0.000 OA
ATOM     29  H   UNL     1      -2.113  10.883  15.502  0.00  0.00    +0.000 HD
ENDBRANCH  26  28
ENDBRANCH  25  26
ENDBRANCH  24  25
ENDBRANCH  21  24
ENDBRANCH  19  20
ENDBRANCH   3  19
BRANCH   6  30
ATOM     30  O   UNL     1       3.063   4.926  20.445  0.00  0.00    +0.000 OA
BRANCH  30  31
ATOM     31  C   UNL     1       2.732   3.741  19.810  0.00  0.00    +0.000 A 
ATOM     32  C   UNL     1       3.677   2.742  19.540  0.00  0.00    +0.000 A 
ATOM     33  C   UNL     1       3.311   1.602  18.825  0.00  0.00    +0.000 A 
ATOM     34  C   UNL     1       1.986   1.422  18.435  0.00  0.00    +0.000 A 
ATOM     35  C   UNL     1       1.028   2.386  18.755  0.00  0.00    +0.000 A 
ATOM     36  C   UNL     1       1.400   3.548  19.440  0.00  0.00    +0.000 A 
ENDBRANCH  30  31
ENDBRANCH   6  30
TORSDOF 9
ENDMDL
MODEL 5
REMARK VINA RESULT:      -8.0      1.119      1.493
REMARK  Name = 
REMARK  10 active torsions:
REMARK  status: ('A' for Active; 'I' for Inactive)
REMARK    1  A    between atoms: C_1  and  N_2
REMARK    2  A    between atoms: C_4  and  C_5
REMARK    3  A    between atoms: C_7  and  C_8
REMARK    4  A    between atoms: C_8  and  N_9
REMARK    5  A    between atoms: C_10  and  C_12
REMARK    6  A    between atoms: C_12  and  C_13
REMARK    7  A    between atoms: C_13  and  C_14
REMARK    8  A    between atoms: C_14  and  O_16
REMARK    9  A    between atoms: C_19  and  O_20
REMARK   10  A    between atoms: O_20  and  C_21
REMARK                            x       y       z     vdW  Elec       q    Type
REMARK                         _______ _______ _______ _____ _____    ______ ____
ROOT
ATOM      1  C   UNL     1       3.521   6.956  18.068  0.00  0.00    +0.000 A 
ATOM      2  C   UNL     1       2.883   8.126  17.602  0.00  0.00    +0.000 A 
ATOM      3  C   UNL     1       1.891   8.770  18.363  0.00  0.00    +0.000 A 
ATOM      4  C   UNL     1       1.515   8.219  19.590  0.00  0.00    +0.000 A 
ATOM      5  C   UNL     1       2.151   7.078  20.070  0.00  0.00    +0.000 A 
ATOM      6  C   UNL     1       3.117   6.410  19.302  0.00  0.00    +0.000 A 
ENDROOT
BRANCH   1  10
ATOM      7  C   UNL     1       5.229   3.534  14.969  0.00  0.00    +0.000 C 
ATOM      8  N   UNL     1       5.482   4.733  15.744  0.00  0.00    +0.000 N 
ATOM      9  C   UNL     1       4.460   5.317  16.508  0.00  0.00    +0.000 A 
ATOM     10  C   UNL     1       4.658   6.413  17.282  0.00  0.00    +0.000 A 
ATOM     11  C   UNL     1       5.967   7.005  17.276  0.00  0.00    +0.000 A 
ATOM     12  C   UNL     1       6.503   8.153  17.896  0.00  0.00    +0.000 A 
ATOM     13  C   UNL     1       7.834   8.218  17.530  0.00  0.00    +0.000 A 
ATOM     14  N   UNL     1       8.105   7.156  16.700  0.00  0.00    +0.000 N 
ATOM     15  C   UNL     1       6.963   6.423  16.525  0.00  0.00    +0.000 A 
ATOM     16  C   UNL     1       6.796   5.245  15.713  0.00  0.00    +0.000 A 
ATOM     17  O   UNL     1       7.706   4.751  15.052  0.00  0.00    +0.000 OA
ATOM     18  H   UNL     1       8.999   6.940  16.274  0.00  0.00    +0.000 HD
ENDBRANCH   1  10
BRANCH   3  19
ATOM     19  C   UNL     1       1.297  10.081  17.929  0.00  0.00    +0.000 C 
BRANCH  19  20
ATOM     20  N   UNL     1      -0.142  10.111  18.005  0.00  0.00    +0.000 N 
ATOM     21  C   UNL     1      -0.765  11.257  18.444  0.00  0.00    +0.000 C 
ATOM     22  O   UNL     1      -0.154  12.276  18.755  0.00  0.00    +0.000 OA
ATOM     23  H   UNL     1      -0.662   9.244  17.942  0.00  0.00    +0.000 HD
BRANCH  21  24
ATOM     24  C   UNL     1      -2.268  11.155  18.532  0.00  0.00    +0.000 C 
BRANCH  24  25
ATOM     25  C   UNL     1      -2.806  10.312  17.380  0.00  0.00    +0.000 C 
BRANCH  25  26
ATOM     26  C   UNL     1      -3.684  11.131  16.472  0.00  0.00    +0.000 C 
ATOM     27  O   UNL     1      -4.841  11.438  16.699  0.00  0.00    +0.000 OA
BRANCH  26  28
ATOM     28  O   UNL     1      -3.045  11.506  15.337  0.00  0.00    +0.000 OA
ATOM     29  H   UNL     1      -3.639  11.600  14.562  0.00  0.00    +0.000 HD
ENDBRANCH  26  28
ENDBRANCH  25  26
ENDBRANCH  24  25
ENDBRANCH  21  24
ENDBRANCH  19  20
ENDBRANCH   3  19
BRANCH   6  30
ATOM     30  O   UNL     1       3.715   5.246  19.762  0.00  0.00    +0.000 OA
BRANCH  30  31
ATOM     31  C   UNL     1       3.095   4.044  19.469  0.00  0.00    +0.000 A 
ATOM     32  C   UNL     1       1.710   3.862  19.586  0.00  0.00    +0.000 A 
ATOM     33  C   UNL     1       1.142   2.609  19.359  0.00  0.00    +0.000 A 
ATOM     34  C   UNL     1       1.944   1.547  18.948  0.00  0.00    +0.000 A 
ATOM     35  C   UNL     1       3.316   1.738  18.770  0.00  0.00    +0.000 A 
ATOM     36  C   UNL     1       3.894   2.985  19.033  0.00  0.00    +0.000 A 
ENDBRANCH  30  31
ENDBRANCH   6  30
TORSDOF 9
ENDMDL
MODEL 6
REMARK VINA RESULT:      -7.9      1.976      2.458
REMARK  Name = 
REMARK  10 active torsions:
REMARK  status: ('A' for Active; 'I' for Inactive)
REMARK    1  A    between atoms: C_1  and  N_2
REMARK    2  A    between atoms: C_4  and  C_5
REMARK    3  A    between atoms: C_7  and  C_8
REMARK    4  A    between atoms: C_8  and  N_9
REMARK    5  A    between atoms: C_10  and  C_12
REMARK    6  A    between atoms: C_12  and  C_13
REMARK    7  A    between atoms: C_13  and  C_14
REMARK    8  A    between atoms: C_14  and  O_16
REMARK    9  A    between atoms: C_19  and  O_20
REMARK   10  A    between atoms: O_20  and  C_21
REMARK                            x       y       z     vdW  Elec       q    Type
REMARK                         _______ _______ _______ _____ _____    ______ ____
ROOT
ATOM      1  C   UNL     1       3.666   6.707  18.192  0.00  0.00    +0.000 A 
ATOM      2  C   UNL     1       3.221   7.931  17.649  0.00  0.00    +0.000 A 
ATOM      3  C   UNL     1       2.266   8.723  18.314  0.00  0.00    +0.000 A 
ATOM      4  C   UNL     1       1.732   8.266  19.521  0.00  0.00    +0.000 A 
ATOM      5  C   UNL     1       2.176   7.071  20.077  0.00  0.00    +0.000 A 
ATOM      6  C   UNL     1       3.103   6.259  19.403  0.00  0.00    +0.000 A 
ENDROOT
BRANCH   1  10
ATOM      7  C   UNL     1       5.380   4.493  14.144  0.00  0.00    +0.000 C 
ATOM      8  N   UNL     1       5.616   4.925  15.508  0.00  0.00    +0.000 N 
ATOM      9  C   UNL     1       4.621   5.611  16.221  0.00  0.00    +0.000 A 
ATOM     10  C   UNL     1       4.778   5.997  17.511  0.00  0.00    +0.000 A 
ATOM     11  C   UNL     1       6.037   5.715  18.143  0.00  0.00    +0.000 A 
ATOM     12  C   UNL     1       6.558   6.015  19.418  0.00  0.00    +0.000 A 
ATOM     13  C   UNL     1       7.831   5.477  19.465  0.00  0.00    +0.000 A 
ATOM     14  N   UNL     1       8.091   4.880  18.253  0.00  0.00    +0.000 N 
ATOM     15  C   UNL     1       7.006   5.039  17.435  0.00  0.00    +0.000 A 
ATOM     16  C   UNL     1       6.864   4.591  16.074  0.00  0.00    +0.000 A 
ATOM     17  O   UNL     1       7.750   3.991  15.469  0.00  0.00    +0.000 OA
ATOM     18  H   UNL     1       8.943   4.400  17.992  0.00  0.00    +0.000 HD
ENDBRANCH   1  10
BRANCH   3  19
ATOM     19  C   UNL     1       1.881  10.083  17.803  0.00  0.00    +0.000 C 
BRANCH  19  20
ATOM     20  N   UNL     1       0.652  10.581  18.368  0.00  0.00    +0.000 N 
ATOM     21  C   UNL     1       0.684  11.716  19.144  0.00  0.00    +0.000 C 
ATOM     22  O   UNL     1       1.713  12.350  19.364  0.00  0.00    +0.000 OA
ATOM     23  H   UNL     1      -0.170   9.989  18.368  0.00  0.00    +0.000 HD
BRANCH  21  24
ATOM     24  C   UNL     1      -0.652  12.113  19.725  0.00  0.00    +0.000 C 
BRANCH  24  25
ATOM     25  C   UNL     1      -1.038  11.159  20.851  0.00  0.00    +0.000 C 
BRANCH  25  26
ATOM     26  C   UNL     1      -0.426  11.586  22.158  0.00  0.00    +0.000 C 
ATOM     27  O   UNL     1      -0.427  10.930  23.185  0.00  0.00    +0.000 OA
BRANCH  26  28
ATOM     28  O   UNL     1       0.145  12.813  22.084  0.00  0.00    +0.000 OA
ATOM     29  H   UNL     1       0.935  12.917  22.655  0.00  0.00    +0.000 HD
ENDBRANCH  26  28
ENDBRANCH  25  26
ENDBRANCH  24  25
ENDBRANCH  21  24
ENDBRANCH  19  20
ENDBRANCH   3  19
BRANCH   6  30
ATOM     30  O   UNL     1       3.509   5.045  19.936  0.00  0.00    +0.000 OA
BRANCH  30  31
ATOM     31  C   UNL     1       2.832   3.906  19.535  0.00  0.00    +0.000 A 
ATOM     32  C   UNL     1       3.452   2.874  18.817  0.00  0.00    +0.000 A 
ATOM     33  C   UNL     1       2.708   1.785  18.365  0.00  0.00    +0.000 A 
ATOM     34  C   UNL     1       1.356   1.687  18.685  0.00  0.00    +0.000 A 
ATOM     35  C   UNL     1       0.747   2.682  19.452  0.00  0.00    +0.000 A 
ATOM     36  C   UNL     1       1.482   3.794  19.876  0.00  0.00    +0.000 A 
ENDBRANCH  30  31
ENDBRANCH   6  30
TORSDOF 9
ENDMDL
MODEL 7
REMARK VINA RESULT:      -7.8      1.401      2.473
REMARK  Name = 
REMARK  10 active torsions:
REMARK  status: ('A' for Active; 'I' for Inactive)
REMARK    1  A    between atoms: C_1  and  N_2
REMARK    2  A    between atoms: C_4  and  C_5
REMARK    3  A    between atoms: C_7  and  C_8
REMARK    4  A    between atoms: C_8  and  N_9
REMARK    5  A    between atoms: C_10  and  C_12
REMARK    6  A    between atoms: C_12  and  C_13
REMARK    7  A    between atoms: C_13  and  C_14
REMARK    8  A    between atoms: C_14  and  O_16
REMARK    9  A    between atoms: C_19  and  O_20
REMARK   10  A    between atoms: O_20  and  C_21
REMARK                            x       y       z     vdW  Elec       q    Type
REMARK                         _______ _______ _______ _____ _____    ______ ____
ROOT
ATOM      1  C   UNL     1       3.649   6.484  17.707  0.00  0.00    +0.000 A 
ATOM      2  C   UNL     1       3.583   7.892  17.649  0.00  0.00    +0.000 A 
ATOM      3  C   UNL     1       2.364   8.575  17.813  0.00  0.00    +0.000 A 
ATOM      4  C   UNL     1       1.196   7.836  18.010  0.00  0.00    +0.000 A 
ATOM      5  C   UNL     1       1.250   6.448  18.090  0.00  0.00    +0.000 A 
ATOM      6  C   UNL     1       2.456   5.757  17.893  0.00  0.00    +0.000 A 
ENDROOT
BRANCH   1  10
ATOM      7  C   UNL     1       7.859   5.410  20.021  0.00  0.00    +0.000 C 
ATOM      8  N   UNL     1       7.046   5.302  18.825  0.00  0.00    +0.000 N 
ATOM      9  C   UNL     1       5.766   5.876  18.779  0.00  0.00    +0.000 A 
ATOM     10  C   UNL     1       4.986   5.839  17.670  0.00  0.00    +0.000 A 
ATOM     11  C   UNL     1       5.496   5.147  16.519  0.00  0.00    +0.000 A 
ATOM     12  C   UNL     1       4.950   4.867  15.249  0.00  0.00    +0.000 A 
ATOM     13  C   UNL     1       5.914   4.170  14.547  0.00  0.00    +0.000 A 
ATOM     14  N   UNL     1       7.012   4.013  15.361  0.00  0.00    +0.000 N 
ATOM     15  C   UNL     1       6.754   4.591  16.574  0.00  0.00    +0.000 A 
ATOM     16  C   UNL     1       7.620   4.634  17.723  0.00  0.00    +0.000 A 
ATOM     17  O   UNL     1       8.738   4.124  17.740  0.00  0.00    +0.000 OA
ATOM     18  H   UNL     1       7.877   3.544  15.119  0.00  0.00    +0.000 HD
ENDBRANCH   1  10
BRANCH   3  19
ATOM     19  C   UNL     1       2.307  10.076  17.875  0.00  0.00    +0.000 C 
BRANCH  19  20
ATOM     20  N   UNL     1       0.973  10.593  18.045  0.00  0.00    +0.000 N 
ATOM     21  C   UNL     1       0.583  11.043  19.285  0.00  0.00    +0.000 C 
ATOM     22  O   UNL     1       1.328  11.052  20.261  0.00  0.00    +0.000 OA
ATOM     23  H   UNL     1       0.280  10.427  17.325  0.00  0.00    +0.000 HD
BRANCH  21  24
ATOM     24  C   UNL     1      -0.850  11.511  19.356  0.00  0.00    +0.000 C 
BRANCH  24  25
ATOM     25  C   UNL     1      -1.267  12.130  18.026  0.00  0.00    +0.000 C 
BRANCH  25  26
ATOM     26  C   UNL     1      -2.211  11.226  17.279  0.00  0.00    +0.000 C 
ATOM     27  O   UNL     1      -2.011  10.051  17.026  0.00  0.00    +0.000 OA
BRANCH  26  28
ATOM     28  O   UNL     1      -3.344  11.865  16.899  0.00  0.00    +0.000 OA
ATOM     29  H   UNL     1      -3.382  12.804  17.179  0.00  0.00    +0.000 HD
ENDBRANCH  26  28
ENDBRANCH  25  26
ENDBRANCH  24  25
ENDBRANCH  21  24
ENDBRANCH  19  20
ENDBRANCH   3  19
BRANCH   6  30
ATOM     30  O   UNL     1       2.500   4.371  17.925  0.00  0.00    +0.000 OA
BRANCH  30  31
ATOM     31  C   UNL     1       2.420   3.752  19.160  0.00  0.00    +0.000 A 
ATOM     32  C   UNL     1       3.536   3.187  19.793  0.00  0.00    +0.000 A 
ATOM     33  C   UNL     1       3.390   2.502  20.999  0.00  0.00    +0.000 A 
ATOM     34  C   UNL     1       2.141   2.437  21.613  0.00  0.00    +0.000 A 
ATOM     35  C   UNL     1       1.038   3.051  21.018  0.00  0.00    +0.000 A 
ATOM     36  C   UNL     1       1.174   3.707  19.789  0.00  0.00    +0.000 A 
ENDBRANCH  30  31
ENDBRANCH   6  30
TORSDOF 9
ENDMDL
MODEL 8
REMARK VINA RESULT:      -7.8      8.003     11.276
REMARK  Name = 
REMARK  10 active torsions:
REMARK  status: ('A' for Active; 'I' for Inactive)
REMARK    1  A    between atoms: C_1  and  N_2
REMARK    2  A    between atoms: C_4  and  C_5
REMARK    3  A    between atoms: C_7  and  C_8
REMARK    4  A    between atoms: C_8  and  N_9
REMARK    5  A    between atoms: C_10  and  C_12
REMARK    6  A    between atoms: C_12  and  C_13
REMARK    7  A    between atoms: C_13  and  C_14
REMARK    8  A    between atoms: C_14  and  O_16
REMARK    9  A    between atoms: C_19  and  O_20
REMARK   10  A    between atoms: O_20  and  C_21
REMARK                            x       y       z     vdW  Elec       q    Type
REMARK                         _______ _______ _______ _____ _____    ______ ____
ROOT
ATOM      1  C   UNL     1       9.323  12.958  18.978  0.00  0.00    +0.000 A 
ATOM      2  C   UNL     1       8.743  11.981  18.142  0.00  0.00    +0.000 A 
ATOM      3  C   UNL     1       8.871  10.608  18.423  0.00  0.00    +0.000 A 
ATOM      4  C   UNL     1       9.613  10.213  19.538  0.00  0.00    +0.000 A 
ATOM      5  C   UNL     1      10.174  11.167  20.381  0.00  0.00    +0.000 A 
ATOM      6  C   UNL     1      10.079  12.537  20.089  0.00  0.00    +0.000 A 
ENDROOT
BRANCH   1  10
ATOM      7  C   UNL     1       6.244  16.771  19.437  0.00  0.00    +0.000 C 
ATOM      8  N   UNL     1       7.510  16.260  18.950  0.00  0.00    +0.000 N 
ATOM      9  C   UNL     1       7.873  14.923  19.175  0.00  0.00    +0.000 A 
ATOM     10  C   UNL     1       9.026  14.387  18.703  0.00  0.00    +0.000 A 
ATOM     11  C   UNL     1       9.915  15.251  17.976  0.00  0.00    +0.000 A 
ATOM     12  C   UNL     1      11.190  15.055  17.408  0.00  0.00    +0.000 A 
ATOM     13  C   UNL     1      11.553  16.254  16.823  0.00  0.00    +0.000 A 
ATOM     14  N   UNL     1      10.542  17.162  17.037  0.00  0.00    +0.000 N 
ATOM     15  C   UNL     1       9.548  16.560  17.759  0.00  0.00    +0.000 A 
ATOM     16  C   UNL     1       8.321  17.156  18.221  0.00  0.00    +0.000 A 
ATOM     17  O   UNL     1       8.024  18.329  18.012  0.00  0.00    +0.000 OA
ATOM     18  H   UNL     1      10.524  18.125  16.723  0.00  0.00    +0.000 HD
ENDBRANCH   1  10
BRANCH   3  19
ATOM     19  C   UNL     1       8.154   9.569  17.607  0.00  0.00    +0.000 C 
BRANCH  19  20
ATOM     20  N   UNL     1       8.291   8.234  18.131  0.00  0.00    +0.000 N 
ATOM     21  C   UNL     1       7.428   7.253  17.697  0.00  0.00    +0.000 C 
ATOM     22  O   UNL     1       6.553   7.452  16.859  0.00  0.00    +0.000 OA
ATOM     23  H   UNL     1       8.865   8.078  18.950  0.00  0.00    +0.000 HD
BRANCH  21  24
ATOM     24  C   UNL     1       7.632   5.909  18.352  0.00  0.00    +0.000 C 
BRANCH  24  25
ATOM     25  C   UNL     1       7.376   4.791  17.347  0.00  0.00    +0.000 C 
BRANCH  25  26
ATOM     26  C   UNL     1       6.038   4.143  17.585  0.00  0.00    +0.000 C 
ATOM     27  O   UNL     1       5.163   4.005  16.749  0.00  0.00    +0.000 OA
BRANCH  26  28
ATOM     28  O   UNL     1       5.894   3.713  18.862  0.00  0.00    +0.000 OA
ATOM     29  H   UNL     1       4.982   3.808  19.210  0.00  0.00    +0.000 HD
ENDBRANCH  26  28
ENDBRANCH  25  26
ENDBRANCH  24  25
ENDBRANCH  21  24
ENDBRANCH  19  20
ENDBRANCH   3  19
BRANCH   6  30
ATOM     30  O   UNL     1      10.680  13.484  20.905  0.00  0.00    +0.000 OA
BRANCH  30  31
ATOM     31  C   UNL     1       9.904  14.071  21.890  0.00  0.00    +0.000 A 
ATOM     32  C   UNL     1      10.043  15.417  22.256  0.00  0.00    +0.000 A 
ATOM     33  C   UNL     1       9.295  15.941  23.310  0.00  0.00    +0.000 A 
ATOM     34  C   UNL     1       8.357  15.142  23.960  0.00  0.00    +0.000 A 
ATOM     35  C   UNL     1       8.170  13.818  23.559  0.00  0.00    +0.000 A 
ATOM     36  C   UNL     1       8.945  13.279  22.526  0.00  0.00    +0.000 A 
ENDBRANCH  30  31
ENDBRANCH   6  30
TORSDOF 9
ENDMDL
MODEL 9
REMARK VINA RESULT:      -7.7      0.879      2.290
REMARK  Name = 
REMARK  10 active torsions:
REMARK  status: ('A' for Active; 'I' for Inactive)
REMARK    1  A    between atoms: C_1  and  N_2
REMARK    2  A    between atoms: C_4  and  C_5
REMARK    3  A    between atoms: C_7  and  C_8
REMARK    4  A    between atoms: C_8  and  N_9
REMARK    5  A    between atoms: C_10  and  C_12
REMARK    6  A    between atoms: C_12  and  C_13
REMARK    7  A    between atoms: C_13  and  C_14
REMARK    8  A    between atoms: C_14  and  O_16
REMARK    9  A    between atoms: C_19  and  O_20
REMARK   10  A    between atoms: O_20  and  C_21
REMARK                            x       y       z     vdW  Elec       q    Type
REMARK                         _______ _______ _______ _____ _____    ______ ____
ROOT
ATOM      1  C   UNL     1       3.505   6.512  18.868  0.00  0.00    +0.000 A 
ATOM      2  C   UNL     1       3.130   7.711  18.227  0.00  0.00    +0.000 A 
ATOM      3  C   UNL     1       2.020   8.459  18.663  0.00  0.00    +0.000 A 
ATOM      4  C   UNL     1       1.264   7.982  19.736  0.00  0.00    +0.000 A 
ATOM      5  C   UNL     1       1.635   6.811  20.390  0.00  0.00    +0.000 A 
ATOM      6  C   UNL     1       2.720   6.042  19.939  0.00  0.00    +0.000 A 
ENDROOT
BRANCH   1  10
ATOM      7  C   UNL     1       8.317   5.793  19.615  0.00  0.00    +0.000 C 
ATOM      8  N   UNL     1       7.131   5.495  18.835  0.00  0.00    +0.000 N 
ATOM      9  C   UNL     1       5.895   6.068  19.170  0.00  0.00    +0.000 A 
ATOM     10  C   UNL     1       4.768   5.853  18.448  0.00  0.00    +0.000 A 
ATOM     11  C   UNL     1       4.858   4.970  17.318  0.00  0.00    +0.000 A 
ATOM     12  C   UNL     1       3.902   4.485  16.402  0.00  0.00    +0.000 A 
ATOM     13  C   UNL     1       4.579   3.667  15.517  0.00  0.00    +0.000 A 
ATOM     14  N   UNL     1       5.904   3.637  15.884  0.00  0.00    +0.000 N 
ATOM     15  C   UNL     1       6.077   4.415  16.996  0.00  0.00    +0.000 A 
ATOM     16  C   UNL     1       7.298   4.642  17.724  0.00  0.00    +0.000 A 
ATOM     17  O   UNL     1       8.370   4.129  17.412  0.00  0.00    +0.000 OA
ATOM     18  H   UNL     1       6.644   3.123  15.421  0.00  0.00    +0.000 HD
ENDBRANCH   1  10
BRANCH   3  19
ATOM     19  C   UNL     1       1.690   9.797  18.064  0.00  0.00    +0.000 C 
BRANCH  19  20
ATOM     20  N   UNL     1       0.307   9.929  17.683  0.00  0.00    +0.000 N 
ATOM     21  C   UNL     1      -0.520  10.733  18.434  0.00  0.00    +0.000 C 
ATOM     22  O   UNL     1      -0.132  11.371  19.409  0.00  0.00    +0.000 OA
ATOM     23  H   UNL     1      -0.088   9.281  17.013  0.00  0.00    +0.000 HD
BRANCH  21  24
ATOM     24  C   UNL     1      -1.957  10.753  17.972  0.00  0.00    +0.000 C 
BRANCH  24  25
ATOM     25  C   UNL     1      -2.086  10.045  16.627  0.00  0.00    +0.000 C 
BRANCH  25  26
ATOM     26  C   UNL     1      -3.180  10.658  15.794  0.00  0.00    +0.000 C 
ATOM     27  O   UNL     1      -4.031  11.428  16.203  0.00  0.00    +0.000 OA
BRANCH  26  28
ATOM     28  O   UNL     1      -3.128  10.258  14.500  0.00  0.00    +0.000 OA
ATOM     29  H   UNL     1      -2.385  10.650  13.994  0.00  0.00    +0.000 HD
ENDBRANCH  26  28
ENDBRANCH  25  26
ENDBRANCH  24  25
ENDBRANCH  21  24
ENDBRANCH  19  20
ENDBRANCH   3  19
BRANCH   6  30
ATOM     30  O   UNL     1       3.058   4.850  20.562  0.00  0.00    +0.000 OA
BRANCH  30  31
ATOM     31  C   UNL     1       2.857   3.675  19.859  0.00  0.00    +0.000 A 
ATOM     32  C   UNL     1       1.639   3.366  19.239  0.00  0.00    +0.000 A 
ATOM     33  C   UNL     1       1.460   2.134  18.612  0.00  0.00    +0.000 A 
ATOM     34  C   UNL     1       2.518   1.230  18.543  0.00  0.00    +0.000 A 
ATOM     35  C   UNL     1       3.753   1.557  19.105  0.00  0.00    +0.000 A 
ATOM     36  C   UNL     1       3.924   2.778  19.767  0.00  0.00    +0.000 A 
ENDBRANCH  30  31
ENDBRANCH   6  30
TORSDOF 9
ENDMDL
