MODEL 1
REMARK VINA RESULT:      -7.1      0.000      0.000
REMARK  Name = 
REMARK  4 active torsions:
REMARK  status: ('A' for Active; 'I' for Inactive)
REMARK    1  A    between atoms: C_1  and  C_2
REMARK    2  A    between atoms: C_5  and  C_6
REMARK    3  A    between atoms: C_11  and  C_12
REMARK    4  A    between atoms: N_23  and  C_24
REMARK                            x       y       z     vdW  Elec       q    Type
REMARK                         _______ _______ _______ _____ _____    ______ ____
ROOT
ATOM      1  C   UNL     1       8.739  15.642  18.586  0.00  0.00    +0.000 C 
ATOM      2  O   UNL     1       9.326  15.417  17.524  0.00  0.00    +0.000 OA
ATOM      3  N   UNL     1       9.393  15.740  19.812  0.00  0.00    +0.000 N 
ATOM      4  C   UNL     1      10.749  15.530  19.739  0.00  0.00    +0.000 C 
ATOM      5  S   UNL     1      12.007  16.463  19.224  0.00  0.00    +0.000 S 
ATOM      6  C   UNL     1      10.943  14.292  20.526  0.00  0.00    +0.000 C 
ATOM      7  N   UNL     1      10.213  14.359  21.603  0.00  0.00    +0.000 NA
ATOM      8  C   UNL     1       8.977  15.100  21.094  0.00  0.00    +0.000 C 
ATOM      9  C   UNL     1       7.871  14.027  20.990  0.00  0.00    +0.000 C 
ATOM     10  C   UNL     1       7.629  13.365  22.346  0.00  0.00    +0.000 C 
ATOM     11  N   UNL     1       7.225  14.328  23.373  0.00  0.00    +0.000 NA
ATOM     12  C   UNL     1       5.851  14.784  23.197  0.00  0.00    +0.000 C 
ATOM     13  C   UNL     1       8.193  15.428  23.499  0.00  0.00    +0.000 C 
ATOM     14  C   UNL     1       8.593  16.117  22.181  0.00  0.00    +0.000 C 
ENDROOT
BRANCH   1  19
ATOM     15  C   UNL     1       2.998  16.082  18.169  0.00  0.00    +0.000 C 
ATOM     16  C   UNL     1       4.489  15.961  18.266  0.00  0.00    +0.000 A 
ATOM     17  C   UNL     1       5.155  14.836  17.760  0.00  0.00    +0.000 A 
ATOM     18  C   UNL     1       6.543  14.745  17.868  0.00  0.00    +0.000 A 
ATOM     19  C   UNL     1       7.274  15.767  18.491  0.00  0.00    +0.000 A 
ATOM     20  C   UNL     1       6.617  16.905  18.962  0.00  0.00    +0.000 A 
ATOM     21  C   UNL     1       5.229  16.982  18.875  0.00  0.00    +0.000 A 
ENDBRANCH   1  19
BRANCH   6  22
ATOM     22  C   UNL     1      11.149  12.960  19.871  0.00  0.00    +0.000 A 
ATOM     23  C   UNL     1      11.101  12.934  18.470  0.00  0.00    +0.000 A 
ATOM     24  C   UNL     1      10.286  11.997  17.834  0.00  0.00    +0.000 A 
ATOM     25  C   UNL     1       9.604  11.051  18.590  0.00  0.00    +0.000 A 
ATOM     26  F   UNL     1       8.674  10.287  18.005  0.00  0.00    +0.000 F 
ATOM     27  C   UNL     1       9.817  10.941  19.959  0.00  0.00    +0.000 A 
ATOM     28  C   UNL     1      10.638  11.870  20.601  0.00  0.00    +0.000 A 
ENDBRANCH   6  22
TORSDOF 2
ENDMDL
MODEL 2
REMARK VINA RESULT:      -6.6      0.735      1.196
REMARK  Name = 
REMARK  4 active torsions:
REMARK  status: ('A' for Active; 'I' for Inactive)
REMARK    1  A    between atoms: C_1  and  C_2
REMARK    2  A    between atoms: C_5  and  C_6
REMARK    3  A    between atoms: C_11  and  C_12
REMARK    4  A    between atoms: N_23  and  C_24
REMARK                            x       y       z     vdW  Elec       q    Type
REMARK                         _______ _______ _______ _____ _____    ______ ____
ROOT
ATOM      1  C   UNL     1       8.522  16.178  18.469  0.00  0.00    +0.000 C 
ATOM      2  O   UNL     1       9.048  16.226  17.354  0.00  0.00    +0.000 OA
ATOM      3  N   UNL     1       9.249  16.223  19.657  0.00  0.00    +0.000 N 
ATOM      4  C   UNL     1      10.609  16.290  19.476  0.00  0.00    +0.000 C 
ATOM      5  S   UNL     1      11.628  17.512  19.045  0.00  0.00    +0.000 S 
ATOM      6  C   UNL     1      11.091  15.013  20.046  0.00  0.00    +0.000 C 
ATOM      7  N   UNL     1      10.454  14.781  21.159  0.00  0.00    +0.000 NA
ATOM      8  C   UNL     1       9.066  15.336  20.843  0.00  0.00    +0.000 C 
ATOM      9  C   UNL     1       8.168  14.097  20.633  0.00  0.00    +0.000 C 
ATOM     10  C   UNL     1       8.167  13.212  21.879  0.00  0.00    +0.000 C 
ATOM     11  N   UNL     1       7.683  13.920  23.066  0.00  0.00    +0.000 NA
ATOM     12  C   UNL     1       6.239  14.124  23.041  0.00  0.00    +0.000 C 
ATOM     13  C   UNL     1       8.442  15.156  23.309  0.00  0.00    +0.000 C 
ATOM     14  C   UNL     1       8.596  16.093  22.097  0.00  0.00    +0.000 C 
ENDROOT
BRANCH   1  19
ATOM     15  C   UNL     1       2.775  15.640  18.549  0.00  0.00    +0.000 C 
ATOM     16  C   UNL     1       4.267  15.785  18.541  0.00  0.00    +0.000 A 
ATOM     17  C   UNL     1       4.894  16.826  19.240  0.00  0.00    +0.000 A 
ATOM     18  C   UNL     1       6.284  16.942  19.211  0.00  0.00    +0.000 A 
ATOM     19  C   UNL     1       7.056  16.030  18.477  0.00  0.00    +0.000 A 
ATOM     20  C   UNL     1       6.437  14.971  17.811  0.00  0.00    +0.000 A 
ATOM     21  C   UNL     1       5.048  14.872  17.822  0.00  0.00    +0.000 A 
ENDBRANCH   1  19
BRANCH   6  22
ATOM     22  C   UNL     1      11.480  13.854  19.179  0.00  0.00    +0.000 A 
ATOM     23  C   UNL     1      10.908  13.806  17.900  0.00  0.00    +0.000 A 
ATOM     24  C   UNL     1      10.294  12.629  17.472  0.00  0.00    +0.000 A 
ATOM     25  C   UNL     1      10.333  11.499  18.279  0.00  0.00    +0.000 A 
ATOM     26  F   UNL     1       9.580  10.438  17.964  0.00  0.00    +0.000 F 
ATOM     27  C   UNL     1      11.080  11.482  19.451  0.00  0.00    +0.000 A 
ATOM     28  C   UNL     1      11.704  12.655  19.881  0.00  0.00    +0.000 A 
ENDBRANCH   6  22
TORSDOF 2
ENDMDL
MODEL 3
REMARK VINA RESULT:      -6.4      9.582     11.232
REMARK  Name = 
REMARK  4 active torsions:
REMARK  status: ('A' for Active; 'I' for Inactive)
REMARK    1  A    between atoms: C_1  and  C_2
REMARK    2  A    between atoms: C_5  and  C_6
REMARK    3  A    between atoms: C_11  and  C_12
REMARK    4  A    between atoms: N_23  and  C_24
REMARK                            x       y       z     vdW  Elec       q    Type
REMARK                         _______ _______ _______ _____ _____    ______ ____
ROOT
ATOM      1  C   UNL     1       4.828   6.526  18.017  0.00  0.00    +0.000 C 
ATOM      2  O   UNL     1       5.567   7.322  17.431  0.00  0.00    +0.000 OA
ATOM      3  N   UNL     1       5.088   5.160  18.096  0.00  0.00    +0.000 N 
ATOM      4  C   UNL     1       6.225   4.770  17.432  0.00  0.00    +0.000 C 
ATOM      5  S   UNL     1       7.831   4.889  17.784  0.00  0.00    +0.000 S 
ATOM      6  C   UNL     1       5.708   3.899  16.354  0.00  0.00    +0.000 C 
ATOM      7  N   UNL     1       4.778   3.129  16.845  0.00  0.00    +0.000 NA
ATOM      8  C   UNL     1       4.112   4.056  17.862  0.00  0.00    +0.000 C 
ATOM      9  C   UNL     1       2.766   4.463  17.223  0.00  0.00    +0.000 C 
ATOM     10  C   UNL     1       1.915   3.229  16.921  0.00  0.00    +0.000 C 
ATOM     11  N   UNL     1       1.622   2.446  18.123  0.00  0.00    +0.000 NA
ATOM     12  C   UNL     1       0.632   3.089  18.979  0.00  0.00    +0.000 C 
ATOM     13  C   UNL     1       2.850   2.066  18.837  0.00  0.00    +0.000 C 
ATOM     14  C   UNL     1       3.840   3.212  19.117  0.00  0.00    +0.000 C 
ENDROOT
BRANCH   1  19
ATOM     15  C   UNL     1       0.061   8.850  20.299  0.00  0.00    +0.000 C 
ATOM     16  C   UNL     1       1.302   8.258  19.701  0.00  0.00    +0.000 A 
ATOM     17  C   UNL     1       1.803   8.721  18.477  0.00  0.00    +0.000 A 
ATOM     18  C   UNL     1       2.957   8.150  17.938  0.00  0.00    +0.000 A 
ATOM     19  C   UNL     1       3.609   7.107  18.610  0.00  0.00    +0.000 A 
ATOM     20  C   UNL     1       3.134   6.669  19.848  0.00  0.00    +0.000 A 
ATOM     21  C   UNL     1       1.969   7.225  20.371  0.00  0.00    +0.000 A 
ENDBRANCH   1  19
BRANCH   6  22
ATOM     22  C   UNL     1       5.580   4.378  14.939  0.00  0.00    +0.000 A 
ATOM     23  C   UNL     1       4.938   3.515  14.040  0.00  0.00    +0.000 A 
ATOM     24  C   UNL     1       5.556   3.217  12.825  0.00  0.00    +0.000 A 
ATOM     25  C   UNL     1       6.750   3.842  12.487  0.00  0.00    +0.000 A 
ATOM     26  F   UNL     1       7.441   3.412  11.424  0.00  0.00    +0.000 F 
ATOM     27  C   UNL     1       7.277   4.853  13.281  0.00  0.00    +0.000 A 
ATOM     28  C   UNL     1       6.660   5.163  14.494  0.00  0.00    +0.000 A 
ENDBRANCH   6  22
TORSDOF 2
ENDMDL
MODEL 4
REMARK VINA RESULT:      -6.0      1.835      2.468
REMARK  Name = 
REMARK  4 active torsions:
REMARK  status: ('A' for Active; 'I' for Inactive)
REMARK    1  A    between atoms: C_1  and  C_2
REMARK    2  A    between atoms: C_5  and  C_6
REMARK    3  A    between atoms: C_11  and  C_12
REMARK    4  A    between atoms: N_23  and  C_24
REMARK                            x       y       z     vdW  Elec       q    Type
REMARK                         _______ _______ _______ _____ _____    ______ ____
ROOT
ATOM      1  C   UNL     1       6.273  15.286  18.245  0.00  0.00    +0.000 C 
ATOM      2  O   UNL     1       6.677  14.670  17.255  0.00  0.00    +0.000 OA
ATOM      3  N   UNL     1       7.124  15.874  19.178  0.00  0.00    +0.000 N 
ATOM      4  C   UNL     1       8.458  15.678  18.915  0.00  0.00    +0.000 C 
ATOM      5  S   UNL     1       9.505  16.354  17.836  0.00  0.00    +0.000 S 
ATOM      6  C   UNL     1       8.913  14.857  20.059  0.00  0.00    +0.000 C 
ATOM      7  N   UNL     1       8.386  15.330  21.152  0.00  0.00    +0.000 NA
ATOM      8  C   UNL     1       7.011  15.786  20.663  0.00  0.00    +0.000 C 
ATOM      9  C   UNL     1       6.016  14.738  21.207  0.00  0.00    +0.000 C 
ATOM     10  C   UNL     1       6.090  14.662  22.732  0.00  0.00    +0.000 C 
ATOM     11  N   UNL     1       5.785  15.944  23.370  0.00  0.00    +0.000 NA
ATOM     12  C   UNL     1       4.364  16.268  23.318  0.00  0.00    +0.000 C 
ATOM     13  C   UNL     1       6.647  17.023  22.863  0.00  0.00    +0.000 C 
ATOM     14  C   UNL     1       6.732  17.142  21.330  0.00  0.00    +0.000 C 
ENDROOT
BRANCH   1  19
ATOM     15  C   UNL     1       0.535  15.417  18.872  0.00  0.00    +0.000 C 
ATOM     16  C   UNL     1       2.024  15.373  18.700  0.00  0.00    +0.000 A 
ATOM     17  C   UNL     1       2.682  14.165  18.429  0.00  0.00    +0.000 A 
ATOM     18  C   UNL     1       4.070  14.150  18.280  0.00  0.00    +0.000 A 
ATOM     19  C   UNL     1       4.809  15.334  18.412  0.00  0.00    +0.000 A 
ATOM     20  C   UNL     1       4.152  16.544  18.645  0.00  0.00    +0.000 A 
ATOM     21  C   UNL     1       2.770  16.552  18.817  0.00  0.00    +0.000 A 
ENDBRANCH   1  19
BRANCH   6  22
ATOM     22  C   UNL     1       9.127  13.378  19.938  0.00  0.00    +0.000 A 
ATOM     23  C   UNL     1       9.890  12.770  20.945  0.00  0.00    +0.000 A 
ATOM     24  C   UNL     1      10.953  11.940  20.586  0.00  0.00    +0.000 A 
ATOM     25  C   UNL     1      11.187  11.661  19.245  0.00  0.00    +0.000 A 
ATOM     26  F   UNL     1      12.316  11.035  18.890  0.00  0.00    +0.000 F 
ATOM     27  C   UNL     1      10.305  12.091  18.261  0.00  0.00    +0.000 A 
ATOM     28  C   UNL     1       9.234  12.914  18.613  0.00  0.00    +0.000 A 
ENDBRANCH   6  22
TORSDOF 2
ENDMDL
MODEL 5
REMARK VINA RESULT:      -5.7      2.480      5.277
REMARK  Name = 
REMARK  4 active torsions:
REMARK  status: ('A' for Active; 'I' for Inactive)
REMARK    1  A    between atoms: C_1  and  C_2
REMARK    2  A    between atoms: C_5  and  C_6
REMARK    3  A    between atoms: C_11  and  C_12
REMARK    4  A    between atoms: N_23  and  C_24
REMARK                            x       y       z     vdW  Elec       q    Type
REMARK                         _______ _______ _______ _____ _____    ______ ____
ROOT
ATOM      1  C   UNL     1       9.465  15.069  21.868  0.00  0.00    +0.000 C 
ATOM      2  O   UNL     1       9.210  16.246  22.135  0.00  0.00    +0.000 OA
ATOM      3  N   UNL     1      10.499  14.687  21.017  0.00  0.00    +0.000 N 
ATOM      4  C   UNL     1      11.189  15.741  20.470  0.00  0.00    +0.000 C 
ATOM      5  S   UNL     1      12.333  16.768  21.066  0.00  0.00    +0.000 S 
ATOM      6  C   UNL     1      10.895  15.628  19.025  0.00  0.00    +0.000 C 
ATOM      7  N   UNL     1      10.967  14.374  18.678  0.00  0.00    +0.000 NA
ATOM      8  C   UNL     1      10.420  13.675  19.922  0.00  0.00    +0.000 C 
ATOM      9  C   UNL     1       9.001  13.203  19.535  0.00  0.00    +0.000 C 
ATOM     10  C   UNL     1       9.052  12.271  18.325  0.00  0.00    +0.000 C 
ATOM     11  N   UNL     1       9.869  11.081  18.571  0.00  0.00    +0.000 NA
ATOM     12  C   UNL     1       9.208  10.125  19.453  0.00  0.00    +0.000 C 
ATOM     13  C   UNL     1      11.227  11.435  19.010  0.00  0.00    +0.000 C 
ATOM     14  C   UNL     1      11.311  12.447  20.168  0.00  0.00    +0.000 C 
ENDROOT
BRANCH   1  19
ATOM     15  C   UNL     1       5.928  11.192  24.276  0.00  0.00    +0.000 C 
ATOM     16  C   UNL     1       6.838  12.209  23.653  0.00  0.00    +0.000 A 
ATOM     17  C   UNL     1       6.319  13.332  22.994  0.00  0.00    +0.000 A 
ATOM     18  C   UNL     1       7.188  14.260  22.418  0.00  0.00    +0.000 A 
ATOM     19  C   UNL     1       8.575  14.068  22.484  0.00  0.00    +0.000 A 
ATOM     20  C   UNL     1       9.095  12.971  23.172  0.00  0.00    +0.000 A 
ATOM     21  C   UNL     1       8.226  12.033  23.725  0.00  0.00    +0.000 A 
ENDBRANCH   1  19
BRANCH   6  22
ATOM     22  C   UNL     1       9.890  16.511  18.348  0.00  0.00    +0.000 A 
ATOM     23  C   UNL     1       9.552  17.699  19.010  0.00  0.00    +0.000 A 
ATOM     24  C   UNL     1       8.205  18.011  19.202  0.00  0.00    +0.000 A 
ATOM     25  C   UNL     1       7.224  17.188  18.664  0.00  0.00    +0.000 A 
ATOM     26  F   UNL     1       5.945  17.372  19.014  0.00  0.00    +0.000 F 
ATOM     27  C   UNL     1       7.557  16.129  17.829  0.00  0.00    +0.000 A 
ATOM     28  C   UNL     1       8.903  15.816  17.625  0.00  0.00    +0.000 A 
ENDBRANCH   6  22
TORSDOF 2
ENDMDL
MODEL 6
REMARK VINA RESULT:      -5.6      7.379     10.042
REMARK  Name = 
REMARK  4 active torsions:
REMARK  status: ('A' for Active; 'I' for Inactive)
REMARK    1  A    between atoms: C_1  and  C_2
REMARK    2  A    between atoms: C_5  and  C_6
REMARK    3  A    between atoms: C_11  and  C_12
REMARK    4  A    between atoms: N_23  and  C_24
REMARK                            x       y       z     vdW  Elec       q    Type
REMARK                         _______ _______ _______ _____ _____    ______ ____
ROOT
ATOM      1  C   UNL     1       1.760  12.395  19.063  0.00  0.00    +0.000 C 
ATOM      2  O   UNL     1       2.108  12.349  17.881  0.00  0.00    +0.000 OA
ATOM      3  N   UNL     1       1.128  11.338  19.714  0.00  0.00    +0.000 N 
ATOM      4  C   UNL     1       0.895  10.249  18.911  0.00  0.00    +0.000 C 
ATOM      5  S   UNL     1       1.865   9.046  18.335  0.00  0.00    +0.000 S 
ATOM      6  C   UNL     1      -0.582  10.178  18.854  0.00  0.00    +0.000 C 
ATOM      7  N   UNL     1      -1.060  10.395  20.046  0.00  0.00    +0.000 NA
ATOM      8  C   UNL     1      -0.076  11.428  20.592  0.00  0.00    +0.000 C 
ATOM      9  C   UNL     1      -0.837  12.772  20.566  0.00  0.00    +0.000 C 
ATOM     10  C   UNL     1      -2.111  12.689  21.405  0.00  0.00    +0.000 C 
ATOM     11  N   UNL     1      -1.837  12.356  22.805  0.00  0.00    +0.000 NA
ATOM     12  C   UNL     1      -1.262  13.477  23.540  0.00  0.00    +0.000 C 
ATOM     13  C   UNL     1      -1.055  11.117  22.926  0.00  0.00    +0.000 C 
ATOM     14  C   UNL     1       0.210  11.039  22.052  0.00  0.00    +0.000 C 
ENDROOT
BRANCH   1  19
ATOM     15  C   UNL     1       2.768  17.423  21.716  0.00  0.00    +0.000 C 
ATOM     16  C   UNL     1       2.508  16.123  21.015  0.00  0.00    +0.000 A 
ATOM     17  C   UNL     1       1.862  16.092  19.771  0.00  0.00    +0.000 A 
ATOM     18  C   UNL     1       1.626  14.869  19.142  0.00  0.00    +0.000 A 
ATOM     19  C   UNL     1       2.020  13.671  19.755  0.00  0.00    +0.000 A 
ATOM     20  C   UNL     1       2.696  13.701  20.975  0.00  0.00    +0.000 A 
ATOM     21  C   UNL     1       2.909  14.922  21.612  0.00  0.00    +0.000 A 
ENDBRANCH   1  19
BRANCH   6  22
ATOM     22  C   UNL     1      -1.354  10.663  17.663  0.00  0.00    +0.000 A 
ATOM     23  C   UNL     1      -2.062  11.862  17.820  0.00  0.00    +0.000 A 
ATOM     24  C   UNL     1      -3.408  11.910  17.454  0.00  0.00    +0.000 A 
ATOM     25  C   UNL     1      -4.001  10.802  16.863  0.00  0.00    +0.000 A 
ATOM     26  F   UNL     1      -5.329  10.775  16.696  0.00  0.00    +0.000 F 
ATOM     27  C   UNL     1      -3.247   9.688  16.513  0.00  0.00    +0.000 A 
ATOM     28  C   UNL     1      -1.898   9.636  16.869  0.00  0.00    +0.000 A 
ENDBRANCH   6  22
TORSDOF 2
ENDMDL
MODEL 7
REMARK VINA RESULT:      -5.5      1.358      1.548
REMARK  Name = 
REMARK  4 active torsions:
REMARK  status: ('A' for Active; 'I' for Inactive)
REMARK    1  A    between atoms: C_1  and  C_2
REMARK    2  A    between atoms: C_5  and  C_6
REMARK    3  A    between atoms: C_11  and  C_12
REMARK    4  A    between atoms: N_23  and  C_24
REMARK                            x       y       z     vdW  Elec       q    Type
REMARK                         _______ _______ _______ _____ _____    ______ ____
ROOT
ATOM      1  C   UNL     1       7.932  16.103  18.866  0.00  0.00    +0.000 C 
ATOM      2  O   UNL     1       8.524  16.055  17.785  0.00  0.00    +0.000 OA
ATOM      3  N   UNL     1       8.589  16.159  20.093  0.00  0.00    +0.000 N 
ATOM      4  C   UNL     1       9.959  16.121  19.994  0.00  0.00    +0.000 C 
ATOM      5  S   UNL     1      11.089  17.243  19.568  0.00  0.00    +0.000 S 
ATOM      6  C   UNL     1      10.312  14.844  20.654  0.00  0.00    +0.000 C 
ATOM      7  N   UNL     1       9.596  14.717  21.735  0.00  0.00    +0.000 NA
ATOM      8  C   UNL     1       8.273  15.351  21.307  0.00  0.00    +0.000 C 
ATOM      9  C   UNL     1       7.301  14.168  21.102  0.00  0.00    +0.000 C 
ATOM     10  C   UNL     1       7.162  13.353  22.387  0.00  0.00    +0.000 C 
ATOM     11  N   UNL     1       6.663  14.154  23.506  0.00  0.00    +0.000 NA
ATOM     12  C   UNL     1       5.241  14.458  23.382  0.00  0.00    +0.000 C 
ATOM     13  C   UNL     1       7.495  15.345  23.736  0.00  0.00    +0.000 C 
ATOM     14  C   UNL     1       7.788  16.203  22.491  0.00  0.00    +0.000 C 
ENDROOT
BRANCH   1  19
ATOM     15  C   UNL     1       2.173  15.888  18.522  0.00  0.00    +0.000 C 
ATOM     16  C   UNL     1       3.670  15.938  18.599  0.00  0.00    +0.000 A 
ATOM     17  C   UNL     1       4.455  14.932  18.019  0.00  0.00    +0.000 A 
ATOM     18  C   UNL     1       5.846  14.998  18.111  0.00  0.00    +0.000 A 
ATOM     19  C   UNL     1       6.461  16.059  18.790  0.00  0.00    +0.000 A 
ATOM     20  C   UNL     1       5.683  17.082  19.336  0.00  0.00    +0.000 A 
ATOM     21  C   UNL     1       4.294  17.000  19.264  0.00  0.00    +0.000 A 
ENDBRANCH   1  19
BRANCH   6  22
ATOM     22  C   UNL     1      10.665  13.616  19.869  0.00  0.00    +0.000 A 
ATOM     23  C   UNL     1      12.010  13.469  19.504  0.00  0.00    +0.000 A 
ATOM     24  C   UNL     1      12.328  13.190  18.175  0.00  0.00    +0.000 A 
ATOM     25  C   UNL     1      11.310  12.978  17.253  0.00  0.00    +0.000 A 
ATOM     26  F   UNL     1      11.606  12.911  15.949  0.00  0.00    +0.000 F 
ATOM     27  C   UNL     1       9.982  12.915  17.655  0.00  0.00    +0.000 A 
ATOM     28  C   UNL     1       9.657  13.184  18.986  0.00  0.00    +0.000 A 
ENDBRANCH   6  22
TORSDOF 2
ENDMDL
MODEL 8
REMARK VINA RESULT:      -5.5      7.065      9.682
REMARK  Name = 
REMARK  4 active torsions:
REMARK  status: ('A' for Active; 'I' for Inactive)
REMARK    1  A    between atoms: C_1  and  C_2
REMARK    2  A    between atoms: C_5  and  C_6
REMARK    3  A    between atoms: C_11  and  C_12
REMARK    4  A    between atoms: N_23  and  C_24
REMARK                            x       y       z     vdW  Elec       q    Type
REMARK                         _______ _______ _______ _____ _____    ______ ____
ROOT
ATOM      1  C   UNL     1       0.439  14.837  22.454  0.00  0.00    +0.000 C 
ATOM      2  O   UNL     1       0.731  15.902  23.005  0.00  0.00    +0.000 OA
ATOM      3  N   UNL     1       1.301  14.164  21.591  0.00  0.00    +0.000 N 
ATOM      4  C   UNL     1       2.494  14.810  21.380  0.00  0.00    +0.000 C 
ATOM      5  S   UNL     1       3.861  14.976  22.287  0.00  0.00    +0.000 S 
ATOM      6  C   UNL     1       2.446  15.151  19.941  0.00  0.00    +0.000 C 
ATOM      7  N   UNL     1       1.974  14.131  19.282  0.00  0.00    +0.000 NA
ATOM      8  C   UNL     1       0.948  13.572  20.268  0.00  0.00    +0.000 C 
ATOM      9  C   UNL     1      -0.429  13.969  19.692  0.00  0.00    +0.000 C 
ATOM     10  C   UNL     1      -0.612  13.400  18.285  0.00  0.00    +0.000 C 
ATOM     11  N   UNL     1      -0.517  11.940  18.256  0.00  0.00    +0.000 NA
ATOM     12  C   UNL     1      -1.699  11.295  18.818  0.00  0.00    +0.000 C 
ATOM     13  C   UNL     1       0.743  11.464  18.847  0.00  0.00    +0.000 C 
ATOM     14  C   UNL     1       1.088  12.042  20.232  0.00  0.00    +0.000 C 
ENDROOT
BRANCH   1  19
ATOM     15  C   UNL     1      -4.881  12.887  23.563  0.00  0.00    +0.000 C 
ATOM     16  C   UNL     1      -3.502  13.405  23.281  0.00  0.00    +0.000 A 
ATOM     17  C   UNL     1      -3.292  14.753  22.958  0.00  0.00    +0.000 A 
ATOM     18  C   UNL     1      -2.000  15.209  22.693  0.00  0.00    +0.000 A 
ATOM     19  C   UNL     1      -0.914  14.323  22.736  0.00  0.00    +0.000 A 
ATOM     20  C   UNL     1      -1.116  12.990  23.093  0.00  0.00    +0.000 A 
ATOM     21  C   UNL     1      -2.409  12.532  23.334  0.00  0.00    +0.000 A 
ENDBRANCH   1  19
BRANCH   6  22
ATOM     22  C   UNL     1       2.121  16.534  19.464  0.00  0.00    +0.000 A 
ATOM     23  C   UNL     1       0.841  17.018  19.765  0.00  0.00    +0.000 A 
ATOM     24  C   UNL     1       0.063  17.566  18.744  0.00  0.00    +0.000 A 
ATOM     25  C   UNL     1       0.597  17.704  17.469  0.00  0.00    +0.000 A 
ATOM     26  F   UNL     1      -0.205  18.039  16.451  0.00  0.00    +0.000 F 
ATOM     27  C   UNL     1       1.935  17.421  17.220  0.00  0.00    +0.000 A 
ATOM     28  C   UNL     1       2.721  16.880  18.238  0.00  0.00    +0.000 A 
ENDBRANCH   6  22
TORSDOF 2
ENDMDL
MODEL 9
REMARK VINA RESULT:      -5.5      6.715      9.745
REMARK  Name = 
REMARK  4 active torsions:
REMARK  status: ('A' for Active; 'I' for Inactive)
REMARK    1  A    between atoms: C_1  and  C_2
REMARK    2  A    between atoms: C_5  and  C_6
REMARK    3  A    between atoms: C_11  and  C_12
REMARK    4  A    between atoms: N_23  and  C_24
REMARK                            x       y       z     vdW  Elec       q    Type
REMARK                         _______ _______ _______ _____ _____    ______ ____
ROOT
ATOM      1  C   UNL     1       1.677  12.503  19.643  0.00  0.00    +0.000 C 
ATOM      2  O   UNL     1       1.823  11.543  18.880  0.00  0.00    +0.000 OA
ATOM      3  N   UNL     1       0.671  12.565  20.604  0.00  0.00    +0.000 N 
ATOM      4  C   UNL     1      -0.166  11.477  20.606  0.00  0.00    +0.000 C 
ATOM      5  S   UNL     1      -0.008   9.934  21.166  0.00  0.00    +0.000 S 
ATOM      6  C   UNL     1      -1.472  12.052  20.213  0.00  0.00    +0.000 C 
ATOM      7  N   UNL     1      -1.642  13.179  20.844  0.00  0.00    +0.000 NA
ATOM      8  C   UNL     1      -0.218  13.730  20.885  0.00  0.00    +0.000 C 
ATOM      9  C   UNL     1      -0.191  14.871  19.844  0.00  0.00    +0.000 C 
ATOM     10  C   UNL     1      -1.233  15.937  20.183  0.00  0.00    +0.000 C 
ATOM     11  N   UNL     1      -1.016  16.530  21.504  0.00  0.00    +0.000 NA
ATOM     12  C   UNL     1       0.123  17.441  21.524  0.00  0.00    +0.000 C 
ATOM     13  C   UNL     1      -0.961  15.506  22.558  0.00  0.00    +0.000 C 
ATOM     14  C   UNL     1      -0.013  14.323  22.289  0.00  0.00    +0.000 C 
ENDROOT
BRANCH   1  19
ATOM     15  C   UNL     1       5.373  16.863  18.830  0.00  0.00    +0.000 C 
ATOM     16  C   UNL     1       4.416  15.725  19.029  0.00  0.00    +0.000 A 
ATOM     17  C   UNL     1       3.727  15.166  17.944  0.00  0.00    +0.000 A 
ATOM     18  C   UNL     1       2.837  14.112  18.157  0.00  0.00    +0.000 A 
ATOM     19  C   UNL     1       2.620  13.619  19.451  0.00  0.00    +0.000 A 
ATOM     20  C   UNL     1       3.333  14.149  20.528  0.00  0.00    +0.000 A 
ATOM     21  C   UNL     1       4.202  15.217  20.316  0.00  0.00    +0.000 A 
ENDBRANCH   1  19
BRANCH   6  22
ATOM     22  C   UNL     1      -2.016  11.910  18.823  0.00  0.00    +0.000 A 
ATOM     23  C   UNL     1      -3.410  11.856  18.697  0.00  0.00    +0.000 A 
ATOM     24  C   UNL     1      -3.988  10.829  17.950  0.00  0.00    +0.000 A 
ATOM     25  C   UNL     1      -3.174   9.928  17.274  0.00  0.00    +0.000 A 
ATOM     26  F   UNL     1      -3.716   8.833  16.727  0.00  0.00    +0.000 F 
ATOM     27  C   UNL     1      -1.797  10.105  17.226  0.00  0.00    +0.000 A 
ATOM     28  C   UNL     1      -1.213  11.136  17.964  0.00  0.00    +0.000 A 
ENDBRANCH   6  22
TORSDOF 2
ENDMDL
