MODEL 1
REMARK VINA RESULT:      -8.7      0.000      0.000
REMARK  Name = 
REMARK  13 active torsions:
REMARK  status: ('A' for Active; 'I' for Inactive)
REMARK    1  A    between atoms: C_1  and  C_2
REMARK    2  A    between atoms: C_2  and  C_3
REMARK    3  A    between atoms: C_3  and  C_4
REMARK    4  A    between atoms: C_4  and  O_5
REMARK    5  A    between atoms: C_4  and  C_22
REMARK    6  A    between atoms: O_5  and  C_6
REMARK    7  A    between atoms: C_9  and  N_10
REMARK    8  A    between atoms: C_14  and  C_15
REMARK    9  A    between atoms: C_25  and  C_26
REMARK   10  A    between atoms: N_28  and  C_29
REMARK   11  A    between atoms: C_29  and  C_30
REMARK   12  A    between atoms: C_30  and  C_31
REMARK   13  A    between atoms: C_31  and  O_33
REMARK                            x       y       z     vdW  Elec       q    Type
REMARK                         _______ _______ _______ _____ _____    ______ ____
ROOT
ATOM      1  C   UNL     1       2.375   5.448  18.636  0.00  0.00    +0.000 C 
ENDROOT
BRANCH   1   2
ATOM      2  C   UNL     1       3.468   5.205  17.600  0.00  0.00    +0.000 A 
ATOM      3  C   UNL     1       4.084   6.323  16.990  0.00  0.00    +0.000 A 
ATOM      4  C   UNL     1       5.073   6.145  16.014  0.00  0.00    +0.000 A 
ATOM      5  C   UNL     1       5.460   4.870  15.590  0.00  0.00    +0.000 A 
ATOM      6  C   UNL     1       4.844   3.754  16.175  0.00  0.00    +0.000 A 
ATOM      7  C   UNL     1       3.857   3.921  17.169  0.00  0.00    +0.000 A 
BRANCH   5   8
ATOM      8  C   UNL     1       6.509   4.802  14.518  0.00  0.00    +0.000 C 
ATOM      9  O   UNL     1       7.599   5.342  14.695  0.00  0.00    +0.000 OA
ATOM     10  N   UNL     1       6.224   4.128  13.342  0.00  0.00    +0.000 N 
ATOM     11  H   UNL     1       5.386   3.568  13.249  0.00  0.00    +0.000 HD
BRANCH  10  12
ATOM     12  C   UNL     1       7.191   4.039  12.258  0.00  0.00    +0.000 C 
BRANCH  12  13
ATOM     13  C   UNL     1       7.216   2.666  11.600  0.00  0.00    +0.000 C 
BRANCH  13  14
ATOM     14  C   UNL     1       5.842   2.073  11.476  0.00  0.00    +0.000 C 
ATOM     15  O   UNL     1       4.796   2.705  11.422  0.00  0.00    +0.000 OA
BRANCH  14  16
ATOM     16  O   UNL     1       5.863   0.718  11.433  0.00  0.00    +0.000 OA
ATOM     17  H   UNL     1       5.750   0.296  12.308  0.00  0.00    +0.000 HD
ENDBRANCH  14  16
ENDBRANCH  13  14
ENDBRANCH  12  13
ENDBRANCH  10  12
ENDBRANCH   5   8
ENDBRANCH   1   2
BRANCH   1  18
ATOM     18  C   UNL     1       1.980   4.130  19.330  0.00  0.00    +0.000 C 
BRANCH  18  20
ATOM     19  C   UNL     1       2.059   2.958  21.619  0.00  0.00    +0.000 C 
ATOM     20  C   UNL     1       1.772   4.241  20.849  0.00  0.00    +0.000 C 
ENDBRANCH  18  20
ENDBRANCH   1  18
BRANCH   1  21
ATOM     21  O   UNL     1       2.754   6.409  19.632  0.00  0.00    +0.000 OA
BRANCH  21  22
ATOM     22  C   UNL     1       2.072   7.594  19.691  0.00  0.00    +0.000 A 
ATOM     23  C   UNL     1       1.543   7.914  20.935  0.00  0.00    +0.000 A 
ATOM     24  C   UNL     1       0.911   9.141  21.155  0.00  0.00    +0.000 A 
ATOM     25  C   UNL     1       0.834  10.082  20.117  0.00  0.00    +0.000 A 
ATOM     26  C   UNL     1       1.249   9.725  18.837  0.00  0.00    +0.000 A 
ATOM     27  C   UNL     1       1.892   8.495  18.635  0.00  0.00    +0.000 A 
BRANCH  25  28
ATOM     28  N   UNL     1       0.328  11.387  20.365  0.00  0.00    +0.000 N 
ATOM     29  C   UNL     1      -0.520  12.087  19.536  0.00  0.00    +0.000 A 
ATOM     30  C   UNL     1      -0.132  13.373  19.753  0.00  0.00    +0.000 A 
ATOM     31  C   UNL     1      -0.290  14.420  18.864  0.00  0.00    +0.000 A 
ATOM     32  C   UNL     1       0.270  15.594  19.416  0.00  0.00    +0.000 A 
ATOM     33  C   UNL     1       0.641  16.719  18.477  0.00  0.00    +0.000 C 
ATOM     34  C   UNL     1       0.604  15.724  20.808  0.00  0.00    +0.000 A 
ATOM     35  C   UNL     1       0.695  14.626  21.698  0.00  0.00    +0.000 A 
ATOM     36  C   UNL     1       0.434  13.399  21.072  0.00  0.00    +0.000 A 
ATOM     37  N   UNL     1       0.658  12.129  21.466  0.00  0.00    +0.000 NA
ENDBRANCH  25  28
ENDBRANCH  21  22
ENDBRANCH   1  21
TORSDOF 11
ENDMDL
MODEL 2
REMARK VINA RESULT:      -8.7      1.135      1.315
REMARK  Name = 
REMARK  13 active torsions:
REMARK  status: ('A' for Active; 'I' for Inactive)
REMARK    1  A    between atoms: C_1  and  C_2
REMARK    2  A    between atoms: C_2  and  C_3
REMARK    3  A    between atoms: C_3  and  C_4
REMARK    4  A    between atoms: C_4  and  O_5
REMARK    5  A    between atoms: C_4  and  C_22
REMARK    6  A    between atoms: O_5  and  C_6
REMARK    7  A    between atoms: C_9  and  N_10
REMARK    8  A    between atoms: C_14  and  C_15
REMARK    9  A    between atoms: C_25  and  C_26
REMARK   10  A    between atoms: N_28  and  C_29
REMARK   11  A    between atoms: C_29  and  C_30
REMARK   12  A    between atoms: C_30  and  C_31
REMARK   13  A    between atoms: C_31  and  O_33
REMARK                            x       y       z     vdW  Elec       q    Type
REMARK                         _______ _______ _______ _____ _____    ______ ____
ROOT
ATOM      1  C   UNL     1       2.789   5.615  18.727  0.00  0.00    +0.000 C 
ENDROOT
BRANCH   1   2
ATOM      2  C   UNL     1       3.784   5.328  17.606  0.00  0.00    +0.000 A 
ATOM      3  C   UNL     1       4.458   6.415  17.005  0.00  0.00    +0.000 A 
ATOM      4  C   UNL     1       5.359   6.198  15.953  0.00  0.00    +0.000 A 
ATOM      5  C   UNL     1       5.596   4.917  15.447  0.00  0.00    +0.000 A 
ATOM      6  C   UNL     1       4.918   3.833  16.023  0.00  0.00    +0.000 A 
ATOM      7  C   UNL     1       4.020   4.038  17.092  0.00  0.00    +0.000 A 
BRANCH   5   8
ATOM      8  C   UNL     1       6.560   4.810  14.300  0.00  0.00    +0.000 C 
ATOM      9  O   UNL     1       7.631   5.411  14.344  0.00  0.00    +0.000 OA
ATOM     10  N   UNL     1       6.219   4.029  13.208  0.00  0.00    +0.000 N 
ATOM     11  H   UNL     1       5.406   3.425  13.228  0.00  0.00    +0.000 HD
BRANCH  10  12
ATOM     12  C   UNL     1       7.101   3.896  12.058  0.00  0.00    +0.000 C 
BRANCH  12  13
ATOM     13  C   UNL     1       7.225   2.458  11.571  0.00  0.00    +0.000 C 
BRANCH  13  14
ATOM     14  C   UNL     1       5.886   1.790  11.437  0.00  0.00    +0.000 C 
ATOM     15  O   UNL     1       4.811   2.364  11.329  0.00  0.00    +0.000 OA
BRANCH  14  16
ATOM     16  O   UNL     1       5.977   0.437  11.452  0.00  0.00    +0.000 OA
ATOM     17  H   UNL     1       5.323   0.007  12.037  0.00  0.00    +0.000 HD
ENDBRANCH  14  16
ENDBRANCH  13  14
ENDBRANCH  12  13
ENDBRANCH  10  12
ENDBRANCH   5   8
ENDBRANCH   1   2
BRANCH   1  18
ATOM     18  C   UNL     1       2.713   4.426  19.705  0.00  0.00    +0.000 C 
BRANCH  18  20
ATOM     19  C   UNL     1       1.149   2.893  21.055  0.00  0.00    +0.000 C 
ATOM     20  C   UNL     1       1.319   3.793  19.838  0.00  0.00    +0.000 C 
ENDBRANCH  18  20
ENDBRANCH   1  18
BRANCH   1  21
ATOM     21  O   UNL     1       3.106   6.807  19.460  0.00  0.00    +0.000 OA
BRANCH  21  22
ATOM     22  C   UNL     1       2.116   7.731  19.667  0.00  0.00    +0.000 A 
ATOM     23  C   UNL     1       1.489   7.664  20.905  0.00  0.00    +0.000 A 
ATOM     24  C   UNL     1       0.532   8.611  21.280  0.00  0.00    +0.000 A 
ATOM     25  C   UNL     1       0.219   9.667  20.410  0.00  0.00    +0.000 A 
ATOM     26  C   UNL     1       0.748   9.675  19.123  0.00  0.00    +0.000 A 
ATOM     27  C   UNL     1       1.716   8.724  18.765  0.00  0.00    +0.000 A 
BRANCH  25  28
ATOM     28  N   UNL     1      -0.640  10.718  20.836  0.00  0.00    +0.000 N 
ATOM     29  C   UNL     1      -1.287  11.606  20.006  0.00  0.00    +0.000 A 
ATOM     30  C   UNL     1      -1.320  12.733  20.767  0.00  0.00    +0.000 A 
ATOM     31  C   UNL     1      -1.405  14.026  20.285  0.00  0.00    +0.000 A 
ATOM     32  C   UNL     1      -1.372  14.935  21.365  0.00  0.00    +0.000 A 
ATOM     33  C   UNL     1      -0.979  16.367  21.084  0.00  0.00    +0.000 C 
ATOM     34  C   UNL     1      -1.584  14.538  22.730  0.00  0.00    +0.000 A 
ATOM     35  C   UNL     1      -1.548  13.193  23.171  0.00  0.00    +0.000 A 
ATOM     36  C   UNL     1      -1.273  12.291  22.133  0.00  0.00    +0.000 A 
ATOM     37  N   UNL     1      -0.902  10.995  22.149  0.00  0.00    +0.000 NA
ENDBRANCH  25  28
ENDBRANCH  21  22
ENDBRANCH   1  21
TORSDOF 11
ENDMDL
MODEL 3
REMARK VINA RESULT:      -8.6      2.486      3.563
REMARK  Name = 
REMARK  13 active torsions:
REMARK  status: ('A' for Active; 'I' for Inactive)
REMARK    1  A    between atoms: C_1  and  C_2
REMARK    2  A    between atoms: C_2  and  C_3
REMARK    3  A    between atoms: C_3  and  C_4
REMARK    4  A    between atoms: C_4  and  O_5
REMARK    5  A    between atoms: C_4  and  C_22
REMARK    6  A    between atoms: O_5  and  C_6
REMARK    7  A    between atoms: C_9  and  N_10
REMARK    8  A    between atoms: C_14  and  C_15
REMARK    9  A    between atoms: C_25  and  C_26
REMARK   10  A    between atoms: N_28  and  C_29
REMARK   11  A    between atoms: C_29  and  C_30
REMARK   12  A    between atoms: C_30  and  C_31
REMARK   13  A    between atoms: C_31  and  O_33
REMARK                            x       y       z     vdW  Elec       q    Type
REMARK                         _______ _______ _______ _____ _____    ______ ____
ROOT
ATOM      1  C   UNL     1       2.384   6.179  19.315  0.00  0.00    +0.000 C 
ENDROOT
BRANCH   1   2
ATOM      2  C   UNL     1       3.401   5.833  18.232  0.00  0.00    +0.000 A 
ATOM      3  C   UNL     1       3.600   4.473  17.900  0.00  0.00    +0.000 A 
ATOM      4  C   UNL     1       4.544   4.108  16.930  0.00  0.00    +0.000 A 
ATOM      5  C   UNL     1       5.335   5.063  16.287  0.00  0.00    +0.000 A 
ATOM      6  C   UNL     1       5.160   6.414  16.620  0.00  0.00    +0.000 A 
ATOM      7  C   UNL     1       4.202   6.794  17.585  0.00  0.00    +0.000 A 
BRANCH   5   8
ATOM      8  C   UNL     1       6.333   4.554  15.286  0.00  0.00    +0.000 C 
ATOM      9  O   UNL     1       6.728   3.392  15.355  0.00  0.00    +0.000 OA
ATOM     10  N   UNL     1       6.791   5.411  14.300  0.00  0.00    +0.000 N 
ATOM     11  H   UNL     1       6.368   6.320  14.156  0.00  0.00    +0.000 HD
BRANCH  10  12
ATOM     12  C   UNL     1       7.770   4.985  13.310  0.00  0.00    +0.000 C 
BRANCH  12  13
ATOM     13  C   UNL     1       7.143   4.654  11.963  0.00  0.00    +0.000 C 
BRANCH  13  14
ATOM     14  C   UNL     1       6.242   3.455  12.039  0.00  0.00    +0.000 C 
ATOM     15  O   UNL     1       5.040   3.479  12.263  0.00  0.00    +0.000 OA
BRANCH  14  16
ATOM     16  O   UNL     1       6.908   2.292  11.834  0.00  0.00    +0.000 OA
ATOM     17  H   UNL     1       7.415   1.987  12.613  0.00  0.00    +0.000 HD
ENDBRANCH  14  16
ENDBRANCH  13  14
ENDBRANCH  12  13
ENDBRANCH  10  12
ENDBRANCH   5   8
ENDBRANCH   1   2
BRANCH   1  18
ATOM     18  C   UNL     1       2.415   5.131  20.446  0.00  0.00    +0.000 C 
BRANCH  18  20
ATOM     19  C   UNL     1       0.787   3.388  19.482  0.00  0.00    +0.000 C 
ATOM     20  C   UNL     1       1.109   4.342  20.625  0.00  0.00    +0.000 C 
ENDBRANCH  18  20
ENDBRANCH   1  18
BRANCH   1  21
ATOM     21  O   UNL     1       2.590   7.483  19.877  0.00  0.00    +0.000 OA
BRANCH  21  22
ATOM     22  C   UNL     1       1.632   8.441  19.677  0.00  0.00    +0.000 A 
ATOM     23  C   UNL     1       1.515   8.901  18.372  0.00  0.00    +0.000 A 
ATOM     24  C   UNL     1       0.510   9.805  18.014  0.00  0.00    +0.000 A 
ATOM     25  C   UNL     1      -0.416  10.233  18.977  0.00  0.00    +0.000 A 
ATOM     26  C   UNL     1      -0.235   9.876  20.310  0.00  0.00    +0.000 A 
ATOM     27  C   UNL     1       0.771   8.959  20.651  0.00  0.00    +0.000 A 
BRANCH  25  28
ATOM     28  N   UNL     1      -1.530  11.033  18.598  0.00  0.00    +0.000 N 
ATOM     29  C   UNL     1      -2.046  12.081  19.326  0.00  0.00    +0.000 A 
ATOM     30  C   UNL     1      -3.370  12.015  19.021  0.00  0.00    +0.000 A 
ATOM     31  C   UNL     1      -4.401  12.488  19.811  0.00  0.00    +0.000 A 
ATOM     32  C   UNL     1      -5.637  12.206  19.190  0.00  0.00    +0.000 A 
ATOM     33  C   UNL     1      -6.882  12.191  20.047  0.00  0.00    +0.000 C 
ATOM     34  C   UNL     1      -5.752  11.825  17.809  0.00  0.00    +0.000 A 
ATOM     35  C   UNL     1      -4.655  11.403  17.018  0.00  0.00    +0.000 A 
ATOM     36  C   UNL     1      -3.448  11.389  17.731  0.00  0.00    +0.000 A 
ATOM     37  N   UNL     1      -2.253  10.828  17.455  0.00  0.00    +0.000 NA
ENDBRANCH  25  28
ENDBRANCH  21  22
ENDBRANCH   1  21
TORSDOF 11
ENDMDL
MODEL 4
REMARK VINA RESULT:      -8.5      1.276      2.016
REMARK  Name = 
REMARK  13 active torsions:
REMARK  status: ('A' for Active; 'I' for Inactive)
REMARK    1  A    between atoms: C_1  and  C_2
REMARK    2  A    between atoms: C_2  and  C_3
REMARK    3  A    between atoms: C_3  and  C_4
REMARK    4  A    between atoms: C_4  and  O_5
REMARK    5  A    between atoms: C_4  and  C_22
REMARK    6  A    between atoms: O_5  and  C_6
REMARK    7  A    between atoms: C_9  and  N_10
REMARK    8  A    between atoms: C_14  and  C_15
REMARK    9  A    between atoms: C_25  and  C_26
REMARK   10  A    between atoms: N_28  and  C_29
REMARK   11  A    between atoms: C_29  and  C_30
REMARK   12  A    between atoms: C_30  and  C_31
REMARK   13  A    between atoms: C_31  and  O_33
REMARK                            x       y       z     vdW  Elec       q    Type
REMARK                         _______ _______ _______ _____ _____    ______ ____
ROOT
ATOM      1  C   UNL     1       2.694   5.372  18.716  0.00  0.00    +0.000 C 
ENDROOT
BRANCH   1   2
ATOM      2  C   UNL     1       3.701   5.124  17.597  0.00  0.00    +0.000 A 
ATOM      3  C   UNL     1       4.458   6.216  17.113  0.00  0.00    +0.000 A 
ATOM      4  C   UNL     1       5.374   6.038  16.068  0.00  0.00    +0.000 A 
ATOM      5  C   UNL     1       5.548   4.795  15.452  0.00  0.00    +0.000 A 
ATOM      6  C   UNL     1       4.790   3.708  15.911  0.00  0.00    +0.000 A 
ATOM      7  C   UNL     1       3.875   3.873  16.973  0.00  0.00    +0.000 A 
BRANCH   5   8
ATOM      8  C   UNL     1       6.536   4.730  14.324  0.00  0.00    +0.000 C 
ATOM      9  O   UNL     1       7.591   5.357  14.399  0.00  0.00    +0.000 OA
ATOM     10  N   UNL     1       6.237   3.959  13.213  0.00  0.00    +0.000 N 
ATOM     11  H   UNL     1       5.439   3.335  13.207  0.00  0.00    +0.000 HD
BRANCH  10  12
ATOM     12  C   UNL     1       7.144   3.866  12.079  0.00  0.00    +0.000 C 
BRANCH  12  13
ATOM     13  C   UNL     1       7.223   2.461  11.498  0.00  0.00    +0.000 C 
BRANCH  13  14
ATOM     14  C   UNL     1       5.869   1.820  11.384  0.00  0.00    +0.000 C 
ATOM     15  O   UNL     1       4.806   2.416  11.274  0.00  0.00    +0.000 OA
BRANCH  14  16
ATOM     16  O   UNL     1       5.931   0.466  11.421  0.00  0.00    +0.000 OA
ATOM     17  H   UNL     1       6.144   0.107  12.305  0.00  0.00    +0.000 HD
ENDBRANCH  14  16
ENDBRANCH  13  14
ENDBRANCH  12  13
ENDBRANCH  10  12
ENDBRANCH   5   8
ENDBRANCH   1   2
BRANCH   1  18
ATOM     18  C   UNL     1       2.479   4.093  19.549  0.00  0.00    +0.000 C 
BRANCH  18  20
ATOM     19  C   UNL     1       0.656   2.517  18.650  0.00  0.00    +0.000 C 
ATOM     20  C   UNL     1       1.020   3.620  19.635  0.00  0.00    +0.000 C 
ENDBRANCH  18  20
ENDBRANCH   1  18
BRANCH   1  21
ATOM     21  O   UNL     1       3.084   6.442  19.589  0.00  0.00    +0.000 OA
BRANCH  21  22
ATOM     22  C   UNL     1       2.328   7.583  19.604  0.00  0.00    +0.000 A 
ATOM     23  C   UNL     1       2.288   8.286  18.407  0.00  0.00    +0.000 A 
ATOM     24  C   UNL     1       1.474   9.413  18.259  0.00  0.00    +0.000 A 
ATOM     25  C   UNL     1       0.657   9.827  19.323  0.00  0.00    +0.000 A 
ATOM     26  C   UNL     1       0.780   9.206  20.563  0.00  0.00    +0.000 A 
ATOM     27  C   UNL     1       1.592   8.070  20.692  0.00  0.00    +0.000 A 
BRANCH  25  28
ATOM     28  N   UNL     1      -0.283  10.877  19.140  0.00  0.00    +0.000 N 
ATOM     29  C   UNL     1       0.029  12.197  18.903  0.00  0.00    +0.000 A 
ATOM     30  C   UNL     1      -0.998  12.847  19.515  0.00  0.00    +0.000 A 
ATOM     31  C   UNL     1      -0.953  14.139  20.004  0.00  0.00    +0.000 A 
ATOM     32  C   UNL     1      -2.189  14.456  20.609  0.00  0.00    +0.000 A 
ATOM     33  C   UNL     1      -2.228  15.592  21.605  0.00  0.00    +0.000 C 
ATOM     34  C   UNL     1      -3.383  13.682  20.406  0.00  0.00    +0.000 A 
ATOM     35  C   UNL     1      -3.389  12.382  19.844  0.00  0.00    +0.000 A 
ATOM     36  C   UNL     1      -2.103  11.930  19.516  0.00  0.00    +0.000 A 
ATOM     37  N   UNL     1      -1.638  10.700  19.213  0.00  0.00    +0.000 NA
ENDBRANCH  25  28
ENDBRANCH  21  22
ENDBRANCH   1  21
TORSDOF 11
ENDMDL
MODEL 5
REMARK VINA RESULT:      -8.5      1.026      1.433
REMARK  Name = 
REMARK  13 active torsions:
REMARK  status: ('A' for Active; 'I' for Inactive)
REMARK    1  A    between atoms: C_1  and  C_2
REMARK    2  A    between atoms: C_2  and  C_3
REMARK    3  A    between atoms: C_3  and  C_4
REMARK    4  A    between atoms: C_4  and  O_5
REMARK    5  A    between atoms: C_4  and  C_22
REMARK    6  A    between atoms: O_5  and  C_6
REMARK    7  A    between atoms: C_9  and  N_10
REMARK    8  A    between atoms: C_14  and  C_15
REMARK    9  A    between atoms: C_25  and  C_26
REMARK   10  A    between atoms: N_28  and  C_29
REMARK   11  A    between atoms: C_29  and  C_30
REMARK   12  A    between atoms: C_30  and  C_31
REMARK   13  A    between atoms: C_31  and  O_33
REMARK                            x       y       z     vdW  Elec       q    Type
REMARK                         _______ _______ _______ _____ _____    ______ ____
ROOT
ATOM      1  C   UNL     1       2.185   5.729  18.887  0.00  0.00    +0.000 C 
ENDROOT
BRANCH   1   2
ATOM      2  C   UNL     1       3.328   5.453  17.915  0.00  0.00    +0.000 A 
ATOM      3  C   UNL     1       4.112   6.540  17.465  0.00  0.00    +0.000 A 
ATOM      4  C   UNL     1       5.154   6.335  16.551  0.00  0.00    +0.000 A 
ATOM      5  C   UNL     1       5.431   5.067  16.032  0.00  0.00    +0.000 A 
ATOM      6  C   UNL     1       4.649   3.983  16.456  0.00  0.00    +0.000 A 
ATOM      7  C   UNL     1       3.607   4.176  17.388  0.00  0.00    +0.000 A 
BRANCH   5   8
ATOM      8  C   UNL     1       6.552   4.973  15.037  0.00  0.00    +0.000 C 
ATOM      9  O   UNL     1       7.636   5.497  15.287  0.00  0.00    +0.000 OA
ATOM     10  N   UNL     1       6.340   4.293  13.850  0.00  0.00    +0.000 N 
ATOM     11  H   UNL     1       5.502   3.745  13.701  0.00  0.00    +0.000 HD
BRANCH  10  12
ATOM     12  C   UNL     1       7.380   4.179  12.837  0.00  0.00    +0.000 C 
BRANCH  12  13
ATOM     13  C   UNL     1       6.861   3.622  11.517  0.00  0.00    +0.000 C 
BRANCH  13  14
ATOM     14  C   UNL     1       5.614   2.805  11.701  0.00  0.00    +0.000 C 
ATOM     15  O   UNL     1       4.481   3.249  11.815  0.00  0.00    +0.000 OA
BRANCH  14  16
ATOM     16  O   UNL     1       5.868   1.473  11.736  0.00  0.00    +0.000 OA
ATOM     17  H   UNL     1       6.531   1.218  12.407  0.00  0.00    +0.000 HD
ENDBRANCH  14  16
ENDBRANCH  13  14
ENDBRANCH  12  13
ENDBRANCH  10  12
ENDBRANCH   5   8
ENDBRANCH   1   2
BRANCH   1  18
ATOM     18  C   UNL     1       1.701   4.421  19.544  0.00  0.00    +0.000 C 
BRANCH  18  20
ATOM     19  C   UNL     1       1.746   2.896  21.615  0.00  0.00    +0.000 C 
ATOM     20  C   UNL     1       2.305   4.134  20.927  0.00  0.00    +0.000 C 
ENDBRANCH  18  20
ENDBRANCH   1  18
BRANCH   1  21
ATOM     21  O   UNL     1       2.541   6.666  19.913  0.00  0.00    +0.000 OA
BRANCH  21  22
ATOM     22  C   UNL     1       1.910   7.881  19.937  0.00  0.00    +0.000 A 
ATOM     23  C   UNL     1       1.856   8.547  18.719  0.00  0.00    +0.000 A 
ATOM     24  C   UNL     1       1.155   9.749  18.585  0.00  0.00    +0.000 A 
ATOM     25  C   UNL     1       0.466  10.280  19.686  0.00  0.00    +0.000 A 
ATOM     26  C   UNL     1       0.614   9.688  20.937  0.00  0.00    +0.000 A 
ATOM     27  C   UNL     1       1.311   8.476  21.053  0.00  0.00    +0.000 A 
BRANCH  25  28
ATOM     28  N   UNL     1      -0.372  11.418  19.529  0.00  0.00    +0.000 N 
ATOM     29  C   UNL     1      -0.163  12.448  18.640  0.00  0.00    +0.000 A 
ATOM     30  C   UNL     1      -0.674  13.513  19.312  0.00  0.00    +0.000 A 
ATOM     31  C   UNL     1      -0.309  14.833  19.123  0.00  0.00    +0.000 A 
ATOM     32  C   UNL     1      -1.020  15.652  20.027  0.00  0.00    +0.000 A 
ATOM     33  C   UNL     1      -0.466  17.024  20.339  0.00  0.00    +0.000 C 
ATOM     34  C   UNL     1      -2.180  15.203  20.747  0.00  0.00    +0.000 A 
ATOM     35  C   UNL     1      -2.551  13.841  20.865  0.00  0.00    +0.000 A 
ATOM     36  C   UNL     1      -1.659  12.980  20.211  0.00  0.00    +0.000 A 
ATOM     37  N   UNL     1      -1.490  11.644  20.284  0.00  0.00    +0.000 NA
ENDBRANCH  25  28
ENDBRANCH  21  22
ENDBRANCH   1  21
TORSDOF 11
ENDMDL
MODEL 6
REMARK VINA RESULT:      -8.1      1.919      2.463
REMARK  Name = 
REMARK  13 active torsions:
REMARK  status: ('A' for Active; 'I' for Inactive)
REMARK    1  A    between atoms: C_1  and  C_2
REMARK    2  A    between atoms: C_2  and  C_3
REMARK    3  A    between atoms: C_3  and  C_4
REMARK    4  A    between atoms: C_4  and  O_5
REMARK    5  A    between atoms: C_4  and  C_22
REMARK    6  A    between atoms: O_5  and  C_6
REMARK    7  A    between atoms: C_9  and  N_10
REMARK    8  A    between atoms: C_14  and  C_15
REMARK    9  A    between atoms: C_25  and  C_26
REMARK   10  A    between atoms: N_28  and  C_29
REMARK   11  A    between atoms: C_29  and  C_30
REMARK   12  A    between atoms: C_30  and  C_31
REMARK   13  A    between atoms: C_31  and  O_33
REMARK                            x       y       z     vdW  Elec       q    Type
REMARK                         _______ _______ _______ _____ _____    ______ ____
ROOT
ATOM      1  C   UNL     1       3.230   4.947  19.024  0.00  0.00    +0.000 C 
ENDROOT
BRANCH   1   2
ATOM      2  C   UNL     1       4.100   4.804  17.779  0.00  0.00    +0.000 A 
ATOM      3  C   UNL     1       5.274   5.586  17.680  0.00  0.00    +0.000 A 
ATOM      4  C   UNL     1       6.088   5.506  16.542  0.00  0.00    +0.000 A 
ATOM      5  C   UNL     1       5.754   4.684  15.462  0.00  0.00    +0.000 A 
ATOM      6  C   UNL     1       4.582   3.917  15.540  0.00  0.00    +0.000 A 
ATOM      7  C   UNL     1       3.764   3.979  16.688  0.00  0.00    +0.000 A 
BRANCH   5   8
ATOM      8  C   UNL     1       6.685   4.701  14.284  0.00  0.00    +0.000 C 
ATOM      9  O   UNL     1       7.695   5.402  14.314  0.00  0.00    +0.000 OA
ATOM     10  N   UNL     1       6.384   3.922  13.179  0.00  0.00    +0.000 N 
ATOM     11  H   UNL     1       5.634   3.243  13.205  0.00  0.00    +0.000 HD
BRANCH  10  12
ATOM     12  C   UNL     1       7.236   3.906  11.999  0.00  0.00    +0.000 C 
BRANCH  12  13
ATOM     13  C   UNL     1       7.303   2.536  11.337  0.00  0.00    +0.000 C 
BRANCH  13  14
ATOM     14  C   UNL     1       5.977   1.831  11.363  0.00  0.00    +0.000 C 
ATOM     15  O   UNL     1       4.882   2.375  11.393  0.00  0.00    +0.000 OA
BRANCH  14  16
ATOM     16  O   UNL     1       6.107   0.482  11.354  0.00  0.00    +0.000 OA
ATOM     17  H   UNL     1       5.361   0.019  10.924  0.00  0.00    +0.000 HD
ENDBRANCH  14  16
ENDBRANCH  13  14
ENDBRANCH  12  13
ENDBRANCH  10  12
ENDBRANCH   5   8
ENDBRANCH   1   2
BRANCH   1  18
ATOM     18  C   UNL     1       3.464   3.768  19.989  0.00  0.00    +0.000 C 
BRANCH  18  20
ATOM     19  C   UNL     1       3.292   1.444  18.901  0.00  0.00    +0.000 C 
ATOM     20  C   UNL     1       2.597   2.530  19.712  0.00  0.00    +0.000 C 
ENDBRANCH  18  20
ENDBRANCH   1  18
BRANCH   1  21
ATOM     21  O   UNL     1       3.456   6.179  19.723  0.00  0.00    +0.000 OA
BRANCH  21  22
ATOM     22  C   UNL     1       2.539   7.187  19.586  0.00  0.00    +0.000 A 
ATOM     23  C   UNL     1       1.736   7.415  20.697  0.00  0.00    +0.000 A 
ATOM     24  C   UNL     1       0.829   8.478  20.724  0.00  0.00    +0.000 A 
ATOM     25  C   UNL     1       0.747   9.352  19.629  0.00  0.00    +0.000 A 
ATOM     26  C   UNL     1       1.455   9.063  18.466  0.00  0.00    +0.000 A 
ATOM     27  C   UNL     1       2.370   7.999  18.459  0.00  0.00    +0.000 A 
BRANCH  25  28
ATOM     28  N   UNL     1      -0.061  10.520  19.701  0.00  0.00    +0.000 N 
ATOM     29  C   UNL     1       0.020  11.488  20.677  0.00  0.00    +0.000 A 
ATOM     30  C   UNL     1      -1.271  11.905  20.771  0.00  0.00    +0.000 A 
ATOM     31  C   UNL     1      -1.848  12.488  21.884  0.00  0.00    +0.000 A 
ATOM     32  C   UNL     1      -3.212  12.748  21.626  0.00  0.00    +0.000 A 
ATOM     33  C   UNL     1      -4.142  12.930  22.804  0.00  0.00    +0.000 C 
ATOM     34  C   UNL     1      -3.775  12.737  20.304  0.00  0.00    +0.000 A 
ATOM     35  C   UNL     1      -3.121  12.182  19.177  0.00  0.00    +0.000 A 
ATOM     36  C   UNL     1      -1.869  11.636  19.494  0.00  0.00    +0.000 A 
ATOM     37  N   UNL     1      -1.055  10.809  18.807  0.00  0.00    +0.000 NA
ENDBRANCH  25  28
ENDBRANCH  21  22
ENDBRANCH   1  21
TORSDOF 11
ENDMDL
MODEL 7
REMARK VINA RESULT:      -7.9      2.607      3.207
REMARK  Name = 
REMARK  13 active torsions:
REMARK  status: ('A' for Active; 'I' for Inactive)
REMARK    1  A    between atoms: C_1  and  C_2
REMARK    2  A    between atoms: C_2  and  C_3
REMARK    3  A    between atoms: C_3  and  C_4
REMARK    4  A    between atoms: C_4  and  O_5
REMARK    5  A    between atoms: C_4  and  C_22
REMARK    6  A    between atoms: O_5  and  C_6
REMARK    7  A    between atoms: C_9  and  N_10
REMARK    8  A    between atoms: C_14  and  C_15
REMARK    9  A    between atoms: C_25  and  C_26
REMARK   10  A    between atoms: N_28  and  C_29
REMARK   11  A    between atoms: C_29  and  C_30
REMARK   12  A    between atoms: C_30  and  C_31
REMARK   13  A    between atoms: C_31  and  O_33
REMARK                            x       y       z     vdW  Elec       q    Type
REMARK                         _______ _______ _______ _____ _____    ______ ____
ROOT
ATOM      1  C   UNL     1       2.298   6.357  19.429  0.00  0.00    +0.000 C 
ENDROOT
BRANCH   1   2
ATOM      2  C   UNL     1       3.515   5.969  18.594  0.00  0.00    +0.000 A 
ATOM      3  C   UNL     1       3.801   6.714  17.427  0.00  0.00    +0.000 A 
ATOM      4  C   UNL     1       4.893   6.376  16.617  0.00  0.00    +0.000 A 
ATOM      5  C   UNL     1       5.710   5.281  16.913  0.00  0.00    +0.000 A 
ATOM      6  C   UNL     1       5.426   4.523  18.058  0.00  0.00    +0.000 A 
ATOM      7  C   UNL     1       4.338   4.864  18.889  0.00  0.00    +0.000 A 
BRANCH   5   8
ATOM      8  C   UNL     1       6.833   4.996  15.957  0.00  0.00    +0.000 C 
ATOM      9  O   UNL     1       7.894   4.542  16.380  0.00  0.00    +0.000 OA
ATOM     10  N   UNL     1       6.648   5.254  14.609  0.00  0.00    +0.000 N 
ATOM     11  H   UNL     1       5.737   5.494  14.241  0.00  0.00    +0.000 HD
BRANCH  10  12
ATOM     12  C   UNL     1       7.702   5.015  13.633  0.00  0.00    +0.000 C 
BRANCH  12  13
ATOM     13  C   UNL     1       7.163   4.596  12.272  0.00  0.00    +0.000 C 
BRANCH  13  14
ATOM     14  C   UNL     1       6.157   3.487  12.381  0.00  0.00    +0.000 C 
ATOM     15  O   UNL     1       5.010   3.602  12.791  0.00  0.00    +0.000 OA
BRANCH  14  16
ATOM     16  O   UNL     1       6.654   2.293  11.972  0.00  0.00    +0.000 OA
ATOM     17  H   UNL     1       6.487   1.563  12.600  0.00  0.00    +0.000 HD
ENDBRANCH  14  16
ENDBRANCH  13  14
ENDBRANCH  12  13
ENDBRANCH  10  12
ENDBRANCH   5   8
ENDBRANCH   1   2
BRANCH   1  18
ATOM     18  C   UNL     1       1.800   5.155  20.256  0.00  0.00    +0.000 C 
BRANCH  18  20
ATOM     19  C   UNL     1       0.796   3.363  18.707  0.00  0.00    +0.000 C 
ATOM     20  C   UNL     1       1.974   3.789  19.573  0.00  0.00    +0.000 C 
ENDBRANCH  18  20
ENDBRANCH   1  18
BRANCH   1  21
ATOM     21  O   UNL     1       2.555   7.460  20.309  0.00  0.00    +0.000 OA
BRANCH  21  22
ATOM     22  C   UNL     1       1.561   8.378  20.515  0.00  0.00    +0.000 A 
ATOM     23  C   UNL     1       1.154   8.529  21.835  0.00  0.00    +0.000 A 
ATOM     24  C   UNL     1       0.219   9.503  22.194  0.00  0.00    +0.000 A 
ATOM     25  C   UNL     1      -0.297  10.368  21.216  0.00  0.00    +0.000 A 
ATOM     26  C   UNL     1       0.009  10.147  19.876  0.00  0.00    +0.000 A 
ATOM     27  C   UNL     1       0.958   9.173  19.533  0.00  0.00    +0.000 A 
BRANCH  25  28
ATOM     28  N   UNL     1      -1.133  11.456  21.588  0.00  0.00    +0.000 N 
ATOM     29  C   UNL     1      -1.380  11.870  22.877  0.00  0.00    +0.000 A 
ATOM     30  C   UNL     1      -2.656  12.332  22.789  0.00  0.00    +0.000 A 
ATOM     31  C   UNL     1      -3.556  12.410  23.835  0.00  0.00    +0.000 A 
ATOM     32  C   UNL     1      -4.793  12.897  23.358  0.00  0.00    +0.000 A 
ATOM     33  C   UNL     1      -6.034  12.627  24.177  0.00  0.00    +0.000 C 
ATOM     34  C   UNL     1      -4.942  13.537  22.079  0.00  0.00    +0.000 A 
ATOM     35  C   UNL     1      -3.965  13.482  21.055  0.00  0.00    +0.000 A 
ATOM     36  C   UNL     1      -2.842  12.726  21.421  0.00  0.00    +0.000 A 
ATOM     37  N   UNL     1      -1.832  12.215  20.688  0.00  0.00    +0.000 NA
ENDBRANCH  25  28
ENDBRANCH  21  22
ENDBRANCH   1  21
TORSDOF 11
ENDMDL
MODEL 8
REMARK VINA RESULT:      -7.9      1.041      1.558
REMARK  Name = 
REMARK  13 active torsions:
REMARK  status: ('A' for Active; 'I' for Inactive)
REMARK    1  A    between atoms: C_1  and  C_2
REMARK    2  A    between atoms: C_2  and  C_3
REMARK    3  A    between atoms: C_3  and  C_4
REMARK    4  A    between atoms: C_4  and  O_5
REMARK    5  A    between atoms: C_4  and  C_22
REMARK    6  A    between atoms: O_5  and  C_6
REMARK    7  A    between atoms: C_9  and  N_10
REMARK    8  A    between atoms: C_14  and  C_15
REMARK    9  A    between atoms: C_25  and  C_26
REMARK   10  A    between atoms: N_28  and  C_29
REMARK   11  A    between atoms: C_29  and  C_30
REMARK   12  A    between atoms: C_30  and  C_31
REMARK   13  A    between atoms: C_31  and  O_33
REMARK                            x       y       z     vdW  Elec       q    Type
REMARK                         _______ _______ _______ _____ _____    ______ ____
ROOT
ATOM      1  C   UNL     1       2.257   5.677  18.877  0.00  0.00    +0.000 C 
ENDROOT
BRANCH   1   2
ATOM      2  C   UNL     1       3.366   5.420  17.861  0.00  0.00    +0.000 A 
ATOM      3  C   UNL     1       4.047   6.529  17.308  0.00  0.00    +0.000 A 
ATOM      4  C   UNL     1       5.053   6.340  16.351  0.00  0.00    +0.000 A 
ATOM      5  C   UNL     1       5.393   5.065  15.891  0.00  0.00    +0.000 A 
ATOM      6  C   UNL     1       4.712   3.958  16.418  0.00  0.00    +0.000 A 
ATOM      7  C   UNL     1       3.707   4.136  17.394  0.00  0.00    +0.000 A 
BRANCH   5   8
ATOM      8  C   UNL     1       6.466   4.986  14.844  0.00  0.00    +0.000 C 
ATOM      9  O   UNL     1       7.577   5.462  15.070  0.00  0.00    +0.000 OA
ATOM     10  N   UNL     1       6.180   4.375  13.634  0.00  0.00    +0.000 N 
ATOM     11  H   UNL     1       5.318   3.862  13.496  0.00  0.00    +0.000 HD
BRANCH  10  12
ATOM     12  C   UNL     1       7.170   4.281  12.571  0.00  0.00    +0.000 C 
BRANCH  12  13
ATOM     13  C   UNL     1       7.224   2.898  11.935  0.00  0.00    +0.000 C 
BRANCH  13  14
ATOM     14  C   UNL     1       5.856   2.374  11.606  0.00  0.00    +0.000 C 
ATOM     15  O   UNL     1       5.592   1.226  11.276  0.00  0.00    +0.000 OA
BRANCH  14  16
ATOM     16  O   UNL     1       4.897   3.328  11.707  0.00  0.00    +0.000 OA
ATOM     17  H   UNL     1       5.007   4.063  11.072  0.00  0.00    +0.000 HD
ENDBRANCH  14  16
ENDBRANCH  13  14
ENDBRANCH  12  13
ENDBRANCH  10  12
ENDBRANCH   5   8
ENDBRANCH   1   2
BRANCH   1  18
ATOM     18  C   UNL     1       1.836   4.364  19.566  0.00  0.00    +0.000 C 
BRANCH  18  20
ATOM     19  C   UNL     1       2.022   3.066  21.780  0.00  0.00    +0.000 C 
ATOM     20  C   UNL     1       2.720   3.948  20.752  0.00  0.00    +0.000 C 
ENDBRANCH  18  20
ENDBRANCH   1  18
BRANCH   1  21
ATOM     21  O   UNL     1       2.630   6.634  19.878  0.00  0.00    +0.000 OA
BRANCH  21  22
ATOM     22  C   UNL     1       1.854   7.751  20.038  0.00  0.00    +0.000 A 
ATOM     23  C   UNL     1       1.236   7.875  21.275  0.00  0.00    +0.000 A 
ATOM     24  C   UNL     1       0.498   9.016  21.602  0.00  0.00    +0.000 A 
ATOM     25  C   UNL     1       0.402  10.070  20.681  0.00  0.00    +0.000 A 
ATOM     26  C   UNL     1       0.912   9.907  19.396  0.00  0.00    +0.000 A 
ATOM     27  C   UNL     1       1.661   8.761  19.088  0.00  0.00    +0.000 A 
BRANCH  25  28
ATOM     28  N   UNL     1      -0.218  11.295  21.053  0.00  0.00    +0.000 N 
ATOM     29  C   UNL     1      -0.099  12.488  20.377  0.00  0.00    +0.000 A 
ATOM     30  C   UNL     1      -0.177  13.397  21.386  0.00  0.00    +0.000 A 
ATOM     31  C   UNL     1       0.352  14.674  21.361  0.00  0.00    +0.000 A 
ATOM     32  C   UNL     1       0.111  15.307  22.600  0.00  0.00    +0.000 A 
ATOM     33  C   UNL     1       0.977  16.486  22.982  0.00  0.00    +0.000 C 
ATOM     34  C   UNL     1      -0.841  14.818  23.559  0.00  0.00    +0.000 A 
ATOM     35  C   UNL     1      -1.405  13.519  23.512  0.00  0.00    +0.000 A 
ATOM     36  C   UNL     1      -0.927  12.762  22.433  0.00  0.00    +0.000 A 
ATOM     37  N   UNL     1      -0.995  11.441  22.169  0.00  0.00    +0.000 NA
ENDBRANCH  25  28
ENDBRANCH  21  22
ENDBRANCH   1  21
TORSDOF 11
ENDMDL
MODEL 9
REMARK VINA RESULT:      -7.9      1.439      2.325
REMARK  Name = 
REMARK  13 active torsions:
REMARK  status: ('A' for Active; 'I' for Inactive)
REMARK    1  A    between atoms: C_1  and  C_2
REMARK    2  A    between atoms: C_2  and  C_3
REMARK    3  A    between atoms: C_3  and  C_4
REMARK    4  A    between atoms: C_4  and  O_5
REMARK    5  A    between atoms: C_4  and  C_22
REMARK    6  A    between atoms: O_5  and  C_6
REMARK    7  A    between atoms: C_9  and  N_10
REMARK    8  A    between atoms: C_14  and  C_15
REMARK    9  A    between atoms: C_25  and  C_26
REMARK   10  A    between atoms: N_28  and  C_29
REMARK   11  A    between atoms: C_29  and  C_30
REMARK   12  A    between atoms: C_30  and  C_31
REMARK   13  A    between atoms: C_31  and  O_33
REMARK                            x       y       z     vdW  Elec       q    Type
REMARK                         _______ _______ _______ _____ _____    ______ ____
ROOT
ATOM      1  C   UNL     1       2.457   5.643  18.726  0.00  0.00    +0.000 C 
ENDROOT
BRANCH   1   2
ATOM      2  C   UNL     1       3.539   5.544  17.655  0.00  0.00    +0.000 A 
ATOM      3  C   UNL     1       3.903   4.265  17.177  0.00  0.00    +0.000 A 
ATOM      4  C   UNL     1       4.911   4.126  16.214  0.00  0.00    +0.000 A 
ATOM      5  C   UNL     1       5.607   5.233  15.720  0.00  0.00    +0.000 A 
ATOM      6  C   UNL     1       5.267   6.507  16.200  0.00  0.00    +0.000 A 
ATOM      7  C   UNL     1       4.243   6.659  17.159  0.00  0.00    +0.000 A 
BRANCH   5   8
ATOM      8  C   UNL     1       6.686   4.961  14.712  0.00  0.00    +0.000 C 
ATOM      9  O   UNL     1       7.809   5.432  14.878  0.00  0.00    +0.000 OA
ATOM     10  N   UNL     1       6.390   4.181  13.606  0.00  0.00    +0.000 N 
ATOM     11  H   UNL     1       5.513   3.681  13.537  0.00  0.00    +0.000 HD
BRANCH  10  12
ATOM     12  C   UNL     1       7.385   3.894  12.584  0.00  0.00    +0.000 C 
BRANCH  12  13
ATOM     13  C   UNL     1       6.769   3.411  11.278  0.00  0.00    +0.000 C 
BRANCH  13  14
ATOM     14  C   UNL     1       5.595   2.504  11.509  0.00  0.00    +0.000 C 
ATOM     15  O   UNL     1       5.617   1.282  11.457  0.00  0.00    +0.000 OA
BRANCH  14  16
ATOM     16  O   UNL     1       4.457   3.188  11.786  0.00  0.00    +0.000 OA
ATOM     17  H   UNL     1       3.969   3.476  10.990  0.00  0.00    +0.000 HD
ENDBRANCH  14  16
ENDBRANCH  13  14
ENDBRANCH  12  13
ENDBRANCH  10  12
ENDBRANCH   5   8
ENDBRANCH   1   2
BRANCH   1  18
ATOM     18  C   UNL     1       2.235   4.277  19.404  0.00  0.00    +0.000 C 
BRANCH  18  20
ATOM     19  C   UNL     1       0.928   2.124  18.879  0.00  0.00    +0.000 C 
ATOM     20  C   UNL     1       0.873   3.628  19.110  0.00  0.00    +0.000 C 
ENDBRANCH  18  20
ENDBRANCH   1  18
BRANCH   1  21
ATOM     21  O   UNL     1       2.754   6.624  19.730  0.00  0.00    +0.000 OA
BRANCH  21  22
ATOM     22  C   UNL     1       2.014   7.775  19.761  0.00  0.00    +0.000 A 
ATOM     23  C   UNL     1       1.975   8.490  18.570  0.00  0.00    +0.000 A 
ATOM     24  C   UNL     1       1.176   9.628  18.439  0.00  0.00    +0.000 A 
ATOM     25  C   UNL     1       0.373  10.044  19.513  0.00  0.00    +0.000 A 
ATOM     26  C   UNL     1       0.497   9.410  20.746  0.00  0.00    +0.000 A 
ATOM     27  C   UNL     1       1.294   8.261  20.858  0.00  0.00    +0.000 A 
BRANCH  25  28
ATOM     28  N   UNL     1      -0.554  11.109  19.347  0.00  0.00    +0.000 N 
ATOM     29  C   UNL     1      -0.227  12.439  19.209  0.00  0.00    +0.000 A 
ATOM     30  C   UNL     1      -1.283  13.055  19.806  0.00  0.00    +0.000 A 
ATOM     31  C   UNL     1      -1.262  14.314  20.376  0.00  0.00    +0.000 A 
ATOM     32  C   UNL     1      -2.527  14.600  20.933  0.00  0.00    +0.000 A 
ATOM     33  C   UNL     1      -2.617  15.672  21.995  0.00  0.00    +0.000 C 
ATOM     34  C   UNL     1      -3.711  13.846  20.620  0.00  0.00    +0.000 A 
ATOM     35  C   UNL     1      -3.689  12.584  19.978  0.00  0.00    +0.000 A 
ATOM     36  C   UNL     1      -2.389  12.146  19.691  0.00  0.00    +0.000 A 
ATOM     37  N   UNL     1      -1.911  10.935  19.337  0.00  0.00    +0.000 NA
ENDBRANCH  25  28
ENDBRANCH  21  22
ENDBRANCH   1  21
TORSDOF 11
ENDMDL
