MODEL 1
REMARK VINA RESULT:      -7.9      0.000      0.000
REMARK  Name = 
REMARK  8 active torsions:
REMARK  status: ('A' for Active; 'I' for Inactive)
REMARK    1  A    between atoms: C_1  and  C_2
REMARK    2  A    between atoms: C_2  and  C_3
REMARK    3  A    between atoms: C_2  and  N_4
REMARK    4  A    between atoms: N_4  and  C_5
REMARK    5  A    between atoms: C_5  and  C_6
REMARK    6  A    between atoms: C_6  and  O_7
REMARK    7  A    between atoms: C_6  and  C_8
REMARK    8  A    between atoms: C_8  and  N_9
REMARK                            x       y       z     vdW  Elec       q    Type
REMARK                         _______ _______ _______ _____ _____    ______ ____
ROOT
ATOM      1  N   UNL     1       3.422   5.870  18.606  0.00  0.00    +0.000 N 
ATOM      2  C   UNL     1       2.770   4.589  18.641  0.00  0.00    +0.000 A 
ATOM      3  C   UNL     1       3.047   3.641  17.633  0.00  0.00    +0.000 A 
ATOM      4  C   UNL     1       2.362   2.425  17.570  0.00  0.00    +0.000 A 
ATOM      5  C   UNL     1       1.377   2.133  18.503  0.00  0.00    +0.000 A 
ATOM      6  C   UNL     1       1.080   3.048  19.508  0.00  0.00    +0.000 A 
ATOM      7  C   UNL     1       1.759   4.280  19.603  0.00  0.00    +0.000 A 
ATOM      8  C   UNL     1       1.338   5.152  20.776  0.00  0.00    +0.000 C 
ATOM      9  C   UNL     1       2.120   6.438  21.049  0.00  0.00    +0.000 C 
ATOM     10  C   UNL     1       2.021   7.386  19.896  0.00  0.00    +0.000 A 
ATOM     11  C   UNL     1       1.359   8.621  20.012  0.00  0.00    +0.000 A 
ATOM     12  C   UNL     1       1.317   9.500  18.922  0.00  0.00    +0.000 A 
ATOM     13  C   UNL     1       1.934   9.154  17.717  0.00  0.00    +0.000 A 
ATOM     14  C   UNL     1       2.608   7.942  17.610  0.00  0.00    +0.000 A 
ATOM     15  C   UNL     1       2.648   7.053  18.698  0.00  0.00    +0.000 A 
ENDROOT
BRANCH   1  16
ATOM     16  C   UNL     1       4.856   6.135  18.474  0.00  0.00    +0.000 C 
BRANCH  16  17
ATOM     17  C   UNL     1       5.831   4.966  18.595  0.00  0.00    +0.000 C 
BRANCH  17  18
ATOM     18  O   UNL     1       6.569   5.011  19.792  0.00  0.00    +0.000 OA
ATOM     19  H   UNL     1       6.689   5.965  20.039  0.00  0.00    +0.000 HD
ENDBRANCH  17  18
BRANCH  17  20
ATOM     20  C   UNL     1       6.767   4.981  17.362  0.00  0.00    +0.000 C 
BRANCH  20  21
ATOM     21  N   UNL     1       6.459   3.921  16.395  0.00  0.00    +0.000 NA
ATOM     22  H   UNL     1       7.371   3.546  16.040  0.00  0.00    +0.000 HD
BRANCH  21  24
ATOM     23  C   UNL     1       5.489   5.887  15.162  0.00  0.00    +0.000 C 
ATOM     24  C   UNL     1       5.634   4.352  15.245  0.00  0.00    +0.000 C 
ATOM     25  C   UNL     1       6.243   3.797  13.964  0.00  0.00    +0.000 C 
ENDBRANCH  21  24
ENDBRANCH  20  21
ENDBRANCH  17  20
ENDBRANCH  16  17
ENDBRANCH   1  16
TORSDOF 6
ENDMDL
MODEL 2
REMARK VINA RESULT:      -7.8      0.908      1.016
REMARK  Name = 
REMARK  8 active torsions:
REMARK  status: ('A' for Active; 'I' for Inactive)
REMARK    1  A    between atoms: C_1  and  C_2
REMARK    2  A    between atoms: C_2  and  C_3
REMARK    3  A    between atoms: C_2  and  N_4
REMARK    4  A    between atoms: N_4  and  C_5
REMARK    5  A    between atoms: C_5  and  C_6
REMARK    6  A    between atoms: C_6  and  O_7
REMARK    7  A    between atoms: C_6  and  C_8
REMARK    8  A    between atoms: C_8  and  N_9
REMARK                            x       y       z     vdW  Elec       q    Type
REMARK                         _______ _______ _______ _____ _____    ______ ____
ROOT
ATOM      1  N   UNL     1       3.639   5.474  18.729  0.00  0.00    +0.000 N 
ATOM      2  C   UNL     1       2.937   4.221  18.721  0.00  0.00    +0.000 A 
ATOM      3  C   UNL     1       3.284   3.236  17.771  0.00  0.00    +0.000 A 
ATOM      4  C   UNL     1       2.561   2.046  17.660  0.00  0.00    +0.000 A 
ATOM      5  C   UNL     1       1.469   1.816  18.486  0.00  0.00    +0.000 A 
ATOM      6  C   UNL     1       1.101   2.768  19.431  0.00  0.00    +0.000 A 
ATOM      7  C   UNL     1       1.815   3.975  19.573  0.00  0.00    +0.000 A 
ATOM      8  C   UNL     1       1.305   4.894  20.673  0.00  0.00    +0.000 C 
ATOM      9  C   UNL     1       2.103   6.156  21.001  0.00  0.00    +0.000 C 
ATOM     10  C   UNL     1       2.169   7.076  19.823  0.00  0.00    +0.000 A 
ATOM     11  C   UNL     1       1.549   8.338  19.839  0.00  0.00    +0.000 A 
ATOM     12  C   UNL     1       1.661   9.188  18.731  0.00  0.00    +0.000 A 
ATOM     13  C   UNL     1       2.392   8.788  17.610  0.00  0.00    +0.000 A 
ATOM     14  C   UNL     1       3.024   7.549  17.604  0.00  0.00    +0.000 A 
ATOM     15  C   UNL     1       2.909   6.689  18.710  0.00  0.00    +0.000 A 
ENDROOT
BRANCH   1  16
ATOM     16  C   UNL     1       5.090   5.682  18.750  0.00  0.00    +0.000 C 
BRANCH  16  17
ATOM     17  C   UNL     1       5.950   4.940  17.731  0.00  0.00    +0.000 C 
BRANCH  17  18
ATOM     18  O   UNL     1       6.986   4.209  18.341  0.00  0.00    +0.000 OA
ATOM     19  H   UNL     1       7.210   4.658  19.199  0.00  0.00    +0.000 HD
ENDBRANCH  17  18
BRANCH  17  20
ATOM     20  C   UNL     1       6.513   5.971  16.724  0.00  0.00    +0.000 C 
BRANCH  20  21
ATOM     21  N   UNL     1       7.399   5.367  15.720  0.00  0.00    +0.000 NA
ATOM     22  H   UNL     1       8.215   6.013  15.594  0.00  0.00    +0.000 HD
BRANCH  21  24
ATOM     23  C   UNL     1       7.773   5.230  13.237  0.00  0.00    +0.000 C 
ATOM     24  C   UNL     1       6.768   5.123  14.404  0.00  0.00    +0.000 C 
ATOM     25  C   UNL     1       6.105   3.752  14.420  0.00  0.00    +0.000 C 
ENDBRANCH  21  24
ENDBRANCH  20  21
ENDBRANCH  17  20
ENDBRANCH  16  17
ENDBRANCH   1  16
TORSDOF 6
ENDMDL
MODEL 3
REMARK VINA RESULT:      -7.6      1.532      2.095
REMARK  Name = 
REMARK  8 active torsions:
REMARK  status: ('A' for Active; 'I' for Inactive)
REMARK    1  A    between atoms: C_1  and  C_2
REMARK    2  A    between atoms: C_2  and  C_3
REMARK    3  A    between atoms: C_2  and  N_4
REMARK    4  A    between atoms: N_4  and  C_5
REMARK    5  A    between atoms: C_5  and  C_6
REMARK    6  A    between atoms: C_6  and  O_7
REMARK    7  A    between atoms: C_6  and  C_8
REMARK    8  A    between atoms: C_8  and  N_9
REMARK                            x       y       z     vdW  Elec       q    Type
REMARK                         _______ _______ _______ _____ _____    ______ ____
ROOT
ATOM      1  N   UNL     1       3.382   5.703  18.591  0.00  0.00    +0.000 N 
ATOM      2  C   UNL     1       2.685   4.447  18.655  0.00  0.00    +0.000 A 
ATOM      3  C   UNL     1       2.912   3.475  17.657  0.00  0.00    +0.000 A 
ATOM      4  C   UNL     1       2.182   2.285  17.621  0.00  0.00    +0.000 A 
ATOM      5  C   UNL     1       1.202   2.042  18.573  0.00  0.00    +0.000 A 
ATOM      6  C   UNL     1       0.953   2.982  19.569  0.00  0.00    +0.000 A 
ATOM      7  C   UNL     1       1.678   4.189  19.636  0.00  0.00    +0.000 A 
ATOM      8  C   UNL     1       1.307   5.093  20.802  0.00  0.00    +0.000 C 
ATOM      9  C   UNL     1       2.139   6.353  21.044  0.00  0.00    +0.000 C 
ATOM     10  C   UNL     1       2.056   7.287  19.879  0.00  0.00    +0.000 A 
ATOM     11  C   UNL     1       1.442   8.547  19.986  0.00  0.00    +0.000 A 
ATOM     12  C   UNL     1       1.415   9.411  18.884  0.00  0.00    +0.000 A 
ATOM     13  C   UNL     1       2.001   9.026  17.676  0.00  0.00    +0.000 A 
ATOM     14  C   UNL     1       2.629   7.789  17.577  0.00  0.00    +0.000 A 
ATOM     15  C   UNL     1       2.654   6.915  18.678  0.00  0.00    +0.000 A 
ENDROOT
BRANCH   1  16
ATOM     16  C   UNL     1       4.823   5.914  18.434  0.00  0.00    +0.000 C 
BRANCH  16  17
ATOM     17  C   UNL     1       5.604   4.979  17.514  0.00  0.00    +0.000 C 
BRANCH  17  18
ATOM     18  O   UNL     1       6.330   4.011  18.231  0.00  0.00    +0.000 OA
ATOM     19  H   UNL     1       5.755   3.688  18.973  0.00  0.00    +0.000 HD
ENDBRANCH  17  18
BRANCH  17  20
ATOM     20  C   UNL     1       6.540   5.836  16.627  0.00  0.00    +0.000 C 
BRANCH  20  21
ATOM     21  N   UNL     1       6.592   7.244  17.042  0.00  0.00    +0.000 NA
ATOM     22  H   UNL     1       6.335   7.825  16.209  0.00  0.00    +0.000 HD
BRANCH  21  24
ATOM     23  C   UNL     1       7.949   9.207  17.837  0.00  0.00    +0.000 C 
ATOM     24  C   UNL     1       7.906   7.689  17.555  0.00  0.00    +0.000 C 
ATOM     25  C   UNL     1       8.240   6.898  18.813  0.00  0.00    +0.000 C 
ENDBRANCH  21  24
ENDBRANCH  20  21
ENDBRANCH  17  20
ENDBRANCH  16  17
ENDBRANCH   1  16
TORSDOF 6
ENDMDL
MODEL 4
REMARK VINA RESULT:      -7.5      1.947      5.584
REMARK  Name = 
REMARK  8 active torsions:
REMARK  status: ('A' for Active; 'I' for Inactive)
REMARK    1  A    between atoms: C_1  and  C_2
REMARK    2  A    between atoms: C_2  and  C_3
REMARK    3  A    between atoms: C_2  and  N_4
REMARK    4  A    between atoms: N_4  and  C_5
REMARK    5  A    between atoms: C_5  and  C_6
REMARK    6  A    between atoms: C_6  and  O_7
REMARK    7  A    between atoms: C_6  and  C_8
REMARK    8  A    between atoms: C_8  and  N_9
REMARK                            x       y       z     vdW  Elec       q    Type
REMARK                         _______ _______ _______ _____ _____    ______ ____
ROOT
ATOM      1  N   UNL     1       3.701   5.485  19.125  0.00  0.00    +0.000 N 
ATOM      2  C   UNL     1       2.846   4.445  19.626  0.00  0.00    +0.000 A 
ATOM      3  C   UNL     1       2.354   4.525  20.947  0.00  0.00    +0.000 A 
ATOM      4  C   UNL     1       1.606   3.488  21.509  0.00  0.00    +0.000 A 
ATOM      5  C   UNL     1       1.340   2.343  20.770  0.00  0.00    +0.000 A 
ATOM      6  C   UNL     1       1.813   2.234  19.466  0.00  0.00    +0.000 A 
ATOM      7  C   UNL     1       2.564   3.265  18.868  0.00  0.00    +0.000 A 
ATOM      8  C   UNL     1       2.978   3.003  17.428  0.00  0.00    +0.000 C 
ATOM      9  C   UNL     1       3.666   4.124  16.649  0.00  0.00    +0.000 C 
ATOM     10  C   UNL     1       4.964   4.509  17.287  0.00  0.00    +0.000 A 
ATOM     11  C   UNL     1       6.194   4.289  16.645  0.00  0.00    +0.000 A 
ATOM     12  C   UNL     1       7.388   4.694  17.256  0.00  0.00    +0.000 A 
ATOM     13  C   UNL     1       7.359   5.321  18.505  0.00  0.00    +0.000 A 
ATOM     14  C   UNL     1       6.139   5.559  19.130  0.00  0.00    +0.000 A 
ATOM     15  C   UNL     1       4.939   5.148  18.524  0.00  0.00    +0.000 A 
ENDROOT
BRANCH   1  16
ATOM     16  C   UNL     1       3.459   6.930  19.158  0.00  0.00    +0.000 C 
BRANCH  16  17
ATOM     17  C   UNL     1       2.520   7.538  18.120  0.00  0.00    +0.000 C 
BRANCH  17  18
ATOM     18  O   UNL     1       3.206   7.966  16.968  0.00  0.00    +0.000 OA
ATOM     19  H   UNL     1       4.166   8.066  17.206  0.00  0.00    +0.000 HD
ENDBRANCH  17  18
BRANCH  17  20
ATOM     20  C   UNL     1       1.754   8.710  18.780  0.00  0.00    +0.000 C 
BRANCH  20  21
ATOM     21  N   UNL     1       1.020   9.533  17.811  0.00  0.00    +0.000 NA
ATOM     22  H   UNL     1       1.710  10.186  17.368  0.00  0.00    +0.000 HD
BRANCH  21  24
ATOM     23  C   UNL     1      -1.430  10.081  17.656  0.00  0.00    +0.000 C 
ATOM     24  C   UNL     1      -0.091  10.323  18.386  0.00  0.00    +0.000 C 
ATOM     25  C   UNL     1      -0.218   9.993  19.867  0.00  0.00    +0.000 C 
ENDBRANCH  21  24
ENDBRANCH  20  21
ENDBRANCH  17  20
ENDBRANCH  16  17
ENDBRANCH   1  16
TORSDOF 6
ENDMDL
MODEL 5
REMARK VINA RESULT:      -7.4      1.896      5.685
REMARK  Name = 
REMARK  8 active torsions:
REMARK  status: ('A' for Active; 'I' for Inactive)
REMARK    1  A    between atoms: C_1  and  C_2
REMARK    2  A    between atoms: C_2  and  C_3
REMARK    3  A    between atoms: C_2  and  N_4
REMARK    4  A    between atoms: N_4  and  C_5
REMARK    5  A    between atoms: C_5  and  C_6
REMARK    6  A    between atoms: C_6  and  O_7
REMARK    7  A    between atoms: C_6  and  C_8
REMARK    8  A    between atoms: C_8  and  N_9
REMARK                            x       y       z     vdW  Elec       q    Type
REMARK                         _______ _______ _______ _____ _____    ______ ____
ROOT
ATOM      1  N   UNL     1       3.783   5.463  19.080  0.00  0.00    +0.000 N 
ATOM      2  C   UNL     1       2.917   4.438  19.594  0.00  0.00    +0.000 A 
ATOM      3  C   UNL     1       2.445   4.528  20.921  0.00  0.00    +0.000 A 
ATOM      4  C   UNL     1       1.687   3.505  21.494  0.00  0.00    +0.000 A 
ATOM      5  C   UNL     1       1.392   2.364  20.761  0.00  0.00    +0.000 A 
ATOM      6  C   UNL     1       1.845   2.245  19.450  0.00  0.00    +0.000 A 
ATOM      7  C   UNL     1       2.605   3.263  18.841  0.00  0.00    +0.000 A 
ATOM      8  C   UNL     1       2.994   2.992  17.396  0.00  0.00    +0.000 C 
ATOM      9  C   UNL     1       3.691   4.101  16.606  0.00  0.00    +0.000 C 
ATOM     10  C   UNL     1       5.004   4.464  17.226  0.00  0.00    +0.000 A 
ATOM     11  C   UNL     1       6.221   4.223  16.567  0.00  0.00    +0.000 A 
ATOM     12  C   UNL     1       7.430   4.608  17.161  0.00  0.00    +0.000 A 
ATOM     13  C   UNL     1       7.429   5.236  18.409  0.00  0.00    +0.000 A 
ATOM     14  C   UNL     1       6.222   5.495  19.051  0.00  0.00    +0.000 A 
ATOM     15  C   UNL     1       5.007   5.104  18.462  0.00  0.00    +0.000 A 
ENDROOT
BRANCH   1  16
ATOM     16  C   UNL     1       3.566   6.912  19.114  0.00  0.00    +0.000 C 
BRANCH  16  17
ATOM     17  C   UNL     1       2.468   7.508  18.237  0.00  0.00    +0.000 C 
BRANCH  17  18
ATOM     18  O   UNL     1       2.985   8.126  17.084  0.00  0.00    +0.000 OA
ATOM     19  H   UNL     1       2.699   7.590  16.298  0.00  0.00    +0.000 HD
ENDBRANCH  17  18
BRANCH  17  20
ATOM     20  C   UNL     1       1.653   8.511  19.089  0.00  0.00    +0.000 C 
BRANCH  20  21
ATOM     21  N   UNL     1       1.575   8.130  20.505  0.00  0.00    +0.000 NA
ATOM     22  H   UNL     1       0.999   7.256  20.562  0.00  0.00    +0.000 HD
BRANCH  21  24
ATOM     23  C   UNL     1       0.799  10.515  20.683  0.00  0.00    +0.000 C 
ATOM     24  C   UNL     1       0.984   9.156  21.391  0.00  0.00    +0.000 C 
ATOM     25  C   UNL     1      -0.346   8.641  21.927  0.00  0.00    +0.000 C 
ENDBRANCH  21  24
ENDBRANCH  20  21
ENDBRANCH  17  20
ENDBRANCH  16  17
ENDBRANCH   1  16
TORSDOF 6
ENDMDL
MODEL 6
REMARK VINA RESULT:      -7.2      1.937      5.483
REMARK  Name = 
REMARK  8 active torsions:
REMARK  status: ('A' for Active; 'I' for Inactive)
REMARK    1  A    between atoms: C_1  and  C_2
REMARK    2  A    between atoms: C_2  and  C_3
REMARK    3  A    between atoms: C_2  and  N_4
REMARK    4  A    between atoms: N_4  and  C_5
REMARK    5  A    between atoms: C_5  and  C_6
REMARK    6  A    between atoms: C_6  and  O_7
REMARK    7  A    between atoms: C_6  and  C_8
REMARK    8  A    between atoms: C_8  and  N_9
REMARK                            x       y       z     vdW  Elec       q    Type
REMARK                         _______ _______ _______ _____ _____    ______ ____
ROOT
ATOM      1  N   UNL     1       3.687   5.504  19.053  0.00  0.00    +0.000 N 
ATOM      2  C   UNL     1       2.843   4.460  19.568  0.00  0.00    +0.000 A 
ATOM      3  C   UNL     1       2.313   4.574  20.871  0.00  0.00    +0.000 A 
ATOM      4  C   UNL     1       1.575   3.540  21.450  0.00  0.00    +0.000 A 
ATOM      5  C   UNL     1       1.358   2.363  20.746  0.00  0.00    +0.000 A 
ATOM      6  C   UNL     1       1.869   2.219  19.460  0.00  0.00    +0.000 A 
ATOM      7  C   UNL     1       2.612   3.248  18.846  0.00  0.00    +0.000 A 
ATOM      8  C   UNL     1       3.072   2.945  17.428  0.00  0.00    +0.000 C 
ATOM      9  C   UNL     1       3.754   4.055  16.628  0.00  0.00    +0.000 C 
ATOM     10  C   UNL     1       5.024   4.495  17.287  0.00  0.00    +0.000 A 
ATOM     11  C   UNL     1       6.277   4.284  16.686  0.00  0.00    +0.000 A 
ATOM     12  C   UNL     1       7.442   4.741  17.314  0.00  0.00    +0.000 A 
ATOM     13  C   UNL     1       7.364   5.410  18.538  0.00  0.00    +0.000 A 
ATOM     14  C   UNL     1       6.121   5.639  19.121  0.00  0.00    +0.000 A 
ATOM     15  C   UNL     1       4.949   5.177  18.498  0.00  0.00    +0.000 A 
ENDROOT
BRANCH   1  16
ATOM     16  C   UNL     1       3.409   6.942  19.028  0.00  0.00    +0.000 C 
BRANCH  16  17
ATOM     17  C   UNL     1       2.666   7.522  17.826  0.00  0.00    +0.000 C 
BRANCH  17  18
ATOM     18  O   UNL     1       3.545   7.998  16.837  0.00  0.00    +0.000 OA
ATOM     19  H   UNL     1       3.256   7.620  15.965  0.00  0.00    +0.000 HD
ENDBRANCH  17  18
BRANCH  17  20
ATOM     20  C   UNL     1       1.729   8.647  18.328  0.00  0.00    +0.000 C 
BRANCH  20  21
ATOM     21  N   UNL     1       2.018   9.949  17.715  0.00  0.00    +0.000 NA
ATOM     22  H   UNL     1       3.028   9.947  17.437  0.00  0.00    +0.000 HD
BRANCH  21  24
ATOM     23  C   UNL     1       2.410  12.410  18.056  0.00  0.00    +0.000 C 
ATOM     24  C   UNL     1       1.760  11.115  18.589  0.00  0.00    +0.000 C 
ATOM     25  C   UNL     1       0.256  11.293  18.746  0.00  0.00    +0.000 C 
ENDBRANCH  21  24
ENDBRANCH  20  21
ENDBRANCH  17  20
ENDBRANCH  16  17
ENDBRANCH   1  16
TORSDOF 6
ENDMDL
MODEL 7
REMARK VINA RESULT:      -7.0      1.764      5.892
REMARK  Name = 
REMARK  8 active torsions:
REMARK  status: ('A' for Active; 'I' for Inactive)
REMARK    1  A    between atoms: C_1  and  C_2
REMARK    2  A    between atoms: C_2  and  C_3
REMARK    3  A    between atoms: C_2  and  N_4
REMARK    4  A    between atoms: N_4  and  C_5
REMARK    5  A    between atoms: C_5  and  C_6
REMARK    6  A    between atoms: C_6  and  O_7
REMARK    7  A    between atoms: C_6  and  C_8
REMARK    8  A    between atoms: C_8  and  N_9
REMARK                            x       y       z     vdW  Elec       q    Type
REMARK                         _______ _______ _______ _____ _____    ______ ____
ROOT
ATOM      1  N   UNL     1       4.676   4.359  16.782  0.00  0.00    +0.000 N 
ATOM      2  C   UNL     1       4.003   5.521  17.295  0.00  0.00    +0.000 A 
ATOM      3  C   UNL     1       2.627   5.448  17.602  0.00  0.00    +0.000 A 
ATOM      4  C   UNL     1       1.910   6.577  18.004  0.00  0.00    +0.000 A 
ATOM      5  C   UNL     1       2.547   7.807  18.098  0.00  0.00    +0.000 A 
ATOM      6  C   UNL     1       3.902   7.912  17.799  0.00  0.00    +0.000 A 
ATOM      7  C   UNL     1       4.654   6.790  17.398  0.00  0.00    +0.000 A 
ATOM      8  C   UNL     1       6.127   7.067  17.140  0.00  0.00    +0.000 C 
ATOM      9  C   UNL     1       7.053   5.886  16.846  0.00  0.00    +0.000 C 
ATOM     10  C   UNL     1       6.640   5.173  15.597  0.00  0.00    +0.000 A 
ATOM     11  C   UNL     1       7.454   5.164  14.451  0.00  0.00    +0.000 A 
ATOM     12  C   UNL     1       7.052   4.456  13.311  0.00  0.00    +0.000 A 
ATOM     13  C   UNL     1       5.844   3.755  13.309  0.00  0.00    +0.000 A 
ATOM     14  C   UNL     1       5.050   3.746  14.451  0.00  0.00    +0.000 A 
ATOM     15  C   UNL     1       5.445   4.460  15.596  0.00  0.00    +0.000 A 
ENDROOT
BRANCH   1  16
ATOM     16  C   UNL     1       4.672   3.007  17.345  0.00  0.00    +0.000 C 
BRANCH  16  17
ATOM     17  C   UNL     1       4.183   2.813  18.779  0.00  0.00    +0.000 C 
BRANCH  17  18
ATOM     18  O   UNL     1       5.240   2.542  19.668  0.00  0.00    +0.000 OA
ATOM     19  H   UNL     1       5.352   3.334  20.257  0.00  0.00    +0.000 HD
ENDBRANCH  17  18
BRANCH  17  20
ATOM     20  C   UNL     1       3.139   1.671  18.789  0.00  0.00    +0.000 C 
BRANCH  20  21
ATOM     21  N   UNL     1       1.875   2.056  19.431  0.00  0.00    +0.000 NA
ATOM     22  H   UNL     1       1.216   2.351  18.672  0.00  0.00    +0.000 HD
BRANCH  21  24
ATOM     23  C   UNL     1       0.796   4.125  20.369  0.00  0.00    +0.000 C 
ATOM     24  C   UNL     1       1.991   3.149  20.421  0.00  0.00    +0.000 C 
ATOM     25  C   UNL     1       2.135   2.545  21.812  0.00  0.00    +0.000 C 
ENDBRANCH  21  24
ENDBRANCH  20  21
ENDBRANCH  17  20
ENDBRANCH  16  17
ENDBRANCH   1  16
TORSDOF 6
ENDMDL
MODEL 8
REMARK VINA RESULT:      -6.9      1.247      1.341
REMARK  Name = 
REMARK  8 active torsions:
REMARK  status: ('A' for Active; 'I' for Inactive)
REMARK    1  A    between atoms: C_1  and  C_2
REMARK    2  A    between atoms: C_2  and  C_3
REMARK    3  A    between atoms: C_2  and  N_4
REMARK    4  A    between atoms: N_4  and  C_5
REMARK    5  A    between atoms: C_5  and  C_6
REMARK    6  A    between atoms: C_6  and  O_7
REMARK    7  A    between atoms: C_6  and  C_8
REMARK    8  A    between atoms: C_8  and  N_9
REMARK                            x       y       z     vdW  Elec       q    Type
REMARK                         _______ _______ _______ _____ _____    ______ ____
ROOT
ATOM      1  N   UNL     1       3.471   6.036  18.630  0.00  0.00    +0.000 N 
ATOM      2  C   UNL     1       2.860   4.736  18.581  0.00  0.00    +0.000 A 
ATOM      3  C   UNL     1       3.203   3.846  17.541  0.00  0.00    +0.000 A 
ATOM      4  C   UNL     1       2.560   2.615  17.395  0.00  0.00    +0.000 A 
ATOM      5  C   UNL     1       1.551   2.249  18.276  0.00  0.00    +0.000 A 
ATOM      6  C   UNL     1       1.189   3.106  19.310  0.00  0.00    +0.000 A 
ATOM      7  C   UNL     1       1.825   4.351  19.489  0.00  0.00    +0.000 A 
ATOM      8  C   UNL     1       1.334   5.154  20.684  0.00  0.00    +0.000 C 
ATOM      9  C   UNL     1       2.064   6.448  21.046  0.00  0.00    +0.000 C 
ATOM     10  C   UNL     1       1.977   7.447  19.935  0.00  0.00    +0.000 A 
ATOM     11  C   UNL     1       1.274   8.654  20.083  0.00  0.00    +0.000 A 
ATOM     12  C   UNL     1       1.243   9.582  19.035  0.00  0.00    +0.000 A 
ATOM     13  C   UNL     1       1.914   9.313  17.839  0.00  0.00    +0.000 A 
ATOM     14  C   UNL     1       2.630   8.128  17.701  0.00  0.00    +0.000 A 
ATOM     15  C   UNL     1       2.658   7.190  18.748  0.00  0.00    +0.000 A 
ENDROOT
BRANCH   1  16
ATOM     16  C   UNL     1       4.901   6.350  18.565  0.00  0.00    +0.000 C 
BRANCH  16  17
ATOM     17  C   UNL     1       5.512   6.699  17.210  0.00  0.00    +0.000 C 
BRANCH  17  18
ATOM     18  O   UNL     1       4.585   6.571  16.159  0.00  0.00    +0.000 OA
ATOM     19  H   UNL     1       4.594   5.623  15.861  0.00  0.00    +0.000 HD
ENDBRANCH  17  18
BRANCH  17  20
ATOM     20  C   UNL     1       6.744   5.790  16.981  0.00  0.00    +0.000 C 
BRANCH  20  21
ATOM     21  N   UNL     1       7.268   5.869  15.611  0.00  0.00    +0.000 NA
ATOM     22  H   UNL     1       6.698   6.585  15.100  0.00  0.00    +0.000 HD
BRANCH  21  24
ATOM     23  C   UNL     1       5.992   3.740  15.203  0.00  0.00    +0.000 C 
ATOM     24  C   UNL     1       7.231   4.595  14.860  0.00  0.00    +0.000 C 
ATOM     25  C   UNL     1       7.280   4.899  13.368  0.00  0.00    +0.000 C 
ENDBRANCH  21  24
ENDBRANCH  20  21
ENDBRANCH  17  20
ENDBRANCH  16  17
ENDBRANCH   1  16
TORSDOF 6
ENDMDL
MODEL 9
REMARK VINA RESULT:      -6.9      2.135      5.499
REMARK  Name = 
REMARK  8 active torsions:
REMARK  status: ('A' for Active; 'I' for Inactive)
REMARK    1  A    between atoms: C_1  and  C_2
REMARK    2  A    between atoms: C_2  and  C_3
REMARK    3  A    between atoms: C_2  and  N_4
REMARK    4  A    between atoms: N_4  and  C_5
REMARK    5  A    between atoms: C_5  and  C_6
REMARK    6  A    between atoms: C_6  and  O_7
REMARK    7  A    between atoms: C_6  and  C_8
REMARK    8  A    between atoms: C_8  and  N_9
REMARK                            x       y       z     vdW  Elec       q    Type
REMARK                         _______ _______ _______ _____ _____    ______ ____
ROOT
ATOM      1  N   UNL     1       3.096   5.550  18.309  0.00  0.00    +0.000 N 
ATOM      2  C   UNL     1       2.804   4.559  19.308  0.00  0.00    +0.000 A 
ATOM      3  C   UNL     1       2.325   4.967  20.571  0.00  0.00    +0.000 A 
ATOM      4  C   UNL     1       2.126   4.049  21.605  0.00  0.00    +0.000 A 
ATOM      5  C   UNL     1       2.411   2.705  21.405  0.00  0.00    +0.000 A 
ATOM      6  C   UNL     1       2.887   2.272  20.171  0.00  0.00    +0.000 A 
ATOM      7  C   UNL     1       3.090   3.173  19.107  0.00  0.00    +0.000 A 
ATOM      8  C   UNL     1       3.583   2.535  17.816  0.00  0.00    +0.000 C 
ATOM      9  C   UNL     1       3.691   3.407  16.564  0.00  0.00    +0.000 C 
ATOM     10  C   UNL     1       4.671   4.520  16.763  0.00  0.00    +0.000 A 
ATOM     11  C   UNL     1       5.869   4.586  16.032  0.00  0.00    +0.000 A 
ATOM     12  C   UNL     1       6.747   5.661  16.218  0.00  0.00    +0.000 A 
ATOM     13  C   UNL     1       6.433   6.674  17.128  0.00  0.00    +0.000 A 
ATOM     14  C   UNL     1       5.236   6.620  17.835  0.00  0.00    +0.000 A 
ATOM     15  C   UNL     1       4.355   5.540  17.657  0.00  0.00    +0.000 A 
ENDROOT
BRANCH   1  16
ATOM     16  C   UNL     1       2.225   6.634  17.849  0.00  0.00    +0.000 C 
BRANCH  16  17
ATOM     17  C   UNL     1       2.344   8.002  18.517  0.00  0.00    +0.000 C 
BRANCH  17  18
ATOM     18  O   UNL     1       1.971   7.965  19.873  0.00  0.00    +0.000 OA
ATOM     19  H   UNL     1       2.652   7.431  20.361  0.00  0.00    +0.000 HD
ENDBRANCH  17  18
BRANCH  17  20
ATOM     20  C   UNL     1       1.475   9.009  17.726  0.00  0.00    +0.000 C 
BRANCH  20  21
ATOM     21  N   UNL     1       2.098  10.333  17.607  0.00  0.00    +0.000 NA
ATOM     22  H   UNL     1       3.136  10.197  17.664  0.00  0.00    +0.000 HD
BRANCH  21  24
ATOM     23  C   UNL     1       2.179  12.739  18.336  0.00  0.00    +0.000 C 
ATOM     24  C   UNL     1       1.682  11.309  18.638  0.00  0.00    +0.000 C 
ATOM     25  C   UNL     1       0.164  11.281  18.761  0.00  0.00    +0.000 C 
ENDBRANCH  21  24
ENDBRANCH  20  21
ENDBRANCH  17  20
ENDBRANCH  16  17
ENDBRANCH   1  16
TORSDOF 6
ENDMDL
