MODEL 1
REMARK VINA RESULT:      -8.4      0.000      0.000
REMARK  Name = 
REMARK  10 active torsions:
REMARK  status: ('A' for Active; 'I' for Inactive)
REMARK    1  A    between atoms: C_1  and  C_2
REMARK    2  A    between atoms: N_5  and  C_6
REMARK    3  A    between atoms: C_6  and  C_7
REMARK    4  A    between atoms: C_6  and  C_8
REMARK    5  A    between atoms: C_12  and  O_13
REMARK    6  A    between atoms: O_13  and  C_14
REMARK    7  A    between atoms: C_14  and  C_15
REMARK    8  A    between atoms: C_15  and  O_16
REMARK    9  A    between atoms: C_15  and  C_17
REMARK   10  A    between atoms: C_21  and  C_22
REMARK                            x       y       z     vdW  Elec       q    Type
REMARK                         _______ _______ _______ _____ _____    ______ ____
ROOT
ATOM      1  C   UNL     1       2.426   3.578  21.189  0.00  0.00    +0.000 C 
ATOM      2  C   UNL     1       2.871   4.454  20.058  0.00  0.00    +0.000 A 
ATOM      3  N   UNL     1       3.666   3.918  19.115  0.00  0.00    +0.000 NA
ATOM      4  C   UNL     1       3.985   4.685  18.065  0.00  0.00    +0.000 A 
ATOM      5  N   UNL     1       4.771   4.087  17.091  0.00  0.00    +0.000 N 
ATOM      6  C   UNL     1       3.496   5.967  17.950  0.00  0.00    +0.000 A 
ATOM      7  C   UNL     1       2.719   6.466  18.977  0.00  0.00    +0.000 A 
ATOM      8  N   UNL     1       2.407   5.715  20.048  0.00  0.00    +0.000 NA
ATOM      9  H   UNL     1       5.106   3.199  17.457  0.00  0.00    +0.000 HD
ENDROOT
BRANCH   7  10
ATOM     10  C   UNL     1       2.196   7.849  18.963  0.00  0.00    +0.000 A 
ATOM     11  C   UNL     1       2.363   8.667  17.834  0.00  0.00    +0.000 A 
ATOM     12  C   UNL     1       1.860   9.976  17.785  0.00  0.00    +0.000 A 
ATOM     13  C   UNL     1       1.168  10.501  18.893  0.00  0.00    +0.000 A 
ATOM     14  N   UNL     1       0.622  11.770  18.989  0.00  0.00    +0.000 NA
ATOM     15  C   UNL     1       0.059  11.918  20.167  0.00  0.00    +0.000 A 
ATOM     16  S   UNL     1       0.133  10.569  21.220  0.00  0.00    +0.000 S 
ATOM     17  C   UNL     1       1.004   9.694  20.017  0.00  0.00    +0.000 A 
ATOM     18  C   UNL     1       1.506   8.381  20.072  0.00  0.00    +0.000 A 
ENDBRANCH   7  10
BRANCH   5  19
ATOM     19  C   UNL     1       5.751   4.865  16.341  0.00  0.00    +0.000 C 
ATOM     20  C   UNL     1       5.074   5.865  15.405  0.00  0.00    +0.000 C 
BRANCH  19  21
ATOM     21  C   UNL     1       6.723   5.591  17.261  0.00  0.00    +0.000 A 
ATOM     22  C   UNL     1       7.359   4.982  18.349  0.00  0.00    +0.000 A 
ATOM     23  C   UNL     1       8.169   5.734  19.203  0.00  0.00    +0.000 A 
ATOM     24  C   UNL     1       8.343   7.103  18.984  0.00  0.00    +0.000 A 
ATOM     25  C   UNL     1       7.727   7.729  17.902  0.00  0.00    +0.000 A 
ATOM     26  C   UNL     1       6.931   6.967  17.045  0.00  0.00    +0.000 A 
BRANCH  25  27
ATOM     27  O   UNL     1       7.949   9.077  17.788  0.00  0.00    +0.000 OA
BRANCH  27  28
ATOM     28  C   UNL     1       8.868   9.649  18.729  0.00  0.00    +0.000 C 
BRANCH  28  29
ATOM     29  C   UNL     1       9.303  11.034  18.242  0.00  0.00    +0.000 C 
BRANCH  29  30
ATOM     30  O   UNL     1       8.211  11.682  17.577  0.00  0.00    +0.000 OA
ATOM     31  H   UNL     1       8.600  12.212  16.854  0.00  0.00    +0.000 HD
ENDBRANCH  29  30
BRANCH  29  32
ATOM     32  C   UNL     1       9.810  11.903  19.387  0.00  0.00    +0.000 C 
ATOM     33  F   UNL     1      11.169  11.879  19.403  0.00  0.00    +0.000 F 
ENDBRANCH  29  32
ENDBRANCH  28  29
ENDBRANCH  27  28
ENDBRANCH  25  27
ENDBRANCH  19  21
ENDBRANCH   5  19
TORSDOF 8
ENDMDL
MODEL 2
REMARK VINA RESULT:      -8.4      4.670      8.377
REMARK  Name = 
REMARK  10 active torsions:
REMARK  status: ('A' for Active; 'I' for Inactive)
REMARK    1  A    between atoms: C_1  and  C_2
REMARK    2  A    between atoms: N_5  and  C_6
REMARK    3  A    between atoms: C_6  and  C_7
REMARK    4  A    between atoms: C_6  and  C_8
REMARK    5  A    between atoms: C_12  and  O_13
REMARK    6  A    between atoms: O_13  and  C_14
REMARK    7  A    between atoms: C_14  and  C_15
REMARK    8  A    between atoms: C_15  and  O_16
REMARK    9  A    between atoms: C_15  and  C_17
REMARK   10  A    between atoms: C_21  and  C_22
REMARK                            x       y       z     vdW  Elec       q    Type
REMARK                         _______ _______ _______ _____ _____    ______ ____
ROOT
ATOM      1  C   UNL     1       1.031   2.756  19.553  0.00  0.00    +0.000 C 
ATOM      2  C   UNL     1       1.725   4.076  19.411  0.00  0.00    +0.000 A 
ATOM      3  N   UNL     1       1.318   5.094  20.191  0.00  0.00    +0.000 NA
ATOM      4  C   UNL     1       2.002   6.242  20.117  0.00  0.00    +0.000 A 
ATOM      5  N   UNL     1       1.582   7.256  20.965  0.00  0.00    +0.000 N 
ATOM      6  C   UNL     1       3.096   6.363  19.288  0.00  0.00    +0.000 A 
ATOM      7  C   UNL     1       3.431   5.290  18.486  0.00  0.00    +0.000 A 
ATOM      8  N   UNL     1       2.740   4.137  18.533  0.00  0.00    +0.000 NA
ATOM      9  H   UNL     1       0.695   6.977  21.375  0.00  0.00    +0.000 HD
ENDROOT
BRANCH   7  10
ATOM     10  C   UNL     1       4.555   5.350  17.528  0.00  0.00    +0.000 A 
ATOM     11  C   UNL     1       5.710   6.091  17.824  0.00  0.00    +0.000 A 
ATOM     12  C   UNL     1       6.801   6.149  16.942  0.00  0.00    +0.000 A 
ATOM     13  C   UNL     1       6.750   5.453  15.720  0.00  0.00    +0.000 A 
ATOM     14  N   UNL     1       7.743   5.420  14.755  0.00  0.00    +0.000 NA
ATOM     15  C   UNL     1       7.350   4.679  13.745  0.00  0.00    +0.000 A 
ATOM     16  S   UNL     1       5.796   3.971  13.880  0.00  0.00    +0.000 S 
ATOM     17  C   UNL     1       5.603   4.719  15.421  0.00  0.00    +0.000 A 
ATOM     18  C   UNL     1       4.507   4.657  16.300  0.00  0.00    +0.000 A 
ENDBRANCH   7  10
BRANCH   5  19
ATOM     19  C   UNL     1       1.673   8.654  20.558  0.00  0.00    +0.000 C 
ATOM     20  C   UNL     1       1.336   8.831  19.078  0.00  0.00    +0.000 C 
BRANCH  19  21
ATOM     21  C   UNL     1       0.779   9.550  21.405  0.00  0.00    +0.000 A 
ATOM     22  C   UNL     1       0.229   9.157  22.631  0.00  0.00    +0.000 A 
ATOM     23  C   UNL     1      -0.655  10.000  23.308  0.00  0.00    +0.000 A 
ATOM     24  C   UNL     1      -1.005  11.238  22.763  0.00  0.00    +0.000 A 
ATOM     25  C   UNL     1      -0.462  11.654  21.549  0.00  0.00    +0.000 A 
ATOM     26  C   UNL     1       0.431  10.813  20.885  0.00  0.00    +0.000 A 
BRANCH  25  27
ATOM     27  O   UNL     1      -0.885  12.877  21.095  0.00  0.00    +0.000 OA
BRANCH  27  28
ATOM     28  C   UNL     1      -1.314  12.931  19.727  0.00  0.00    +0.000 C 
BRANCH  28  29
ATOM     29  C   UNL     1      -2.677  12.246  19.591  0.00  0.00    +0.000 C 
BRANCH  29  30
ATOM     30  O   UNL     1      -3.721  13.228  19.610  0.00  0.00    +0.000 OA
ATOM     31  H   UNL     1      -3.388  13.999  19.111  0.00  0.00    +0.000 HD
ENDBRANCH  29  30
BRANCH  29  32
ATOM     32  C   UNL     1      -2.766  11.409  18.322  0.00  0.00    +0.000 C 
ATOM     33  F   UNL     1      -1.549  10.867  18.052  0.00  0.00    +0.000 F 
ENDBRANCH  29  32
ENDBRANCH  28  29
ENDBRANCH  27  28
ENDBRANCH  25  27
ENDBRANCH  19  21
ENDBRANCH   5  19
TORSDOF 8
ENDMDL
MODEL 3
REMARK VINA RESULT:      -8.3      1.090      1.157
REMARK  Name = 
REMARK  10 active torsions:
REMARK  status: ('A' for Active; 'I' for Inactive)
REMARK    1  A    between atoms: C_1  and  C_2
REMARK    2  A    between atoms: N_5  and  C_6
REMARK    3  A    between atoms: C_6  and  C_7
REMARK    4  A    between atoms: C_6  and  C_8
REMARK    5  A    between atoms: C_12  and  O_13
REMARK    6  A    between atoms: O_13  and  C_14
REMARK    7  A    between atoms: C_14  and  C_15
REMARK    8  A    between atoms: C_15  and  O_16
REMARK    9  A    between atoms: C_15  and  C_17
REMARK   10  A    between atoms: C_21  and  C_22
REMARK                            x       y       z     vdW  Elec       q    Type
REMARK                         _______ _______ _______ _____ _____    ______ ____
ROOT
ATOM      1  C   UNL     1       2.981   2.701  20.881  0.00  0.00    +0.000 C 
ATOM      2  C   UNL     1       3.356   3.698  19.828  0.00  0.00    +0.000 A 
ATOM      3  N   UNL     1       4.187   3.302  18.847  0.00  0.00    +0.000 NA
ATOM      4  C   UNL     1       4.445   4.174  17.865  0.00  0.00    +0.000 A 
ATOM      5  N   UNL     1       5.271   3.718  16.848  0.00  0.00    +0.000 N 
ATOM      6  C   UNL     1       3.860   5.421  17.852  0.00  0.00    +0.000 A 
ATOM      7  C   UNL     1       3.050   5.774  18.914  0.00  0.00    +0.000 A 
ATOM      8  N   UNL     1       2.798   4.917  19.919  0.00  0.00    +0.000 NA
ATOM      9  H   UNL     1       5.672   2.831  17.142  0.00  0.00    +0.000 HD
ENDROOT
BRANCH   7  10
ATOM     10  C   UNL     1       2.425   7.111  19.011  0.00  0.00    +0.000 A 
ATOM     11  C   UNL     1       2.372   7.960  17.893  0.00  0.00    +0.000 A 
ATOM     12  C   UNL     1       1.766   9.225  17.951  0.00  0.00    +0.000 A 
ATOM     13  C   UNL     1       1.195   9.672  19.157  0.00  0.00    +0.000 A 
ATOM     14  N   UNL     1       0.570  10.891  19.363  0.00  0.00    +0.000 NA
ATOM     15  C   UNL     1       0.165  10.972  20.610  0.00  0.00    +0.000 A 
ATOM     16  S   UNL     1       0.487   9.614  21.604  0.00  0.00    +0.000 S 
ATOM     17  C   UNL     1       1.249   8.834  20.270  0.00  0.00    +0.000 A 
ATOM     18  C   UNL     1       1.855   7.566  20.218  0.00  0.00    +0.000 A 
ENDBRANCH   7  10
BRANCH   5  19
ATOM     19  C   UNL     1       6.188   4.627  16.168  0.00  0.00    +0.000 C 
ATOM     20  C   UNL     1       5.450   5.539  15.189  0.00  0.00    +0.000 C 
BRANCH  19  21
ATOM     21  C   UNL     1       6.992   5.464  17.153  0.00  0.00    +0.000 A 
ATOM     22  C   UNL     1       7.581   4.943  18.311  0.00  0.00    +0.000 A 
ATOM     23  C   UNL     1       8.227   5.789  19.215  0.00  0.00    +0.000 A 
ATOM     24  C   UNL     1       8.282   7.165  18.975  0.00  0.00    +0.000 A 
ATOM     25  C   UNL     1       7.711   7.705  17.825  0.00  0.00    +0.000 A 
ATOM     26  C   UNL     1       7.080   6.851  16.919  0.00  0.00    +0.000 A 
BRANCH  25  27
ATOM     27  O   UNL     1       7.806   9.066  17.695  0.00  0.00    +0.000 OA
BRANCH  27  28
ATOM     28  C   UNL     1       8.959   9.680  18.290  0.00  0.00    +0.000 C 
BRANCH  28  29
ATOM     29  C   UNL     1       8.652  11.146  18.606  0.00  0.00    +0.000 C 
BRANCH  29  30
ATOM     30  O   UNL     1       9.827  11.793  19.111  0.00  0.00    +0.000 OA
ATOM     31  H   UNL     1       9.980  11.433  20.007  0.00  0.00    +0.000 HD
ENDBRANCH  29  30
BRANCH  29  32
ATOM     32  C   UNL     1       8.125  11.891  17.386  0.00  0.00    +0.000 C 
ATOM     33  F   UNL     1       7.912  13.193  17.710  0.00  0.00    +0.000 F 
ENDBRANCH  29  32
ENDBRANCH  28  29
ENDBRANCH  27  28
ENDBRANCH  25  27
ENDBRANCH  19  21
ENDBRANCH   5  19
TORSDOF 8
ENDMDL
MODEL 4
REMARK VINA RESULT:      -8.1      4.862      8.292
REMARK  Name = 
REMARK  10 active torsions:
REMARK  status: ('A' for Active; 'I' for Inactive)
REMARK    1  A    between atoms: C_1  and  C_2
REMARK    2  A    between atoms: N_5  and  C_6
REMARK    3  A    between atoms: C_6  and  C_7
REMARK    4  A    between atoms: C_6  and  C_8
REMARK    5  A    between atoms: C_12  and  O_13
REMARK    6  A    between atoms: O_13  and  C_14
REMARK    7  A    between atoms: C_14  and  C_15
REMARK    8  A    between atoms: C_15  and  O_16
REMARK    9  A    between atoms: C_15  and  C_17
REMARK   10  A    between atoms: C_21  and  C_22
REMARK                            x       y       z     vdW  Elec       q    Type
REMARK                         _______ _______ _______ _____ _____    ______ ____
ROOT
ATOM      1  C   UNL     1       1.329   2.439  18.735  0.00  0.00    +0.000 C 
ATOM      2  C   UNL     1       2.040   3.756  18.672  0.00  0.00    +0.000 A 
ATOM      3  N   UNL     1       1.643   4.732  19.509  0.00  0.00    +0.000 NA
ATOM      4  C   UNL     1       2.341   5.874  19.505  0.00  0.00    +0.000 A 
ATOM      5  N   UNL     1       1.931   6.842  20.409  0.00  0.00    +0.000 N 
ATOM      6  C   UNL     1       3.439   6.030  18.687  0.00  0.00    +0.000 A 
ATOM      7  C   UNL     1       3.763   5.001  17.824  0.00  0.00    +0.000 A 
ATOM      8  N   UNL     1       3.058   3.856  17.802  0.00  0.00    +0.000 NA
ATOM      9  H   UNL     1       1.039   6.550  20.801  0.00  0.00    +0.000 HD
ENDROOT
BRANCH   7  10
ATOM     10  C   UNL     1       4.891   5.103  16.874  0.00  0.00    +0.000 A 
ATOM     11  C   UNL     1       6.070   5.778  17.230  0.00  0.00    +0.000 A 
ATOM     12  C   UNL     1       7.164   5.872  16.356  0.00  0.00    +0.000 A 
ATOM     13  C   UNL     1       7.093   5.282  15.080  0.00  0.00    +0.000 A 
ATOM     14  N   UNL     1       8.087   5.297  14.115  0.00  0.00    +0.000 NA
ATOM     15  C   UNL     1       7.671   4.656  13.046  0.00  0.00    +0.000 A 
ATOM     16  S   UNL     1       6.094   3.992  13.123  0.00  0.00    +0.000 S 
ATOM     17  C   UNL     1       5.923   4.615  14.721  0.00  0.00    +0.000 A 
ATOM     18  C   UNL     1       4.823   4.517  15.592  0.00  0.00    +0.000 A 
ENDBRANCH   7  10
BRANCH   5  19
ATOM     19  C   UNL     1       2.040   8.260  20.085  0.00  0.00    +0.000 C 
ATOM     20  C   UNL     1       1.821   8.513  18.594  0.00  0.00    +0.000 C 
BRANCH  19  21
ATOM     21  C   UNL     1       1.073   9.105  20.903  0.00  0.00    +0.000 A 
ATOM     22  C   UNL     1       0.913   8.975  22.288  0.00  0.00    +0.000 A 
ATOM     23  C   UNL     1      -0.059   9.721  22.958  0.00  0.00    +0.000 A 
ATOM     24  C   UNL     1      -0.886  10.597  22.250  0.00  0.00    +0.000 A 
ATOM     25  C   UNL     1      -0.739  10.749  20.872  0.00  0.00    +0.000 A 
ATOM     26  C   UNL     1       0.244  10.011  20.212  0.00  0.00    +0.000 A 
BRANCH  25  27
ATOM     27  O   UNL     1      -1.612  11.620  20.273  0.00  0.00    +0.000 OA
BRANCH  27  28
ATOM     28  C   UNL     1      -1.225  12.116  18.983  0.00  0.00    +0.000 C 
BRANCH  28  29
ATOM     29  C   UNL     1      -2.292  11.742  17.950  0.00  0.00    +0.000 C 
BRANCH  29  30
ATOM     30  O   UNL     1      -1.777  11.930  16.626  0.00  0.00    +0.000 OA
ATOM     31  H   UNL     1      -2.547  11.924  16.024  0.00  0.00    +0.000 HD
ENDBRANCH  29  30
BRANCH  29  32
ATOM     32  C   UNL     1      -2.775  10.308  18.128  0.00  0.00    +0.000 C 
ATOM     33  F   UNL     1      -2.023   9.480  17.356  0.00  0.00    +0.000 F 
ENDBRANCH  29  32
ENDBRANCH  28  29
ENDBRANCH  27  28
ENDBRANCH  25  27
ENDBRANCH  19  21
ENDBRANCH   5  19
TORSDOF 8
ENDMDL
MODEL 5
REMARK VINA RESULT:      -8.0      4.291      7.850
REMARK  Name = 
REMARK  10 active torsions:
REMARK  status: ('A' for Active; 'I' for Inactive)
REMARK    1  A    between atoms: C_1  and  C_2
REMARK    2  A    between atoms: N_5  and  C_6
REMARK    3  A    between atoms: C_6  and  C_7
REMARK    4  A    between atoms: C_6  and  C_8
REMARK    5  A    between atoms: C_12  and  O_13
REMARK    6  A    between atoms: O_13  and  C_14
REMARK    7  A    between atoms: C_14  and  C_15
REMARK    8  A    between atoms: C_15  and  O_16
REMARK    9  A    between atoms: C_15  and  C_17
REMARK   10  A    between atoms: C_21  and  C_22
REMARK                            x       y       z     vdW  Elec       q    Type
REMARK                         _______ _______ _______ _____ _____    ______ ____
ROOT
ATOM      1  C   UNL     1       1.182   2.836  20.043  0.00  0.00    +0.000 C 
ATOM      2  C   UNL     1       1.816   4.167  19.779  0.00  0.00    +0.000 A 
ATOM      3  N   UNL     1       1.378   5.229  20.480  0.00  0.00    +0.000 NA
ATOM      4  C   UNL     1       2.011   6.394  20.299  0.00  0.00    +0.000 A 
ATOM      5  N   UNL     1       1.562   7.457  21.069  0.00  0.00    +0.000 N 
ATOM      6  C   UNL     1       3.085   6.492  19.441  0.00  0.00    +0.000 A 
ATOM      7  C   UNL     1       3.452   5.370  18.724  0.00  0.00    +0.000 A 
ATOM      8  N   UNL     1       2.813   4.197  18.879  0.00  0.00    +0.000 NA
ATOM      9  H   UNL     1       0.694   7.176  21.518  0.00  0.00    +0.000 HD
ENDROOT
BRANCH   7  10
ATOM     10  C   UNL     1       4.557   5.397  17.742  0.00  0.00    +0.000 A 
ATOM     11  C   UNL     1       5.748   6.088  18.020  0.00  0.00    +0.000 A 
ATOM     12  C   UNL     1       6.820   6.113  17.115  0.00  0.00    +0.000 A 
ATOM     13  C   UNL     1       6.715   5.434  15.887  0.00  0.00    +0.000 A 
ATOM     14  N   UNL     1       7.685   5.375  14.900  0.00  0.00    +0.000 NA
ATOM     15  C   UNL     1       7.240   4.662  13.890  0.00  0.00    +0.000 A 
ATOM     16  S   UNL     1       5.662   4.016  14.051  0.00  0.00    +0.000 S 
ATOM     17  C   UNL     1       5.533   4.751  15.604  0.00  0.00    +0.000 A 
ATOM     18  C   UNL     1       4.455   4.723  16.507  0.00  0.00    +0.000 A 
ENDBRANCH   7  10
BRANCH   5  19
ATOM     19  C   UNL     1       1.585   8.819  20.547  0.00  0.00    +0.000 C 
ATOM     20  C   UNL     1       1.123   8.870  19.091  0.00  0.00    +0.000 C 
BRANCH  19  21
ATOM     21  C   UNL     1       0.744   9.765  21.393  0.00  0.00    +0.000 A 
ATOM     22  C   UNL     1      -0.088   9.339  22.434  0.00  0.00    +0.000 A 
ATOM     23  C   UNL     1      -0.900  10.254  23.108  0.00  0.00    +0.000 A 
ATOM     24  C   UNL     1      -0.895  11.602  22.739  0.00  0.00    +0.000 A 
ATOM     25  C   UNL     1      -0.068  12.051  21.711  0.00  0.00    +0.000 A 
ATOM     26  C   UNL     1       0.751  11.133  21.053  0.00  0.00    +0.000 A 
BRANCH  25  27
ATOM     27  O   UNL     1      -0.153  13.388  21.419  0.00  0.00    +0.000 OA
BRANCH  27  28
ATOM     28  C   UNL     1      -0.980  13.740  20.301  0.00  0.00    +0.000 C 
BRANCH  28  29
ATOM     29  C   UNL     1      -0.105  14.286  19.169  0.00  0.00    +0.000 C 
BRANCH  29  30
ATOM     30  O   UNL     1      -0.761  15.392  18.535  0.00  0.00    +0.000 OA
ATOM     31  H   UNL     1      -0.074  16.066  18.369  0.00  0.00    +0.000 HD
ENDBRANCH  29  30
BRANCH  29  32
ATOM     32  C   UNL     1       1.270  14.708  19.670  0.00  0.00    +0.000 C 
ATOM     33  F   UNL     1       2.195  13.797  19.269  0.00  0.00    +0.000 F 
ENDBRANCH  29  32
ENDBRANCH  28  29
ENDBRANCH  27  28
ENDBRANCH  25  27
ENDBRANCH  19  21
ENDBRANCH   5  19
TORSDOF 8
ENDMDL
MODEL 6
REMARK VINA RESULT:      -7.8      5.115      8.880
REMARK  Name = 
REMARK  10 active torsions:
REMARK  status: ('A' for Active; 'I' for Inactive)
REMARK    1  A    between atoms: C_1  and  C_2
REMARK    2  A    between atoms: N_5  and  C_6
REMARK    3  A    between atoms: C_6  and  C_7
REMARK    4  A    between atoms: C_6  and  C_8
REMARK    5  A    between atoms: C_12  and  O_13
REMARK    6  A    between atoms: O_13  and  C_14
REMARK    7  A    between atoms: C_14  and  C_15
REMARK    8  A    between atoms: C_15  and  O_16
REMARK    9  A    between atoms: C_15  and  C_17
REMARK   10  A    between atoms: C_21  and  C_22
REMARK                            x       y       z     vdW  Elec       q    Type
REMARK                         _______ _______ _______ _____ _____    ______ ____
ROOT
ATOM      1  C   UNL     1       1.581   2.659  20.361  0.00  0.00    +0.000 C 
ATOM      2  C   UNL     1       2.099   4.015  19.991  0.00  0.00    +0.000 A 
ATOM      3  N   UNL     1       1.597   5.083  20.638  0.00  0.00    +0.000 NA
ATOM      4  C   UNL     1       2.129   6.280  20.361  0.00  0.00    +0.000 A 
ATOM      5  N   UNL     1       1.618   7.353  21.076  0.00  0.00    +0.000 N 
ATOM      6  C   UNL     1       3.167   6.404  19.464  0.00  0.00    +0.000 A 
ATOM      7  C   UNL     1       3.603   5.270  18.807  0.00  0.00    +0.000 A 
ATOM      8  N   UNL     1       3.064   4.063  19.058  0.00  0.00    +0.000 NA
ATOM      9  H   UNL     1       0.788   7.035  21.571  0.00  0.00    +0.000 HD
ENDROOT
BRANCH   7  10
ATOM     10  C   UNL     1       4.674   5.318  17.789  0.00  0.00    +0.000 A 
ATOM     11  C   UNL     1       5.850   6.050  18.020  0.00  0.00    +0.000 A 
ATOM     12  C   UNL     1       6.891   6.096  17.080  0.00  0.00    +0.000 A 
ATOM     13  C   UNL     1       6.768   5.397  15.864  0.00  0.00    +0.000 A 
ATOM     14  N   UNL     1       7.707   5.354  14.847  0.00  0.00    +0.000 NA
ATOM     15  C   UNL     1       7.253   4.614  13.862  0.00  0.00    +0.000 A 
ATOM     16  S   UNL     1       5.703   3.920  14.083  0.00  0.00    +0.000 S 
ATOM     17  C   UNL     1       5.601   4.672  15.630  0.00  0.00    +0.000 A 
ATOM     18  C   UNL     1       4.553   4.623  16.568  0.00  0.00    +0.000 A 
ENDBRANCH   7  10
BRANCH   5  19
ATOM     19  C   UNL     1       1.517   8.675  20.468  0.00  0.00    +0.000 C 
ATOM     20  C   UNL     1       1.037   8.590  19.019  0.00  0.00    +0.000 C 
BRANCH  19  21
ATOM     21  C   UNL     1       0.606   9.598  21.264  0.00  0.00    +0.000 A 
ATOM     22  C   UNL     1       0.204   9.341  22.581  0.00  0.00    +0.000 A 
ATOM     23  C   UNL     1      -0.706  10.188  23.217  0.00  0.00    +0.000 A 
ATOM     24  C   UNL     1      -1.232  11.292  22.541  0.00  0.00    +0.000 A 
ATOM     25  C   UNL     1      -0.840  11.572  21.234  0.00  0.00    +0.000 A 
ATOM     26  C   UNL     1       0.081  10.730  20.610  0.00  0.00    +0.000 A 
BRANCH  25  27
ATOM     27  O   UNL     1      -1.428  12.668  20.658  0.00  0.00    +0.000 OA
BRANCH  27  28
ATOM     28  C   UNL     1      -2.775  12.494  20.195  0.00  0.00    +0.000 C 
BRANCH  28  29
ATOM     29  C   UNL     1      -3.655  13.621  20.744  0.00  0.00    +0.000 C 
BRANCH  29  30
ATOM     30  O   UNL     1      -3.064  14.892  20.445  0.00  0.00    +0.000 OA
ATOM     31  H   UNL     1      -3.795  15.538  20.410  0.00  0.00    +0.000 HD
ENDBRANCH  29  30
BRANCH  29  32
ATOM     32  C   UNL     1      -5.071  13.556  20.188  0.00  0.00    +0.000 C 
ATOM     33  F   UNL     1      -5.901  13.028  21.126  0.00  0.00    +0.000 F 
ENDBRANCH  29  32
ENDBRANCH  28  29
ENDBRANCH  27  28
ENDBRANCH  25  27
ENDBRANCH  19  21
ENDBRANCH   5  19
TORSDOF 8
ENDMDL
MODEL 7
REMARK VINA RESULT:      -7.7      5.131      8.855
REMARK  Name = 
REMARK  10 active torsions:
REMARK  status: ('A' for Active; 'I' for Inactive)
REMARK    1  A    between atoms: C_1  and  C_2
REMARK    2  A    between atoms: N_5  and  C_6
REMARK    3  A    between atoms: C_6  and  C_7
REMARK    4  A    between atoms: C_6  and  C_8
REMARK    5  A    between atoms: C_12  and  O_13
REMARK    6  A    between atoms: O_13  and  C_14
REMARK    7  A    between atoms: C_14  and  C_15
REMARK    8  A    between atoms: C_15  and  O_16
REMARK    9  A    between atoms: C_15  and  C_17
REMARK   10  A    between atoms: C_21  and  C_22
REMARK                            x       y       z     vdW  Elec       q    Type
REMARK                         _______ _______ _______ _____ _____    ______ ____
ROOT
ATOM      1  C   UNL     1       1.743   3.252  20.802  0.00  0.00    +0.000 C 
ATOM      2  C   UNL     1       2.208   4.548  20.212  0.00  0.00    +0.000 A 
ATOM      3  N   UNL     1       1.669   5.688  20.681  0.00  0.00    +0.000 NA
ATOM      4  C   UNL     1       2.154   6.843  20.209  0.00  0.00    +0.000 A 
ATOM      5  N   UNL     1       1.606   7.998  20.744  0.00  0.00    +0.000 N 
ATOM      6  C   UNL     1       3.184   6.857  19.293  0.00  0.00    +0.000 A 
ATOM      7  C   UNL     1       3.660   5.648  18.826  0.00  0.00    +0.000 A 
ATOM      8  N   UNL     1       3.167   4.479  19.275  0.00  0.00    +0.000 NA
ATOM      9  H   UNL     1       0.791   7.736  21.292  0.00  0.00    +0.000 HD
ENDROOT
BRANCH   7  10
ATOM     10  C   UNL     1       4.724   5.568  17.803  0.00  0.00    +0.000 A 
ATOM     11  C   UNL     1       5.992   6.124  18.042  0.00  0.00    +0.000 A 
ATOM     12  C   UNL     1       7.027   6.045  17.098  0.00  0.00    +0.000 A 
ATOM     13  C   UNL     1       6.805   5.397  15.869  0.00  0.00    +0.000 A 
ATOM     14  N   UNL     1       7.726   5.246  14.846  0.00  0.00    +0.000 NA
ATOM     15  C   UNL     1       7.171   4.598  13.847  0.00  0.00    +0.000 A 
ATOM     16  S   UNL     1       5.540   4.122  14.062  0.00  0.00    +0.000 S 
ATOM     17  C   UNL     1       5.547   4.847  15.625  0.00  0.00    +0.000 A 
ATOM     18  C   UNL     1       4.505   4.924  16.567  0.00  0.00    +0.000 A 
ENDBRANCH   7  10
BRANCH   5  19
ATOM     19  C   UNL     1       1.453   9.199  19.930  0.00  0.00    +0.000 C 
ATOM     20  C   UNL     1       1.096   8.855  18.484  0.00  0.00    +0.000 C 
BRANCH  19  21
ATOM     21  C   UNL     1       0.415  10.150  20.509  0.00  0.00    +0.000 A 
ATOM     22  C   UNL     1       0.245  10.367  21.882  0.00  0.00    +0.000 A 
ATOM     23  C   UNL     1      -0.789  11.184  22.343  0.00  0.00    +0.000 A 
ATOM     24  C   UNL     1      -1.669  11.784  21.439  0.00  0.00    +0.000 A 
ATOM     25  C   UNL     1      -1.514  11.589  20.067  0.00  0.00    +0.000 A 
ATOM     26  C   UNL     1      -0.470  10.783  19.614  0.00  0.00    +0.000 A 
BRANCH  25  27
ATOM     27  O   UNL     1      -2.441  12.209  19.270  0.00  0.00    +0.000 OA
BRANCH  27  28
ATOM     28  C   UNL     1      -2.442  11.827  17.887  0.00  0.00    +0.000 C 
BRANCH  28  29
ATOM     29  C   UNL     1      -3.661  10.946  17.600  0.00  0.00    +0.000 C 
BRANCH  29  30
ATOM     30  O   UNL     1      -3.334   9.570  17.826  0.00  0.00    +0.000 OA
ATOM     31  H   UNL     1      -3.070   9.496  18.764  0.00  0.00    +0.000 HD
ENDBRANCH  29  30
BRANCH  29  32
ATOM     32  C   UNL     1      -4.861  11.347  18.449  0.00  0.00    +0.000 C 
ATOM     33  F   UNL     1      -5.885  10.484  18.218  0.00  0.00    +0.000 F 
ENDBRANCH  29  32
ENDBRANCH  28  29
ENDBRANCH  27  28
ENDBRANCH  25  27
ENDBRANCH  19  21
ENDBRANCH   5  19
TORSDOF 8
ENDMDL
MODEL 8
REMARK VINA RESULT:      -7.6      1.131      1.444
REMARK  Name = 
REMARK  10 active torsions:
REMARK  status: ('A' for Active; 'I' for Inactive)
REMARK    1  A    between atoms: C_1  and  C_2
REMARK    2  A    between atoms: N_5  and  C_6
REMARK    3  A    between atoms: C_6  and  C_7
REMARK    4  A    between atoms: C_6  and  C_8
REMARK    5  A    between atoms: C_12  and  O_13
REMARK    6  A    between atoms: O_13  and  C_14
REMARK    7  A    between atoms: C_14  and  C_15
REMARK    8  A    between atoms: C_15  and  O_16
REMARK    9  A    between atoms: C_15  and  C_17
REMARK   10  A    between atoms: C_21  and  C_22
REMARK                            x       y       z     vdW  Elec       q    Type
REMARK                         _______ _______ _______ _____ _____    ______ ____
ROOT
ATOM      1  C   UNL     1       2.588   2.469  19.969  0.00  0.00    +0.000 C 
ATOM      2  C   UNL     1       3.003   3.660  19.160  0.00  0.00    +0.000 A 
ATOM      3  N   UNL     1       3.789   3.456  18.088  0.00  0.00    +0.000 NA
ATOM      4  C   UNL     1       4.081   4.516  17.324  0.00  0.00    +0.000 A 
ATOM      5  N   UNL     1       4.859   4.262  16.204  0.00  0.00    +0.000 N 
ATOM      6  C   UNL     1       3.572   5.762  17.617  0.00  0.00    +0.000 A 
ATOM      7  C   UNL     1       2.806   5.905  18.756  0.00  0.00    +0.000 A 
ATOM      8  N   UNL     1       2.522   4.854  19.546  0.00  0.00    +0.000 NA
ATOM      9  H   UNL     1       5.211   3.311  16.273  0.00  0.00    +0.000 HD
ENDROOT
BRANCH   7  10
ATOM     10  C   UNL     1       2.265   7.215  19.177  0.00  0.00    +0.000 A 
ATOM     11  C   UNL     1       1.650   7.368  20.430  0.00  0.00    +0.000 A 
ATOM     12  C   UNL     1       1.146   8.604  20.864  0.00  0.00    +0.000 A 
ATOM     13  C   UNL     1       1.248   9.732  20.029  0.00  0.00    +0.000 A 
ATOM     14  N   UNL     1       0.795  11.008  20.320  0.00  0.00    +0.000 NA
ATOM     15  C   UNL     1       1.051  11.806  19.308  0.00  0.00    +0.000 A 
ATOM     16  S   UNL     1       1.847  11.102  17.966  0.00  0.00    +0.000 S 
ATOM     17  C   UNL     1       1.853   9.584  18.782  0.00  0.00    +0.000 A 
ATOM     18  C   UNL     1       2.360   8.348  18.342  0.00  0.00    +0.000 A 
ENDBRANCH   7  10
BRANCH   5  19
ATOM     19  C   UNL     1       5.815   5.252  15.720  0.00  0.00    +0.000 C 
ATOM     20  C   UNL     1       5.113   6.416  15.021  0.00  0.00    +0.000 C 
BRANCH  19  21
ATOM     21  C   UNL     1       6.703   5.778  16.840  0.00  0.00    +0.000 A 
ATOM     22  C   UNL     1       7.189   4.978  17.881  0.00  0.00    +0.000 A 
ATOM     23  C   UNL     1       7.923   5.549  18.923  0.00  0.00    +0.000 A 
ATOM     24  C   UNL     1       8.169   6.925  18.940  0.00  0.00    +0.000 A 
ATOM     25  C   UNL     1       7.702   7.738  17.910  0.00  0.00    +0.000 A 
ATOM     26  C   UNL     1       6.982   7.159  16.865  0.00  0.00    +0.000 A 
BRANCH  25  27
ATOM     27  O   UNL     1       7.984   9.075  18.032  0.00  0.00    +0.000 OA
BRANCH  27  28
ATOM     28  C   UNL     1       9.046   9.418  18.933  0.00  0.00    +0.000 C 
BRANCH  28  29
ATOM     29  C   UNL     1       9.577  10.813  18.590  0.00  0.00    +0.000 C 
BRANCH  29  30
ATOM     30  O   UNL     1       8.593  11.540  17.845  0.00  0.00    +0.000 OA
ATOM     31  H   UNL     1       8.274  12.257  18.428  0.00  0.00    +0.000 HD
ENDBRANCH  29  30
BRANCH  29  32
ATOM     32  C   UNL     1       9.971  11.592  19.839  0.00  0.00    +0.000 C 
ATOM     33  F   UNL     1       9.281  11.113  20.906  0.00  0.00    +0.000 F 
ENDBRANCH  29  32
ENDBRANCH  28  29
ENDBRANCH  27  28
ENDBRANCH  25  27
ENDBRANCH  19  21
ENDBRANCH   5  19
TORSDOF 8
ENDMDL
MODEL 9
REMARK VINA RESULT:      -7.6      4.141      6.768
REMARK  Name = 
REMARK  10 active torsions:
REMARK  status: ('A' for Active; 'I' for Inactive)
REMARK    1  A    between atoms: C_1  and  C_2
REMARK    2  A    between atoms: N_5  and  C_6
REMARK    3  A    between atoms: C_6  and  C_7
REMARK    4  A    between atoms: C_6  and  C_8
REMARK    5  A    between atoms: C_12  and  O_13
REMARK    6  A    between atoms: O_13  and  C_14
REMARK    7  A    between atoms: C_14  and  C_15
REMARK    8  A    between atoms: C_15  and  O_16
REMARK    9  A    between atoms: C_15  and  C_17
REMARK   10  A    between atoms: C_21  and  C_22
REMARK                            x       y       z     vdW  Elec       q    Type
REMARK                         _______ _______ _______ _____ _____    ______ ____
ROOT
ATOM      1  C   UNL     1      -2.912  11.779  17.907  0.00  0.00    +0.000 C 
ATOM      2  C   UNL     1      -1.460  11.575  18.215  0.00  0.00    +0.000 A 
ATOM      3  N   UNL     1      -0.999  10.313  18.288  0.00  0.00    +0.000 NA
ATOM      4  C   UNL     1       0.315  10.145  18.477  0.00  0.00    +0.000 A 
ATOM      5  N   UNL     1       0.763   8.832  18.504  0.00  0.00    +0.000 N 
ATOM      6  C   UNL     1       1.162  11.227  18.570  0.00  0.00    +0.000 A 
ATOM      7  C   UNL     1       0.613  12.493  18.527  0.00  0.00    +0.000 A 
ATOM      8  N   UNL     1      -0.709  12.679  18.360  0.00  0.00    +0.000 NA
ATOM      9  H   UNL     1      -0.050   8.223  18.545  0.00  0.00    +0.000 HD
ENDROOT
BRANCH   7  10
ATOM     10  C   UNL     1       1.439  13.711  18.674  0.00  0.00    +0.000 A 
ATOM     11  C   UNL     1       0.876  14.907  19.147  0.00  0.00    +0.000 A 
ATOM     12  C   UNL     1       1.641  16.072  19.315  0.00  0.00    +0.000 A 
ATOM     13  C   UNL     1       3.013  16.059  19.001  0.00  0.00    +0.000 A 
ATOM     14  N   UNL     1       3.887  17.127  19.113  0.00  0.00    +0.000 NA
ATOM     15  C   UNL     1       5.086  16.755  18.725  0.00  0.00    +0.000 A 
ATOM     16  S   UNL     1       5.252  15.128  18.220  0.00  0.00    +0.000 S 
ATOM     17  C   UNL     1       3.575  14.874  18.527  0.00  0.00    +0.000 A 
ATOM     18  C   UNL     1       2.813  13.704  18.356  0.00  0.00    +0.000 A 
ENDBRANCH   7  10
BRANCH   5  19
ATOM     19  C   UNL     1       1.882   8.443  19.356  0.00  0.00    +0.000 C 
ATOM     20  C   UNL     1       1.423   8.143  20.782  0.00  0.00    +0.000 C 
BRANCH  19  21
ATOM     21  C   UNL     1       2.636   7.248  18.790  0.00  0.00    +0.000 A 
ATOM     22  C   UNL     1       2.622   5.977  19.377  0.00  0.00    +0.000 A 
ATOM     23  C   UNL     1       3.411   4.950  18.852  0.00  0.00    +0.000 A 
ATOM     24  C   UNL     1       4.228   5.187  17.744  0.00  0.00    +0.000 A 
ATOM     25  C   UNL     1       4.251   6.442  17.138  0.00  0.00    +0.000 A 
ATOM     26  C   UNL     1       3.449   7.458  17.659  0.00  0.00    +0.000 A 
BRANCH  25  27
ATOM     27  O   UNL     1       5.100   6.572  16.069  0.00  0.00    +0.000 OA
BRANCH  27  28
ATOM     28  C   UNL     1       6.269   5.740  16.084  0.00  0.00    +0.000 C 
BRANCH  28  29
ATOM     29  C   UNL     1       6.595   5.290  14.657  0.00  0.00    +0.000 C 
BRANCH  29  30
ATOM     30  O   UNL     1       8.012   5.319  14.447  0.00  0.00    +0.000 OA
ATOM     31  H   UNL     1       8.201   4.683  13.730  0.00  0.00    +0.000 HD
ENDBRANCH  29  30
BRANCH  29  32
ATOM     32  C   UNL     1       6.048   3.899  14.363  0.00  0.00    +0.000 C 
ATOM     33  F   UNL     1       4.914   4.007  13.622  0.00  0.00    +0.000 F 
ENDBRANCH  29  32
ENDBRANCH  28  29
ENDBRANCH  27  28
ENDBRANCH  25  27
ENDBRANCH  19  21
ENDBRANCH   5  19
TORSDOF 8
ENDMDL
