MODEL 1
REMARK VINA RESULT:      -8.3      0.000      0.000
REMARK  Name = 
REMARK  5 active torsions:
REMARK  status: ('A' for Active; 'I' for Inactive)
REMARK    1  A    between atoms: C_2  and  C_14
REMARK    2  A    between atoms: N_3  and  C_4
REMARK    3  A    between atoms: C_4  and  C_5
REMARK    4  A    between atoms: C_8  and  N_9
REMARK    5  A    between atoms: C_23  and  O_24
REMARK                            x       y       z     vdW  Elec       q    Type
REMARK                         _______ _______ _______ _____ _____    ______ ____
ROOT
ATOM      1  O   UNL     1       2.509   5.101  17.612  0.00  0.00    +0.000 OA
ATOM      2  C   UNL     1       3.073   5.806  18.443  0.00  0.00    +0.000 C 
ATOM      3  N   UNL     1       4.301   5.509  18.979  0.00  0.00    +0.000 N 
ATOM      4  H   UNL     1       4.652   6.111  19.717  0.00  0.00    +0.000 HD
ENDROOT
BRANCH   2   5
ATOM      5  C   UNL     1       2.438   7.076  18.898  0.00  0.00    +0.000 A 
ATOM      6  C   UNL     1       2.277   8.080  17.938  0.00  0.00    +0.000 A 
ATOM      7  C   UNL     1       1.597   9.256  18.255  0.00  0.00    +0.000 A 
ATOM      8  C   UNL     1       1.059   9.450  19.533  0.00  0.00    +0.000 A 
ATOM      9  C   UNL     1       0.263  10.574  19.802  0.00  0.00    +0.000 A 
ATOM     10  C   UNL     1      -0.282  10.779  21.068  0.00  0.00    +0.000 A 
ATOM     11  C   UNL     1       0.034   9.910  22.105  0.00  0.00    +0.000 A 
ATOM     12  C   UNL     1       0.824   8.786  21.853  0.00  0.00    +0.000 A 
ATOM     13  C   UNL     1       1.292   8.493  20.551  0.00  0.00    +0.000 A 
ATOM     14  C   UNL     1       1.961   7.293  20.201  0.00  0.00    +0.000 A 
BRANCH  14  15
ATOM     15  O   UNL     1       2.079   6.285  21.132  0.00  0.00    +0.000 OA
ATOM     16  H   UNL     1       1.209   5.849  21.190  0.00  0.00    +0.000 HD
ENDBRANCH  14  15
ENDBRANCH   2   5
BRANCH   3  17
ATOM     17  C   UNL     1       5.059   4.344  18.603  0.00  0.00    +0.000 C 
BRANCH  17  18
ATOM     18  C   UNL     1       5.699   4.520  17.247  0.00  0.00    +0.000 A 
ATOM     19  C   UNL     1       6.753   5.424  17.064  0.00  0.00    +0.000 A 
ATOM     20  C   UNL     1       7.353   5.578  15.808  0.00  0.00    +0.000 A 
ATOM     21  C   UNL     1       6.893   4.816  14.728  0.00  0.00    +0.000 A 
ATOM     22  C   UNL     1       5.846   3.903  14.893  0.00  0.00    +0.000 A 
ATOM     23  C   UNL     1       5.256   3.756  16.151  0.00  0.00    +0.000 A 
BRANCH  21  24
ATOM     24  N   UNL     1       7.515   4.976  13.409  0.00  0.00    +0.000 N 
ATOM     25  O   UNL     1       8.441   5.799  13.303  0.00  0.00    +0.000 OA
ATOM     26  O   UNL     1       7.084   4.287  12.476  0.00  0.00    +0.000 OA
ENDBRANCH  21  24
ENDBRANCH  17  18
ENDBRANCH   3  17
TORSDOF 5
ENDMDL
MODEL 2
REMARK VINA RESULT:      -8.3      0.328      1.042
REMARK  Name = 
REMARK  5 active torsions:
REMARK  status: ('A' for Active; 'I' for Inactive)
REMARK    1  A    between atoms: C_2  and  C_14
REMARK    2  A    between atoms: N_3  and  C_4
REMARK    3  A    between atoms: C_4  and  C_5
REMARK    4  A    between atoms: C_8  and  N_9
REMARK    5  A    between atoms: C_23  and  O_24
REMARK                            x       y       z     vdW  Elec       q    Type
REMARK                         _______ _______ _______ _____ _____    ______ ____
ROOT
ATOM      1  O   UNL     1       2.360   5.277  17.780  0.00  0.00    +0.000 OA
ATOM      2  C   UNL     1       2.911   5.992  18.611  0.00  0.00    +0.000 C 
ATOM      3  N   UNL     1       4.113   5.684  19.197  0.00  0.00    +0.000 N 
ATOM      4  H   UNL     1       4.453   6.299  19.930  0.00  0.00    +0.000 HD
ENDROOT
BRANCH   2   5
ATOM      5  C   UNL     1       2.290   7.288  19.008  0.00  0.00    +0.000 A 
ATOM      6  C   UNL     1       2.144   8.252  18.006  0.00  0.00    +0.000 A 
ATOM      7  C   UNL     1       1.477   9.448  18.269  0.00  0.00    +0.000 A 
ATOM      8  C   UNL     1       0.937   9.703  19.536  0.00  0.00    +0.000 A 
ATOM      9  C   UNL     1       0.154  10.847  19.753  0.00  0.00    +0.000 A 
ATOM     10  C   UNL     1      -0.392  11.112  21.007  0.00  0.00    +0.000 A 
ATOM     11  C   UNL     1      -0.090  10.286  22.081  0.00  0.00    +0.000 A 
ATOM     12  C   UNL     1       0.687   9.143  21.881  0.00  0.00    +0.000 A 
ATOM     13  C   UNL     1       1.155   8.788  20.594  0.00  0.00    +0.000 A 
ATOM     14  C   UNL     1       1.812   7.566  20.300  0.00  0.00    +0.000 A 
BRANCH  14  15
ATOM     15  O   UNL     1       1.915   6.599  21.273  0.00  0.00    +0.000 OA
ATOM     16  H   UNL     1       2.700   6.818  21.808  0.00  0.00    +0.000 HD
ENDBRANCH  14  15
ENDBRANCH   2   5
BRANCH   3  17
ATOM     17  C   UNL     1       4.857   4.492  18.880  0.00  0.00    +0.000 C 
BRANCH  17  18
ATOM     18  C   UNL     1       5.516   4.602  17.526  0.00  0.00    +0.000 A 
ATOM     19  C   UNL     1       5.120   3.776  16.467  0.00  0.00    +0.000 A 
ATOM     20  C   UNL     1       5.723   3.888  15.208  0.00  0.00    +0.000 A 
ATOM     21  C   UNL     1       6.731   4.839  15.011  0.00  0.00    +0.000 A 
ATOM     22  C   UNL     1       7.136   5.678  16.054  0.00  0.00    +0.000 A 
ATOM     23  C   UNL     1       6.525   5.560  17.306  0.00  0.00    +0.000 A 
BRANCH  21  24
ATOM     24  N   UNL     1       7.370   4.957  13.696  0.00  0.00    +0.000 N 
ATOM     25  O   UNL     1       8.306   5.768  13.579  0.00  0.00    +0.000 OA
ATOM     26  O   UNL     1       6.944   4.248  12.777  0.00  0.00    +0.000 OA
ENDBRANCH  21  24
ENDBRANCH  17  18
ENDBRANCH   3  17
TORSDOF 5
ENDMDL
MODEL 3
REMARK VINA RESULT:      -7.9      1.144      2.149
REMARK  Name = 
REMARK  5 active torsions:
REMARK  status: ('A' for Active; 'I' for Inactive)
REMARK    1  A    between atoms: C_2  and  C_14
REMARK    2  A    between atoms: N_3  and  C_4
REMARK    3  A    between atoms: C_4  and  C_5
REMARK    4  A    between atoms: C_8  and  N_9
REMARK    5  A    between atoms: C_23  and  O_24
REMARK                            x       y       z     vdW  Elec       q    Type
REMARK                         _______ _______ _______ _____ _____    ______ ____
ROOT
ATOM      1  O   UNL     1       1.998   4.674  19.297  0.00  0.00    +0.000 OA
ATOM      2  C   UNL     1       2.672   5.665  19.560  0.00  0.00    +0.000 C 
ATOM      3  N   UNL     1       4.043   5.656  19.608  0.00  0.00    +0.000 N 
ATOM      4  H   UNL     1       4.511   6.505  19.910  0.00  0.00    +0.000 HD
ENDROOT
BRANCH   2   5
ATOM      5  C   UNL     1       2.006   6.974  19.815  0.00  0.00    +0.000 A 
ATOM      6  C   UNL     1       1.334   7.114  21.033  0.00  0.00    +0.000 A 
ATOM      7  C   UNL     1       0.776   8.340  21.395  0.00  0.00    +0.000 A 
ATOM      8  C   UNL     1       0.884   9.453  20.551  0.00  0.00    +0.000 A 
ATOM      9  C   UNL     1       0.438  10.711  20.981  0.00  0.00    +0.000 A 
ATOM     10  C   UNL     1       0.542  11.828  20.154  0.00  0.00    +0.000 A 
ATOM     11  C   UNL     1       1.010  11.684  18.854  0.00  0.00    +0.000 A 
ATOM     12  C   UNL     1       1.459  10.437  18.412  0.00  0.00    +0.000 A 
ATOM     13  C   UNL     1       1.474   9.314  19.271  0.00  0.00    +0.000 A 
ATOM     14  C   UNL     1       2.059   8.067  18.934  0.00  0.00    +0.000 A 
BRANCH  14  15
ATOM     15  O   UNL     1       2.761   7.942  17.756  0.00  0.00    +0.000 OA
ATOM     16  H   UNL     1       2.113   8.019  17.031  0.00  0.00    +0.000 HD
ENDBRANCH  14  15
ENDBRANCH   2   5
BRANCH   3  17
ATOM     17  C   UNL     1       4.830   4.481  19.338  0.00  0.00    +0.000 C 
BRANCH  17  18
ATOM     18  C   UNL     1       5.410   4.519  17.944  0.00  0.00    +0.000 A 
ATOM     19  C   UNL     1       4.602   4.279  16.825  0.00  0.00    +0.000 A 
ATOM     20  C   UNL     1       5.139   4.326  15.532  0.00  0.00    +0.000 A 
ATOM     21  C   UNL     1       6.496   4.620  15.362  0.00  0.00    +0.000 A 
ATOM     22  C   UNL     1       7.318   4.870  16.466  0.00  0.00    +0.000 A 
ATOM     23  C   UNL     1       6.771   4.823  17.752  0.00  0.00    +0.000 A 
BRANCH  21  24
ATOM     24  N   UNL     1       7.065   4.667  14.011  0.00  0.00    +0.000 N 
ATOM     25  O   UNL     1       7.992   5.470  13.801  0.00  0.00    +0.000 OA
ATOM     26  O   UNL     1       6.592   3.910  13.155  0.00  0.00    +0.000 OA
ENDBRANCH  21  24
ENDBRANCH  17  18
ENDBRANCH   3  17
TORSDOF 5
ENDMDL
MODEL 4
REMARK VINA RESULT:      -7.9      0.973      1.583
REMARK  Name = 
REMARK  5 active torsions:
REMARK  status: ('A' for Active; 'I' for Inactive)
REMARK    1  A    between atoms: C_2  and  C_14
REMARK    2  A    between atoms: N_3  and  C_4
REMARK    3  A    between atoms: C_4  and  C_5
REMARK    4  A    between atoms: C_8  and  N_9
REMARK    5  A    between atoms: C_23  and  O_24
REMARK                            x       y       z     vdW  Elec       q    Type
REMARK                         _______ _______ _______ _____ _____    ______ ____
ROOT
ATOM      1  O   UNL     1       3.183   4.792  18.797  0.00  0.00    +0.000 OA
ATOM      2  C   UNL     1       3.698   5.899  18.671  0.00  0.00    +0.000 C 
ATOM      3  N   UNL     1       5.021   6.086  18.360  0.00  0.00    +0.000 N 
ATOM      4  H   UNL     1       5.375   7.038  18.354  0.00  0.00    +0.000 HD
ENDROOT
BRANCH   2   5
ATOM      5  C   UNL     1       2.870   7.128  18.826  0.00  0.00    +0.000 A 
ATOM      6  C   UNL     1       2.829   8.003  17.736  0.00  0.00    +0.000 A 
ATOM      7  C   UNL     1       1.995   9.121  17.759  0.00  0.00    +0.000 A 
ATOM      8  C   UNL     1       1.180   9.384  18.867  0.00  0.00    +0.000 A 
ATOM      9  C   UNL     1       0.249  10.432  18.827  0.00  0.00    +0.000 A 
ATOM     10  C   UNL     1      -0.571  10.703  19.921  0.00  0.00    +0.000 A 
ATOM     11  C   UNL     1      -0.408   9.987  21.100  0.00  0.00    +0.000 A 
ATOM     12  C   UNL     1       0.514   8.940  21.155  0.00  0.00    +0.000 A 
ATOM     13  C   UNL     1       1.274   8.569  20.022  0.00  0.00    +0.000 A 
ATOM     14  C   UNL     1       2.107   7.423  19.968  0.00  0.00    +0.000 A 
BRANCH  14  15
ATOM     15  O   UNL     1       2.112   6.537  21.022  0.00  0.00    +0.000 OA
ATOM     16  H   UNL     1       1.958   7.058  21.831  0.00  0.00    +0.000 HD
ENDBRANCH  14  15
ENDBRANCH   2   5
BRANCH   3  17
ATOM     17  C   UNL     1       5.936   4.997  18.133  0.00  0.00    +0.000 C 
BRANCH  17  18
ATOM     18  C   UNL     1       6.042   4.668  16.664  0.00  0.00    +0.000 A 
ATOM     19  C   UNL     1       5.091   3.849  16.042  0.00  0.00    +0.000 A 
ATOM     20  C   UNL     1       5.183   3.555  14.675  0.00  0.00    +0.000 A 
ATOM     21  C   UNL     1       6.238   4.091  13.927  0.00  0.00    +0.000 A 
ATOM     22  C   UNL     1       7.193   4.917  14.528  0.00  0.00    +0.000 A 
ATOM     23  C   UNL     1       7.090   5.206  15.892  0.00  0.00    +0.000 A 
BRANCH  21  24
ATOM     24  N   UNL     1       6.343   3.784  12.496  0.00  0.00    +0.000 N 
ATOM     25  O   UNL     1       5.425   3.122  11.979  0.00  0.00    +0.000 OA
ATOM     26  O   UNL     1       7.336   4.196  11.885  0.00  0.00    +0.000 OA
ENDBRANCH  21  24
ENDBRANCH  17  18
ENDBRANCH   3  17
TORSDOF 5
ENDMDL
MODEL 5
REMARK VINA RESULT:      -7.8      0.994      1.873
REMARK  Name = 
REMARK  5 active torsions:
REMARK  status: ('A' for Active; 'I' for Inactive)
REMARK    1  A    between atoms: C_2  and  C_14
REMARK    2  A    between atoms: N_3  and  C_4
REMARK    3  A    between atoms: C_4  and  C_5
REMARK    4  A    between atoms: C_8  and  N_9
REMARK    5  A    between atoms: C_23  and  O_24
REMARK                            x       y       z     vdW  Elec       q    Type
REMARK                         _______ _______ _______ _____ _____    ______ ____
ROOT
ATOM      1  O   UNL     1       2.483   4.386  19.465  0.00  0.00    +0.000 OA
ATOM      2  C   UNL     1       3.062   5.467  19.422  0.00  0.00    +0.000 C 
ATOM      3  N   UNL     1       4.394   5.601  19.119  0.00  0.00    +0.000 N 
ATOM      4  H   UNL     1       4.802   6.528  19.184  0.00  0.00    +0.000 HD
ENDROOT
BRANCH   2   5
ATOM      5  C   UNL     1       2.307   6.727  19.674  0.00  0.00    +0.000 A 
ATOM      6  C   UNL     1       1.631   6.825  20.895  0.00  0.00    +0.000 A 
ATOM      7  C   UNL     1       0.990   8.010  21.254  0.00  0.00    +0.000 A 
ATOM      8  C   UNL     1       1.018   9.125  20.405  0.00  0.00    +0.000 A 
ATOM      9  C   UNL     1       0.487  10.351  20.832  0.00  0.00    +0.000 A 
ATOM     10  C   UNL     1       0.510  11.469  20.000  0.00  0.00    +0.000 A 
ATOM     11  C   UNL     1       0.982  11.352  18.700  0.00  0.00    +0.000 A 
ATOM     12  C   UNL     1       1.515  10.138  18.260  0.00  0.00    +0.000 A 
ATOM     13  C   UNL     1       1.611   9.022  19.123  0.00  0.00    +0.000 A 
ATOM     14  C   UNL     1       2.280   7.818  18.789  0.00  0.00    +0.000 A 
BRANCH  14  15
ATOM     15  O   UNL     1       2.985   7.737  17.609  0.00  0.00    +0.000 OA
ATOM     16  H   UNL     1       3.881   8.076  17.790  0.00  0.00    +0.000 HD
ENDBRANCH  14  15
ENDBRANCH   2   5
BRANCH   3  17
ATOM     17  C   UNL     1       5.243   4.481  18.804  0.00  0.00    +0.000 C 
BRANCH  17  18
ATOM     18  C   UNL     1       5.746   4.558  17.383  0.00  0.00    +0.000 A 
ATOM     19  C   UNL     1       7.074   4.909  17.110  0.00  0.00    +0.000 A 
ATOM     20  C   UNL     1       7.543   4.968  15.792  0.00  0.00    +0.000 A 
ATOM     21  C   UNL     1       6.671   4.669  14.739  0.00  0.00    +0.000 A 
ATOM     22  C   UNL     1       5.343   4.310  14.990  0.00  0.00    +0.000 A 
ATOM     23  C   UNL     1       4.887   4.251  16.310  0.00  0.00    +0.000 A 
BRANCH  21  24
ATOM     24  N   UNL     1       7.155   4.734  13.355  0.00  0.00    +0.000 N 
ATOM     25  O   UNL     1       8.014   5.591  13.083  0.00  0.00    +0.000 OA
ATOM     26  O   UNL     1       6.682   3.936  12.537  0.00  0.00    +0.000 OA
ENDBRANCH  21  24
ENDBRANCH  17  18
ENDBRANCH   3  17
TORSDOF 5
ENDMDL
MODEL 6
REMARK VINA RESULT:      -7.8      0.897      1.028
REMARK  Name = 
REMARK  5 active torsions:
REMARK  status: ('A' for Active; 'I' for Inactive)
REMARK    1  A    between atoms: C_2  and  C_14
REMARK    2  A    between atoms: N_3  and  C_4
REMARK    3  A    between atoms: C_4  and  C_5
REMARK    4  A    between atoms: C_8  and  N_9
REMARK    5  A    between atoms: C_23  and  O_24
REMARK                            x       y       z     vdW  Elec       q    Type
REMARK                         _______ _______ _______ _____ _____    ______ ____
ROOT
ATOM      1  O   UNL     1       3.146   4.640  18.409  0.00  0.00    +0.000 OA
ATOM      2  C   UNL     1       3.714   5.718  18.558  0.00  0.00    +0.000 C 
ATOM      3  N   UNL     1       5.075   5.873  18.482  0.00  0.00    +0.000 N 
ATOM      4  H   UNL     1       5.459   6.788  18.696  0.00  0.00    +0.000 HD
ENDROOT
BRANCH   2   5
ATOM      5  C   UNL     1       2.916   6.953  18.806  0.00  0.00    +0.000 A 
ATOM      6  C   UNL     1       2.881   7.899  17.777  0.00  0.00    +0.000 A 
ATOM      7  C   UNL     1       2.073   9.030  17.886  0.00  0.00    +0.000 A 
ATOM      8  C   UNL     1       1.279   9.237  19.022  0.00  0.00    +0.000 A 
ATOM      9  C   UNL     1       0.372  10.306  19.065  0.00  0.00    +0.000 A 
ATOM     10  C   UNL     1      -0.427  10.522  20.186  0.00  0.00    +0.000 A 
ATOM     11  C   UNL     1      -0.264   9.726  21.313  0.00  0.00    +0.000 A 
ATOM     12  C   UNL     1       0.634   8.658  21.285  0.00  0.00    +0.000 A 
ATOM     13  C   UNL     1       1.370   8.346  20.119  0.00  0.00    +0.000 A 
ATOM     14  C   UNL     1       2.176   7.188  19.976  0.00  0.00    +0.000 A 
BRANCH  14  15
ATOM     15  O   UNL     1       2.175   6.234  20.969  0.00  0.00    +0.000 OA
ATOM     16  H   UNL     1       2.722   6.582  21.697  0.00  0.00    +0.000 HD
ENDBRANCH  14  15
ENDBRANCH   2   5
BRANCH   3  17
ATOM     17  C   UNL     1       5.974   4.783  18.200  0.00  0.00    +0.000 C 
BRANCH  17  18
ATOM     18  C   UNL     1       6.107   4.554  16.714  0.00  0.00    +0.000 A 
ATOM     19  C   UNL     1       7.065   5.248  15.965  0.00  0.00    +0.000 A 
ATOM     20  C   UNL     1       7.196   5.025  14.588  0.00  0.00    +0.000 A 
ATOM     21  C   UNL     1       6.361   4.094  13.961  0.00  0.00    +0.000 A 
ATOM     22  C   UNL     1       5.403   3.386  14.693  0.00  0.00    +0.000 A 
ATOM     23  C   UNL     1       5.283   3.614  16.066  0.00  0.00    +0.000 A 
BRANCH  21  24
ATOM     24  N   UNL     1       6.490   3.859  12.518  0.00  0.00    +0.000 N 
ATOM     25  O   UNL     1       7.432   4.414  11.924  0.00  0.00    +0.000 OA
ATOM     26  O   UNL     1       5.657   3.126  11.972  0.00  0.00    +0.000 OA
ENDBRANCH  21  24
ENDBRANCH  17  18
ENDBRANCH   3  17
TORSDOF 5
ENDMDL
MODEL 7
REMARK VINA RESULT:      -7.8      0.958      1.000
REMARK  Name = 
REMARK  5 active torsions:
REMARK  status: ('A' for Active; 'I' for Inactive)
REMARK    1  A    between atoms: C_2  and  C_14
REMARK    2  A    between atoms: N_3  and  C_4
REMARK    3  A    between atoms: C_4  and  C_5
REMARK    4  A    between atoms: C_8  and  N_9
REMARK    5  A    between atoms: C_23  and  O_24
REMARK                            x       y       z     vdW  Elec       q    Type
REMARK                         _______ _______ _______ _____ _____    ______ ____
ROOT
ATOM      1  O   UNL     1       4.262   5.500  19.632  0.00  0.00    +0.000 OA
ATOM      2  C   UNL     1       3.512   5.950  18.771  0.00  0.00    +0.000 C 
ATOM      3  N   UNL     1       3.340   5.371  17.539  0.00  0.00    +0.000 N 
ATOM      4  H   UNL     1       2.758   5.859  16.865  0.00  0.00    +0.000 HD
ENDROOT
BRANCH   2   5
ATOM      5  C   UNL     1       2.704   7.171  19.051  0.00  0.00    +0.000 A 
ATOM      6  C   UNL     1       2.637   8.130  18.035  0.00  0.00    +0.000 A 
ATOM      7  C   UNL     1       1.817   9.250  18.175  0.00  0.00    +0.000 A 
ATOM      8  C   UNL     1       1.043   9.431  19.329  0.00  0.00    +0.000 A 
ATOM      9  C   UNL     1       0.123  10.488  19.404  0.00  0.00    +0.000 A 
ATOM     10  C   UNL     1      -0.656  10.678  20.543  0.00  0.00    +0.000 A 
ATOM     11  C   UNL     1      -0.462   9.870  21.656  0.00  0.00    +0.000 A 
ATOM     12  C   UNL     1       0.450   8.814  21.597  0.00  0.00    +0.000 A 
ATOM     13  C   UNL     1       1.166   8.527  20.412  0.00  0.00    +0.000 A 
ATOM     14  C   UNL     1       1.984   7.381  20.239  0.00  0.00    +0.000 A 
BRANCH  14  15
ATOM     15  O   UNL     1       2.014   6.414  21.218  0.00  0.00    +0.000 OA
ATOM     16  H   UNL     1       2.624   5.718  20.910  0.00  0.00    +0.000 HD
ENDBRANCH  14  15
ENDBRANCH   2   5
BRANCH   3  17
ATOM     17  C   UNL     1       4.014   4.162  17.140  0.00  0.00    +0.000 C 
BRANCH  17  18
ATOM     18  C   UNL     1       5.027   4.433  16.055  0.00  0.00    +0.000 A 
ATOM     19  C   UNL     1       6.117   5.282  16.287  0.00  0.00    +0.000 A 
ATOM     20  C   UNL     1       7.063   5.522  15.282  0.00  0.00    +0.000 A 
ATOM     21  C   UNL     1       6.914   4.903  14.036  0.00  0.00    +0.000 A 
ATOM     22  C   UNL     1       5.838   4.046  13.787  0.00  0.00    +0.000 A 
ATOM     23  C   UNL     1       4.901   3.811  14.797  0.00  0.00    +0.000 A 
BRANCH  21  24
ATOM     24  N   UNL     1       7.900   5.154  12.979  0.00  0.00    +0.000 N 
ATOM     25  O   UNL     1       8.882   5.864  13.261  0.00  0.00    +0.000 OA
ATOM     26  O   UNL     1       7.700   4.650  11.867  0.00  0.00    +0.000 OA
ENDBRANCH  21  24
ENDBRANCH  17  18
ENDBRANCH   3  17
TORSDOF 5
ENDMDL
MODEL 8
REMARK VINA RESULT:      -7.7      3.734      4.718
REMARK  Name = 
REMARK  5 active torsions:
REMARK  status: ('A' for Active; 'I' for Inactive)
REMARK    1  A    between atoms: C_2  and  C_14
REMARK    2  A    between atoms: N_3  and  C_4
REMARK    3  A    between atoms: C_4  and  C_5
REMARK    4  A    between atoms: C_8  and  N_9
REMARK    5  A    between atoms: C_23  and  O_24
REMARK                            x       y       z     vdW  Elec       q    Type
REMARK                         _______ _______ _______ _____ _____    ______ ____
ROOT
ATOM      1  O   UNL     1       2.072  10.088  17.672  0.00  0.00    +0.000 OA
ATOM      2  C   UNL     1       1.708   9.332  18.568  0.00  0.00    +0.000 C 
ATOM      3  N   UNL     1       2.125   8.029  18.676  0.00  0.00    +0.000 N 
ATOM      4  H   UNL     1       1.709   7.459  19.406  0.00  0.00    +0.000 HD
ENDROOT
BRANCH   2   5
ATOM      5  C   UNL     1       0.790   9.827  19.634  0.00  0.00    +0.000 A 
ATOM      6  C   UNL     1       0.923   9.249  20.900  0.00  0.00    +0.000 A 
ATOM      7  C   UNL     1       0.177   9.729  21.976  0.00  0.00    +0.000 A 
ATOM      8  C   UNL     1      -0.711  10.801  21.811  0.00  0.00    +0.000 A 
ATOM      9  C   UNL     1      -1.355  11.362  22.924  0.00  0.00    +0.000 A 
ATOM     10  C   UNL     1      -2.238  12.430  22.776  0.00  0.00    +0.000 A 
ATOM     11  C   UNL     1      -2.557  12.891  21.505  0.00  0.00    +0.000 A 
ATOM     12  C   UNL     1      -1.923  12.343  20.388  0.00  0.00    +0.000 A 
ATOM     13  C   UNL     1      -0.936  11.339  20.521  0.00  0.00    +0.000 A 
ATOM     14  C   UNL     1      -0.148  10.856  19.446  0.00  0.00    +0.000 A 
BRANCH  14  15
ATOM     15  O   UNL     1      -0.244  11.455  18.210  0.00  0.00    +0.000 OA
ATOM     16  H   UNL     1       0.583  11.952  18.071  0.00  0.00    +0.000 HD
ENDBRANCH  14  15
ENDBRANCH   2   5
BRANCH   3  17
ATOM     17  C   UNL     1       3.048   7.423  17.752  0.00  0.00    +0.000 C 
BRANCH  17  18
ATOM     18  C   UNL     1       3.363   6.000  18.147  0.00  0.00    +0.000 A 
ATOM     19  C   UNL     1       4.576   5.680  18.768  0.00  0.00    +0.000 A 
ATOM     20  C   UNL     1       4.862   4.361  19.145  0.00  0.00    +0.000 A 
ATOM     21  C   UNL     1       3.918   3.357  18.899  0.00  0.00    +0.000 A 
ATOM     22  C   UNL     1       2.698   3.658  18.286  0.00  0.00    +0.000 A 
ATOM     23  C   UNL     1       2.422   4.977  17.917  0.00  0.00    +0.000 A 
BRANCH  21  24
ATOM     24  N   UNL     1       4.213   1.973  19.287  0.00  0.00    +0.000 N 
ATOM     25  O   UNL     1       4.928   1.794  20.289  0.00  0.00    +0.000 OA
ATOM     26  O   UNL     1       3.737   1.063  18.599  0.00  0.00    +0.000 OA
ENDBRANCH  21  24
ENDBRANCH  17  18
ENDBRANCH   3  17
TORSDOF 5
ENDMDL
MODEL 9
REMARK VINA RESULT:      -7.7      1.021      1.434
REMARK  Name = 
REMARK  5 active torsions:
REMARK  status: ('A' for Active; 'I' for Inactive)
REMARK    1  A    between atoms: C_2  and  C_14
REMARK    2  A    between atoms: N_3  and  C_4
REMARK    3  A    between atoms: C_4  and  C_5
REMARK    4  A    between atoms: C_8  and  N_9
REMARK    5  A    between atoms: C_23  and  O_24
REMARK                            x       y       z     vdW  Elec       q    Type
REMARK                         _______ _______ _______ _____ _____    ______ ____
ROOT
ATOM      1  O   UNL     1       4.855   5.825  19.153  0.00  0.00    +0.000 OA
ATOM      2  C   UNL     1       3.817   5.991  18.520  0.00  0.00    +0.000 C 
ATOM      3  N   UNL     1       3.387   5.140  17.534  0.00  0.00    +0.000 N 
ATOM      4  H   UNL     1       2.556   5.402  17.012  0.00  0.00    +0.000 HD
ENDROOT
BRANCH   2   5
ATOM      5  C   UNL     1       2.933   7.151  18.830  0.00  0.00    +0.000 A 
ATOM      6  C   UNL     1       2.821   8.140  17.848  0.00  0.00    +0.000 A 
ATOM      7  C   UNL     1       1.933   9.203  18.014  0.00  0.00    +0.000 A 
ATOM      8  C   UNL     1       1.134   9.295  19.161  0.00  0.00    +0.000 A 
ATOM      9  C   UNL     1       0.151  10.291  19.259  0.00  0.00    +0.000 A 
ATOM     10  C   UNL     1      -0.654  10.393  20.392  0.00  0.00    +0.000 A 
ATOM     11  C   UNL     1      -0.426   9.559  21.478  0.00  0.00    +0.000 A 
ATOM     12  C   UNL     1       0.548   8.562  21.396  0.00  0.00    +0.000 A 
ATOM     13  C   UNL     1       1.297   8.361  20.213  0.00  0.00    +0.000 A 
ATOM     14  C   UNL     1       2.185   7.274  20.013  0.00  0.00    +0.000 A 
BRANCH  14  15
ATOM     15  O   UNL     1       2.261   6.276  20.958  0.00  0.00    +0.000 OA
ATOM     16  H   UNL     1       1.365   6.165  21.326  0.00  0.00    +0.000 HD
ENDBRANCH  14  15
ENDBRANCH   2   5
BRANCH   3  17
ATOM     17  C   UNL     1       4.108   3.952  17.155  0.00  0.00    +0.000 C 
BRANCH  17  18
ATOM     18  C   UNL     1       5.083   4.235  16.038  0.00  0.00    +0.000 A 
ATOM     19  C   UNL     1       4.748   3.961  14.706  0.00  0.00    +0.000 A 
ATOM     20  C   UNL     1       5.649   4.236  13.670  0.00  0.00    +0.000 A 
ATOM     21  C   UNL     1       6.896   4.794  13.974  0.00  0.00    +0.000 A 
ATOM     22  C   UNL     1       7.247   5.082  15.297  0.00  0.00    +0.000 A 
ATOM     23  C   UNL     1       6.339   4.806  16.323  0.00  0.00    +0.000 A 
BRANCH  21  24
ATOM     24  N   UNL     1       7.846   5.081  12.893  0.00  0.00    +0.000 N 
ATOM     25  O   UNL     1       8.820   5.808  13.158  0.00  0.00    +0.000 OA
ATOM     26  O   UNL     1       7.626   4.587  11.781  0.00  0.00    +0.000 OA
ENDBRANCH  21  24
ENDBRANCH  17  18
ENDBRANCH   3  17
TORSDOF 5
ENDMDL
