MODEL 1
REMARK VINA RESULT:      -7.1      0.000      0.000
REMARK  Name = 
REMARK  8 active torsions:
REMARK  status: ('A' for Active; 'I' for Inactive)
REMARK    1  A    between atoms: C_1  and  C_2
REMARK    2  A    between atoms: C_2  and  C_3
REMARK    3  A    between atoms: C_2  and  C_4
REMARK    4  A    between atoms: C_2  and  C_5
REMARK    5  A    between atoms: N_9  and  N_10
REMARK    6  A    between atoms: C_11  and  S_12
REMARK    7  A    between atoms: N_13  and  C_14
REMARK    8  A    between atoms: C_14  and  C_15
REMARK                            x       y       z     vdW  Elec       q    Type
REMARK                         _______ _______ _______ _____ _____    ______ ____
ROOT
ATOM      1  N   UNL     1       5.244   5.926  16.201  0.00  0.00    +0.000 NA
ATOM      2  C   UNL     1       6.308   5.257  15.880  0.00  0.00    +0.000 C 
ATOM      3  N   UNL     1       6.690   4.968  14.603  0.00  0.00    +0.000 N 
ATOM      4  H   UNL     1       7.525   4.406  14.510  0.00  0.00    +0.000 HD
ENDROOT
BRANCH   1   9
ATOM      5  C   UNL     1       1.674   4.342  19.417  0.00  0.00    +0.000 C 
ATOM      6  C   UNL     1       1.781   4.403  17.881  0.00  0.00    +0.000 C 
ATOM      7  C   UNL     1       3.191   4.534  17.322  0.00  0.00    +0.000 C 
ATOM      8  C   UNL     1       4.069   5.510  18.088  0.00  0.00    +0.000 C 
ATOM      9  N   UNL     1       5.075   6.147  17.567  0.00  0.00    +0.000 NA
ATOM     10  C   UNL     1       3.865   5.678  19.578  0.00  0.00    +0.000 C 
ATOM     11  C   UNL     1       2.409   5.572  19.983  0.00  0.00    +0.000 C 
BRANCH   5  13
ATOM     12  C   UNL     1       3.453   2.596  20.301  0.00  0.00    +0.000 C 
ATOM     13  C   UNL     1       1.970   2.946  20.092  0.00  0.00    +0.000 C 
ATOM     14  C   UNL     1       1.365   1.820  19.218  0.00  0.00    +0.000 C 
ATOM     15  C   UNL     1       1.280   2.869  21.473  0.00  0.00    +0.000 C 
ENDBRANCH   5  13
ENDBRANCH   1   9
BRANCH   2  16
ATOM     16  S   UNL     1       7.435   4.628  17.073  0.00  0.00    +0.000 S 
ATOM     17  H   UNL     1       7.075   5.543  17.988  0.00  0.00    +0.000 HD
ENDBRANCH   2  16
BRANCH   3  18
ATOM     18  C   UNL     1       5.781   4.953  13.483  0.00  0.00    +0.000 C 
BRANCH  18  19
ATOM     19  C   UNL     1       6.078   3.770  12.592  0.00  0.00    +0.000 A 
ATOM     20  C   UNL     1       5.046   2.910  12.180  0.00  0.00    +0.000 A 
ATOM     21  C   UNL     1       5.314   1.825  11.345  0.00  0.00    +0.000 A 
ATOM     22  C   UNL     1       6.617   1.588  10.909  0.00  0.00    +0.000 A 
ATOM     23  C   UNL     1       7.649   2.433  11.306  0.00  0.00    +0.000 A 
ATOM     24  C   UNL     1       7.382   3.519  12.145  0.00  0.00    +0.000 A 
ENDBRANCH  18  19
ENDBRANCH   3  18
TORSDOF 5
ENDMDL
MODEL 2
REMARK VINA RESULT:      -7.1      4.709      7.086
REMARK  Name = 
REMARK  8 active torsions:
REMARK  status: ('A' for Active; 'I' for Inactive)
REMARK    1  A    between atoms: C_1  and  C_2
REMARK    2  A    between atoms: C_2  and  C_3
REMARK    3  A    between atoms: C_2  and  C_4
REMARK    4  A    between atoms: C_2  and  C_5
REMARK    5  A    between atoms: N_9  and  N_10
REMARK    6  A    between atoms: C_11  and  S_12
REMARK    7  A    between atoms: N_13  and  C_14
REMARK    8  A    between atoms: C_14  and  C_15
REMARK                            x       y       z     vdW  Elec       q    Type
REMARK                         _______ _______ _______ _____ _____    ______ ____
ROOT
ATOM      1  N   UNL     1       2.607   6.873  19.553  0.00  0.00    +0.000 NA
ATOM      2  C   UNL     1       2.585   5.576  19.544  0.00  0.00    +0.000 C 
ATOM      3  N   UNL     1       3.377   4.789  18.761  0.00  0.00    +0.000 N 
ATOM      4  H   UNL     1       3.221   3.794  18.838  0.00  0.00    +0.000 HD
ENDROOT
BRANCH   1   9
ATOM      5  C   UNL     1       0.410  11.431  19.573  0.00  0.00    +0.000 C 
ATOM      6  C   UNL     1       1.580  10.809  18.786  0.00  0.00    +0.000 C 
ATOM      7  C   UNL     1       1.628   9.287  18.765  0.00  0.00    +0.000 C 
ATOM      8  C   UNL     1       1.313   8.643  20.105  0.00  0.00    +0.000 C 
ATOM      9  N   UNL     1       1.746   7.473  20.470  0.00  0.00    +0.000 NA
ATOM     10  C   UNL     1       0.338   9.322  21.042  0.00  0.00    +0.000 C 
ATOM     11  C   UNL     1       0.435  10.833  20.993  0.00  0.00    +0.000 C 
BRANCH   5  13
ATOM     12  C   UNL     1      -1.392  10.232  18.054  0.00  0.00    +0.000 C 
ATOM     13  C   UNL     1      -0.986  11.490  18.837  0.00  0.00    +0.000 C 
ATOM     14  C   UNL     1      -0.977  12.662  17.825  0.00  0.00    +0.000 C 
ATOM     15  C   UNL     1      -2.110  11.781  19.857  0.00  0.00    +0.000 C 
ENDBRANCH   5  13
ENDBRANCH   1   9
BRANCH   2  16
ATOM     16  S   UNL     1       1.516   4.634  20.573  0.00  0.00    +0.000 S 
ATOM     17  H   UNL     1       1.640   5.494  21.597  0.00  0.00    +0.000 HD
ENDBRANCH   2  16
BRANCH   3  18
ATOM     18  C   UNL     1       4.002   5.248  17.544  0.00  0.00    +0.000 C 
BRANCH  18  19
ATOM     19  C   UNL     1       5.386   5.776  17.842  0.00  0.00    +0.000 A 
ATOM     20  C   UNL     1       5.906   6.861  17.117  0.00  0.00    +0.000 A 
ATOM     21  C   UNL     1       7.179   7.361  17.399  0.00  0.00    +0.000 A 
ATOM     22  C   UNL     1       7.943   6.784  18.411  0.00  0.00    +0.000 A 
ATOM     23  C   UNL     1       7.440   5.711  19.140  0.00  0.00    +0.000 A 
ATOM     24  C   UNL     1       6.167   5.207  18.857  0.00  0.00    +0.000 A 
ENDBRANCH  18  19
ENDBRANCH   3  18
TORSDOF 5
ENDMDL
MODEL 3
REMARK VINA RESULT:      -7.1      0.073      1.032
REMARK  Name = 
REMARK  8 active torsions:
REMARK  status: ('A' for Active; 'I' for Inactive)
REMARK    1  A    between atoms: C_1  and  C_2
REMARK    2  A    between atoms: C_2  and  C_3
REMARK    3  A    between atoms: C_2  and  C_4
REMARK    4  A    between atoms: C_2  and  C_5
REMARK    5  A    between atoms: N_9  and  N_10
REMARK    6  A    between atoms: C_11  and  S_12
REMARK    7  A    between atoms: N_13  and  C_14
REMARK    8  A    between atoms: C_14  and  C_15
REMARK                            x       y       z     vdW  Elec       q    Type
REMARK                         _______ _______ _______ _____ _____    ______ ____
ROOT
ATOM      1  N   UNL     1       5.252   5.856  16.194  0.00  0.00    +0.000 NA
ATOM      2  C   UNL     1       6.322   5.200  15.863  0.00  0.00    +0.000 C 
ATOM      3  N   UNL     1       6.691   4.911  14.583  0.00  0.00    +0.000 N 
ATOM      4  H   UNL     1       7.533   4.360  14.482  0.00  0.00    +0.000 HD
ENDROOT
BRANCH   1   9
ATOM      5  C   UNL     1       1.662   4.361  19.431  0.00  0.00    +0.000 C 
ATOM      6  C   UNL     1       1.762   4.420  17.894  0.00  0.00    +0.000 C 
ATOM      7  C   UNL     1       3.171   4.516  17.326  0.00  0.00    +0.000 C 
ATOM      8  C   UNL     1       4.078   5.469  18.087  0.00  0.00    +0.000 C 
ATOM      9  N   UNL     1       5.097   6.081  17.561  0.00  0.00    +0.000 NA
ATOM     10  C   UNL     1       3.887   5.642  19.578  0.00  0.00    +0.000 C 
ATOM     11  C   UNL     1       2.431   5.572  19.993  0.00  0.00    +0.000 C 
BRANCH   5  13
ATOM     12  C   UNL     1       3.401   2.555  20.270  0.00  0.00    +0.000 C 
ATOM     13  C   UNL     1       1.927   2.958  20.104  0.00  0.00    +0.000 C 
ATOM     14  C   UNL     1       1.255   1.851  19.255  0.00  0.00    +0.000 C 
ATOM     15  C   UNL     1       1.277   2.912  21.505  0.00  0.00    +0.000 C 
ENDBRANCH   5  13
ENDBRANCH   1   9
BRANCH   2  16
ATOM     16  S   UNL     1       7.472   4.592  17.045  0.00  0.00    +0.000 S 
ATOM     17  H   UNL     1       7.163   3.312  16.780  0.00  0.00    +0.000 HD
ENDBRANCH   2  16
BRANCH   3  18
ATOM     18  C   UNL     1       5.770   4.879  13.474  0.00  0.00    +0.000 C 
BRANCH  18  19
ATOM     19  C   UNL     1       6.103   3.724  12.558  0.00  0.00    +0.000 A 
ATOM     20  C   UNL     1       7.424   3.512  12.129  0.00  0.00    +0.000 A 
ATOM     21  C   UNL     1       7.738   2.438  11.294  0.00  0.00    +0.000 A 
ATOM     22  C   UNL     1       6.735   1.561  10.884  0.00  0.00    +0.000 A 
ATOM     23  C   UNL     1       5.423   1.755  11.304  0.00  0.00    +0.000 A 
ATOM     24  C   UNL     1       5.107   2.833  12.137  0.00  0.00    +0.000 A 
ENDBRANCH  18  19
ENDBRANCH   3  18
TORSDOF 5
ENDMDL
MODEL 4
REMARK VINA RESULT:      -7.0      4.655      7.005
REMARK  Name = 
REMARK  8 active torsions:
REMARK  status: ('A' for Active; 'I' for Inactive)
REMARK    1  A    between atoms: C_1  and  C_2
REMARK    2  A    between atoms: C_2  and  C_3
REMARK    3  A    between atoms: C_2  and  C_4
REMARK    4  A    between atoms: C_2  and  C_5
REMARK    5  A    between atoms: N_9  and  N_10
REMARK    6  A    between atoms: C_11  and  S_12
REMARK    7  A    between atoms: N_13  and  C_14
REMARK    8  A    between atoms: C_14  and  C_15
REMARK                            x       y       z     vdW  Elec       q    Type
REMARK                         _______ _______ _______ _____ _____    ______ ____
ROOT
ATOM      1  N   UNL     1       2.647   6.801  19.492  0.00  0.00    +0.000 NA
ATOM      2  C   UNL     1       2.568   5.506  19.488  0.00  0.00    +0.000 C 
ATOM      3  N   UNL     1       3.308   4.684  18.691  0.00  0.00    +0.000 N 
ATOM      4  H   UNL     1       3.109   3.696  18.774  0.00  0.00    +0.000 HD
ENDROOT
BRANCH   1   9
ATOM      5  C   UNL     1       0.515  11.390  19.466  0.00  0.00    +0.000 C 
ATOM      6  C   UNL     1       1.644  10.728  18.652  0.00  0.00    +0.000 C 
ATOM      7  C   UNL     1       1.670   9.206  18.673  0.00  0.00    +0.000 C 
ATOM      8  C   UNL     1       1.400   8.606  20.043  0.00  0.00    +0.000 C 
ATOM      9  N   UNL     1       1.832   7.440  20.425  0.00  0.00    +0.000 NA
ATOM     10  C   UNL     1       0.474   9.326  20.999  0.00  0.00    +0.000 C 
ATOM     11  C   UNL     1       0.590  10.833  20.900  0.00  0.00    +0.000 C 
BRANCH   5  13
ATOM     12  C   UNL     1      -1.311  10.222  17.952  0.00  0.00    +0.000 C 
ATOM     13  C   UNL     1      -0.908  11.449  18.785  0.00  0.00    +0.000 C 
ATOM     14  C   UNL     1      -0.968  12.672  17.837  0.00  0.00    +0.000 C 
ATOM     15  C   UNL     1      -2.000  11.655  19.859  0.00  0.00    +0.000 C 
ENDBRANCH   5  13
ENDBRANCH   1   9
BRANCH   2  16
ATOM     16  S   UNL     1       1.479   4.614  20.541  0.00  0.00    +0.000 S 
ATOM     17  H   UNL     1       0.400   4.948  19.814  0.00  0.00    +0.000 HD
ENDBRANCH   2  16
BRANCH   3  18
ATOM     18  C   UNL     1       3.927   5.112  17.461  0.00  0.00    +0.000 C 
BRANCH  18  19
ATOM     19  C   UNL     1       5.287   5.706  17.746  0.00  0.00    +0.000 A 
ATOM     20  C   UNL     1       6.151   5.098  18.672  0.00  0.00    +0.000 A 
ATOM     21  C   UNL     1       7.414   5.636  18.927  0.00  0.00    +0.000 A 
ATOM     22  C   UNL     1       7.828   6.785  18.256  0.00  0.00    +0.000 A 
ATOM     23  C   UNL     1       6.984   7.396  17.333  0.00  0.00    +0.000 A 
ATOM     24  C   UNL     1       5.719   6.860  17.079  0.00  0.00    +0.000 A 
ENDBRANCH  18  19
ENDBRANCH   3  18
TORSDOF 5
ENDMDL
MODEL 5
REMARK VINA RESULT:      -6.9      4.458      6.414
REMARK  Name = 
REMARK  8 active torsions:
REMARK  status: ('A' for Active; 'I' for Inactive)
REMARK    1  A    between atoms: C_1  and  C_2
REMARK    2  A    between atoms: C_2  and  C_3
REMARK    3  A    between atoms: C_2  and  C_4
REMARK    4  A    between atoms: C_2  and  C_5
REMARK    5  A    between atoms: N_9  and  N_10
REMARK    6  A    between atoms: C_11  and  S_12
REMARK    7  A    between atoms: N_13  and  C_14
REMARK    8  A    between atoms: C_14  and  C_15
REMARK                            x       y       z     vdW  Elec       q    Type
REMARK                         _______ _______ _______ _____ _____    ______ ____
ROOT
ATOM      1  N   UNL     1       2.437   6.504  19.312  0.00  0.00    +0.000 NA
ATOM      2  C   UNL     1       2.569   5.240  19.575  0.00  0.00    +0.000 C 
ATOM      3  N   UNL     1       3.161   4.332  18.749  0.00  0.00    +0.000 N 
ATOM      4  H   UNL     1       3.158   3.375  19.074  0.00  0.00    +0.000 HD
ENDROOT
BRANCH   1   9
ATOM      5  C   UNL     1       0.762  11.278  19.360  0.00  0.00    +0.000 C 
ATOM      6  C   UNL     1       1.680  10.474  18.419  0.00  0.00    +0.000 C 
ATOM      7  C   UNL     1       1.568   8.960  18.521  0.00  0.00    +0.000 C 
ATOM      8  C   UNL     1       1.466   8.446  19.948  0.00  0.00    +0.000 C 
ATOM      9  N   UNL     1       1.843   7.259  20.323  0.00  0.00    +0.000 NA
ATOM     10  C   UNL     1       0.774   9.293  20.993  0.00  0.00    +0.000 C 
ATOM     11  C   UNL     1       1.013  10.776  20.794  0.00  0.00    +0.000 C 
BRANCH   5  13
ATOM     12  C   UNL     1      -1.356  10.271  18.138  0.00  0.00    +0.000 C 
ATOM     13  C   UNL     1      -0.740  11.452  18.905  0.00  0.00    +0.000 C 
ATOM     14  C   UNL     1      -0.852  12.691  17.982  0.00  0.00    +0.000 C 
ATOM     15  C   UNL     1      -1.638  11.721  20.134  0.00  0.00    +0.000 C 
ENDBRANCH   5  13
ENDBRANCH   1   9
BRANCH   2  16
ATOM     16  S   UNL     1       2.001   4.513  21.071  0.00  0.00    +0.000 S 
ATOM     17  H   UNL     1       2.715   3.393  20.871  0.00  0.00    +0.000 HD
ENDBRANCH   2  16
BRANCH   3  18
ATOM     18  C   UNL     1       3.310   4.525  17.327  0.00  0.00    +0.000 C 
BRANCH  18  19
ATOM     19  C   UNL     1       4.776   4.530  16.957  0.00  0.00    +0.000 A 
ATOM     20  C   UNL     1       5.175   4.353  15.622  0.00  0.00    +0.000 A 
ATOM     21  C   UNL     1       6.526   4.371  15.275  0.00  0.00    +0.000 A 
ATOM     22  C   UNL     1       7.494   4.571  16.258  0.00  0.00    +0.000 A 
ATOM     23  C   UNL     1       7.114   4.751  17.584  0.00  0.00    +0.000 A 
ATOM     24  C   UNL     1       5.760   4.730  17.934  0.00  0.00    +0.000 A 
ENDBRANCH  18  19
ENDBRANCH   3  18
TORSDOF 5
ENDMDL
MODEL 6
REMARK VINA RESULT:      -6.9      4.385      6.359
REMARK  Name = 
REMARK  8 active torsions:
REMARK  status: ('A' for Active; 'I' for Inactive)
REMARK    1  A    between atoms: C_1  and  C_2
REMARK    2  A    between atoms: C_2  and  C_3
REMARK    3  A    between atoms: C_2  and  C_4
REMARK    4  A    between atoms: C_2  and  C_5
REMARK    5  A    between atoms: N_9  and  N_10
REMARK    6  A    between atoms: C_11  and  S_12
REMARK    7  A    between atoms: N_13  and  C_14
REMARK    8  A    between atoms: C_14  and  C_15
REMARK                            x       y       z     vdW  Elec       q    Type
REMARK                         _______ _______ _______ _____ _____    ______ ____
ROOT
ATOM      1  N   UNL     1       2.535   6.403  19.278  0.00  0.00    +0.000 NA
ATOM      2  C   UNL     1       2.643   5.145  19.576  0.00  0.00    +0.000 C 
ATOM      3  N   UNL     1       3.202   4.199  18.768  0.00  0.00    +0.000 N 
ATOM      4  H   UNL     1       3.181   3.253  19.121  0.00  0.00    +0.000 HD
ENDROOT
BRANCH   1   9
ATOM      5  C   UNL     1       0.839  11.169  19.174  0.00  0.00    +0.000 C 
ATOM      6  C   UNL     1       1.727  10.327  18.237  0.00  0.00    +0.000 C 
ATOM      7  C   UNL     1       1.627   8.818  18.411  0.00  0.00    +0.000 C 
ATOM      8  C   UNL     1       1.578   8.368  19.861  0.00  0.00    +0.000 C 
ATOM      9  N   UNL     1       1.975   7.201  20.275  0.00  0.00    +0.000 NA
ATOM     10  C   UNL     1       0.920   9.259  20.892  0.00  0.00    +0.000 C 
ATOM     11  C   UNL     1       1.144  10.732  20.619  0.00  0.00    +0.000 C 
BRANCH   5  13
ATOM     12  C   UNL     1      -1.252  10.203  17.876  0.00  0.00    +0.000 C 
ATOM     13  C   UNL     1      -0.679  11.317  18.766  0.00  0.00    +0.000 C 
ATOM     14  C   UNL     1      -0.871  12.647  17.997  0.00  0.00    +0.000 C 
ATOM     15  C   UNL     1      -1.562  11.394  20.032  0.00  0.00    +0.000 C 
ENDBRANCH   5  13
ENDBRANCH   1   9
BRANCH   2  16
ATOM     16  S   UNL     1       2.081   4.474  21.100  0.00  0.00    +0.000 S 
ATOM     17  H   UNL     1       3.102   5.013  21.787  0.00  0.00    +0.000 HD
ENDBRANCH   2  16
BRANCH   3  18
ATOM     18  C   UNL     1       3.333   4.348  17.340  0.00  0.00    +0.000 C 
BRANCH  18  19
ATOM     19  C   UNL     1       4.793   4.447  16.963  0.00  0.00    +0.000 A 
ATOM     20  C   UNL     1       5.777   4.604  17.954  0.00  0.00    +0.000 A 
ATOM     21  C   UNL     1       7.128   4.681  17.611  0.00  0.00    +0.000 A 
ATOM     22  C   UNL     1       7.510   4.599  16.273  0.00  0.00    +0.000 A 
ATOM     23  C   UNL     1       6.548   4.441  15.280  0.00  0.00    +0.000 A 
ATOM     24  C   UNL     1       5.195   4.366  15.623  0.00  0.00    +0.000 A 
ENDBRANCH  18  19
ENDBRANCH   3  18
TORSDOF 5
ENDMDL
MODEL 7
REMARK VINA RESULT:      -6.8      5.590      8.710
REMARK  Name = 
REMARK  8 active torsions:
REMARK  status: ('A' for Active; 'I' for Inactive)
REMARK    1  A    between atoms: C_1  and  C_2
REMARK    2  A    between atoms: C_2  and  C_3
REMARK    3  A    between atoms: C_2  and  C_4
REMARK    4  A    between atoms: C_2  and  C_5
REMARK    5  A    between atoms: N_9  and  N_10
REMARK    6  A    between atoms: C_11  and  S_12
REMARK    7  A    between atoms: N_13  and  C_14
REMARK    8  A    between atoms: C_14  and  C_15
REMARK                            x       y       z     vdW  Elec       q    Type
REMARK                         _______ _______ _______ _____ _____    ______ ____
ROOT
ATOM      1  N   UNL     1       1.827   8.366  19.710  0.00  0.00    +0.000 NA
ATOM      2  C   UNL     1       0.956   9.266  20.052  0.00  0.00    +0.000 C 
ATOM      3  N   UNL     1       0.724  10.423  19.370  0.00  0.00    +0.000 N 
ATOM      4  H   UNL     1       0.039  11.044  19.778  0.00  0.00    +0.000 HD
ENDROOT
BRANCH   1   9
ATOM      5  C   UNL     1       2.139   3.446  18.575  0.00  0.00    +0.000 C 
ATOM      6  C   UNL     1       1.799   4.713  17.766  0.00  0.00    +0.000 C 
ATOM      7  C   UNL     1       2.251   6.030  18.379  0.00  0.00    +0.000 C 
ATOM      8  C   UNL     1       2.024   6.120  19.879  0.00  0.00    +0.000 C 
ATOM      9  N   UNL     1       1.861   7.236  20.525  0.00  0.00    +0.000 NA
ATOM     10  C   UNL     1       2.114   4.864  20.719  0.00  0.00    +0.000 C 
ATOM     11  C   UNL     1       1.584   3.641  19.998  0.00  0.00    +0.000 C 
BRANCH   5  13
ATOM     12  C   UNL     1       4.598   3.323  19.539  0.00  0.00    +0.000 C 
ATOM     13  C   UNL     1       3.612   2.895  18.440  0.00  0.00    +0.000 C 
ATOM     14  C   UNL     1       4.212   3.369  17.093  0.00  0.00    +0.000 C 
ATOM     15  C   UNL     1       3.598   1.349  18.411  0.00  0.00    +0.000 C 
ENDBRANCH   5  13
ENDBRANCH   1   9
BRANCH   2  16
ATOM     16  S   UNL     1      -0.076   9.105  21.465  0.00  0.00    +0.000 S 
ATOM     17  H   UNL     1      -0.157   7.770  21.332  0.00  0.00    +0.000 HD
ENDBRANCH   2  16
BRANCH   3  18
ATOM     18  C   UNL     1       1.680  11.025  18.473  0.00  0.00    +0.000 C 
BRANCH  18  19
ATOM     19  C   UNL     1       1.624  12.530  18.592  0.00  0.00    +0.000 A 
ATOM     20  C   UNL     1       2.759  13.311  18.314  0.00  0.00    +0.000 A 
ATOM     21  C   UNL     1       2.706  14.702  18.409  0.00  0.00    +0.000 A 
ATOM     22  C   UNL     1       1.517  15.329  18.778  0.00  0.00    +0.000 A 
ATOM     23  C   UNL     1       0.384  14.570  19.053  0.00  0.00    +0.000 A 
ATOM     24  C   UNL     1       0.436  13.176  18.961  0.00  0.00    +0.000 A 
ENDBRANCH  18  19
ENDBRANCH   3  18
TORSDOF 5
ENDMDL
MODEL 8
REMARK VINA RESULT:      -6.8      5.313      8.454
REMARK  Name = 
REMARK  8 active torsions:
REMARK  status: ('A' for Active; 'I' for Inactive)
REMARK    1  A    between atoms: C_1  and  C_2
REMARK    2  A    between atoms: C_2  and  C_3
REMARK    3  A    between atoms: C_2  and  C_4
REMARK    4  A    between atoms: C_2  and  C_5
REMARK    5  A    between atoms: N_9  and  N_10
REMARK    6  A    between atoms: C_11  and  S_12
REMARK    7  A    between atoms: N_13  and  C_14
REMARK    8  A    between atoms: C_14  and  C_15
REMARK                            x       y       z     vdW  Elec       q    Type
REMARK                         _______ _______ _______ _____ _____    ______ ____
ROOT
ATOM      1  N   UNL     1       1.376   9.102  18.472  0.00  0.00    +0.000 NA
ATOM      2  C   UNL     1       1.187  10.385  18.537  0.00  0.00    +0.000 C 
ATOM      3  N   UNL     1       0.125  10.985  19.144  0.00  0.00    +0.000 N 
ATOM      4  H   UNL     1       0.095  11.994  19.081  0.00  0.00    +0.000 HD
ENDROOT
BRANCH   1   9
ATOM      5  C   UNL     1       4.103   4.859  18.864  0.00  0.00    +0.000 C 
ATOM      6  C   UNL     1       2.984   5.496  19.711  0.00  0.00    +0.000 C 
ATOM      7  C   UNL     1       2.135   6.544  19.006  0.00  0.00    +0.000 C 
ATOM      8  C   UNL     1       2.935   7.500  18.136  0.00  0.00    +0.000 C 
ATOM      9  N   UNL     1       2.558   8.710  17.846  0.00  0.00    +0.000 NA
ATOM     10  C   UNL     1       4.189   7.004  17.450  0.00  0.00    +0.000 C 
ATOM     11  C   UNL     1       4.958   6.004  18.289  0.00  0.00    +0.000 C 
BRANCH   5  13
ATOM     12  C   UNL     1       4.463   3.613  16.560  0.00  0.00    +0.000 C 
ATOM     13  C   UNL     1       3.672   3.707  17.874  0.00  0.00    +0.000 C 
ATOM     14  C   UNL     1       2.185   3.899  17.487  0.00  0.00    +0.000 C 
ATOM     15  C   UNL     1       3.783   2.335  18.577  0.00  0.00    +0.000 C 
ENDBRANCH   5  13
ENDBRANCH   1   9
BRANCH   2  16
ATOM     16  S   UNL     1       2.308  11.549  17.846  0.00  0.00    +0.000 S 
ATOM     17  H   UNL     1       1.792  11.410  16.613  0.00  0.00    +0.000 HD
ENDBRANCH   2  16
BRANCH   3  18
ATOM     18  C   UNL     1      -1.132  10.322  19.390  0.00  0.00    +0.000 C 
BRANCH  18  19
ATOM     19  C   UNL     1      -2.062  10.524  18.216  0.00  0.00    +0.000 A 
ATOM     20  C   UNL     1      -3.163  11.391  18.319  0.00  0.00    +0.000 A 
ATOM     21  C   UNL     1      -4.015  11.591  17.232  0.00  0.00    +0.000 A 
ATOM     22  C   UNL     1      -3.774  10.931  16.028  0.00  0.00    +0.000 A 
ATOM     23  C   UNL     1      -2.685  10.072  15.910  0.00  0.00    +0.000 A 
ATOM     24  C   UNL     1      -1.833   9.868  16.999  0.00  0.00    +0.000 A 
ENDBRANCH  18  19
ENDBRANCH   3  18
TORSDOF 5
ENDMDL
MODEL 9
REMARK VINA RESULT:      -6.8      5.608      8.695
REMARK  Name = 
REMARK  8 active torsions:
REMARK  status: ('A' for Active; 'I' for Inactive)
REMARK    1  A    between atoms: C_1  and  C_2
REMARK    2  A    between atoms: C_2  and  C_3
REMARK    3  A    between atoms: C_2  and  C_4
REMARK    4  A    between atoms: C_2  and  C_5
REMARK    5  A    between atoms: N_9  and  N_10
REMARK    6  A    between atoms: C_11  and  S_12
REMARK    7  A    between atoms: N_13  and  C_14
REMARK    8  A    between atoms: C_14  and  C_15
REMARK                            x       y       z     vdW  Elec       q    Type
REMARK                         _______ _______ _______ _____ _____    ______ ____
ROOT
ATOM      1  N   UNL     1       1.670   8.334  19.797  0.00  0.00    +0.000 NA
ATOM      2  C   UNL     1       0.949   9.299  20.280  0.00  0.00    +0.000 C 
ATOM      3  N   UNL     1       0.704  10.480  19.645  0.00  0.00    +0.000 N 
ATOM      4  H   UNL     1       0.154  11.151  20.163  0.00  0.00    +0.000 HD
ENDROOT
BRANCH   1   9
ATOM      5  C   UNL     1       2.137   3.441  18.597  0.00  0.00    +0.000 C 
ATOM      6  C   UNL     1       1.750   4.705  17.806  0.00  0.00    +0.000 C 
ATOM      7  C   UNL     1       2.162   6.030  18.434  0.00  0.00    +0.000 C 
ATOM      8  C   UNL     1       1.943   6.093  19.936  0.00  0.00    +0.000 C 
ATOM      9  N   UNL     1       1.746   7.195  20.598  0.00  0.00    +0.000 NA
ATOM     10  C   UNL     1       2.079   4.830  20.759  0.00  0.00    +0.000 C 
ATOM     11  C   UNL     1       1.585   3.600  20.026  0.00  0.00    +0.000 C 
BRANCH   5  13
ATOM     12  C   UNL     1       4.608   3.398  19.538  0.00  0.00    +0.000 C 
ATOM     13  C   UNL     1       3.627   2.941  18.446  0.00  0.00    +0.000 C 
ATOM     14  C   UNL     1       4.197   3.440  17.096  0.00  0.00    +0.000 C 
ATOM     15  C   UNL     1       3.665   1.396  18.411  0.00  0.00    +0.000 C 
ENDBRANCH   5  13
ENDBRANCH   1   9
BRANCH   2  16
ATOM     16  S   UNL     1       0.164   9.208  21.850  0.00  0.00    +0.000 S 
ATOM     17  H   UNL     1      -0.292  10.469  21.765  0.00  0.00    +0.000 HD
ENDBRANCH   2  16
BRANCH   3  18
ATOM     18  C   UNL     1       1.540  11.009  18.596  0.00  0.00    +0.000 C 
BRANCH  18  19
ATOM     19  C   UNL     1       1.537  12.520  18.646  0.00  0.00    +0.000 A 
ATOM     20  C   UNL     1       0.366  13.220  18.983  0.00  0.00    +0.000 A 
ATOM     21  C   UNL     1       0.364  14.615  19.044  0.00  0.00    +0.000 A 
ATOM     22  C   UNL     1       1.533  15.324  18.774  0.00  0.00    +0.000 A 
ATOM     23  C   UNL     1       2.701  14.644  18.442  0.00  0.00    +0.000 A 
ATOM     24  C   UNL     1       2.704  13.248  18.377  0.00  0.00    +0.000 A 
ENDBRANCH  18  19
ENDBRANCH   3  18
TORSDOF 5
ENDMDL
