MODEL 1
REMARK VINA RESULT:      -7.6      0.000      0.000
REMARK  Name = 
REMARK  9 active torsions:
REMARK  status: ('A' for Active; 'I' for Inactive)
REMARK    1  A    between atoms: N_1  and  CA_2
REMARK    2  A    between atoms: CA_2  and  C_3
REMARK    3  A    between atoms: CA_2  and  C_18
REMARK    4  A    between atoms: C_3  and  C_4
REMARK    5  A    between atoms: C_4  and  C_5
REMARK    6  A    between atoms: C_5  and  O_7
REMARK    7  A    between atoms: C_12  and  O_13
REMARK    8  A    between atoms: C_14  and  O_15
REMARK    9  A    between atoms: C_18  and  OXT_20
REMARK                            x       y       z     vdW  Elec       q    Type
REMARK                         _______ _______ _______ _____ _____    ______ ____
ROOT
ATOM      1  C   UNL     1       4.494   5.159  18.109  0.00  0.00    +0.000 C 
ATOM      2  C   UNL     1       3.635   4.028  17.524  0.00  0.00    +0.000 C 
ATOM      3  C   UNL     1       2.223   4.554  17.656  0.00  0.00    +0.000 C 
ATOM      4  O   UNL     1       1.209   3.565  17.648  0.00  0.00    +0.000 OA
ATOM      5  C   UNL     1       1.067   2.798  18.838  0.00  0.00    +0.000 C 
ATOM      6  C   UNL     1       0.860   3.675  20.073  0.00  0.00    +0.000 C 
ATOM      7  C   UNL     1       1.995   4.693  20.212  0.00  0.00    +0.000 C 
ATOM      8  C   UNL     1       2.287   5.431  18.894  0.00  0.00    +0.000 C 
ATOM      9  O   UNL     1       3.621   5.988  18.910  0.00  0.00    +0.000 OA
ENDROOT
BRANCH   1  10
ATOM     10  C   UNL     1       5.571   4.556  19.016  0.00  0.00    +0.000 C 
ATOM     11  O   UNL     1       6.314   5.206  19.735  0.00  0.00    +0.000 OA
BRANCH  10  12
ATOM     12  O   UNL     1       5.536   3.202  19.031  0.00  0.00    +0.000 OA
ATOM     13  H   UNL     1       4.593   2.906  19.014  0.00  0.00    +0.000 HD
ENDBRANCH  10  12
ENDBRANCH   1  10
BRANCH   6  14
ATOM     14  O   UNL     1       0.797   2.850  21.239  0.00  0.00    +0.000 OA
ATOM     15  H   UNL     1       0.029   3.144  21.769  0.00  0.00    +0.000 HD
ENDBRANCH   6  14
BRANCH   7  16
ATOM     16  O   UNL     1       3.164   4.033  20.735  0.00  0.00    +0.000 OA
ATOM     17  H   UNL     1       3.560   3.461  20.055  0.00  0.00    +0.000 HD
ENDBRANCH   7  16
BRANCH   1  18
ATOM     18  C   UNL     1       5.192   5.993  17.012  0.00  0.00    +0.000 C 
BRANCH  18  19
ATOM     19  CA  UNL     1       6.665   5.678  16.677  0.00  0.00    +0.000 C 
BRANCH  19  20
ATOM     20  N   UNL     1       7.595   6.839  16.615  0.00  0.00    +0.000 NA
ATOM     21  H1  UNL     1       8.150   6.857  17.479  0.00  0.00    +0.000 HD
ATOM     22  H2  UNL     1       7.096   7.735  16.636  0.00  0.00    +0.000 HD
ENDBRANCH  19  20
BRANCH  19  23
ATOM     23  C   UNL     1       6.803   4.839  15.396  0.00  0.00    +0.000 C 
ATOM     24  O   UNL     1       6.237   3.776  15.190  0.00  0.00    +0.000 OA
BRANCH  23  25
ATOM     25  OXT UNL     1       7.663   5.414  14.517  0.00  0.00    +0.000 OA
ATOM     26  HXT UNL     1       7.849   6.320  14.868  0.00  0.00    +0.000 HD
ENDBRANCH  23  25
ENDBRANCH  19  23
ENDBRANCH  18  19
ENDBRANCH   1  18
TORSDOF 9
ENDMDL
MODEL 2
REMARK VINA RESULT:      -7.6      0.998      1.237
REMARK  Name = 
REMARK  9 active torsions:
REMARK  status: ('A' for Active; 'I' for Inactive)
REMARK    1  A    between atoms: N_1  and  CA_2
REMARK    2  A    between atoms: CA_2  and  C_3
REMARK    3  A    between atoms: CA_2  and  C_18
REMARK    4  A    between atoms: C_3  and  C_4
REMARK    5  A    between atoms: C_4  and  C_5
REMARK    6  A    between atoms: C_5  and  O_7
REMARK    7  A    between atoms: C_12  and  O_13
REMARK    8  A    between atoms: C_14  and  O_15
REMARK    9  A    between atoms: C_18  and  OXT_20
REMARK                            x       y       z     vdW  Elec       q    Type
REMARK                         _______ _______ _______ _____ _____    ______ ____
ROOT
ATOM      1  C   UNL     1       4.613   4.598  17.757  0.00  0.00    +0.000 C 
ATOM      2  C   UNL     1       3.980   3.217  17.531  0.00  0.00    +0.000 C 
ATOM      3  C   UNL     1       2.523   3.535  17.276  0.00  0.00    +0.000 C 
ATOM      4  O   UNL     1       1.624   2.465  17.507  0.00  0.00    +0.000 OA
ATOM      5  C   UNL     1       1.350   2.155  18.868  0.00  0.00    +0.000 C 
ATOM      6  C   UNL     1       0.848   3.369  19.650  0.00  0.00    +0.000 C 
ATOM      7  C   UNL     1       1.841   4.530  19.544  0.00  0.00    +0.000 C 
ATOM      8  C   UNL     1       2.287   4.791  18.095  0.00  0.00    +0.000 C 
ATOM      9  O   UNL     1       3.538   5.514  18.073  0.00  0.00    +0.000 OA
ENDROOT
BRANCH   1  10
ATOM     10  C   UNL     1       5.567   4.525  18.953  0.00  0.00    +0.000 C 
ATOM     11  O   UNL     1       6.244   5.459  19.356  0.00  0.00    +0.000 OA
BRANCH  10  12
ATOM     12  O   UNL     1       5.492   3.339  19.602  0.00  0.00    +0.000 OA
ATOM     13  H   UNL     1       6.089   3.366  20.390  0.00  0.00    +0.000 HD
ENDBRANCH  10  12
ENDBRANCH   1  10
BRANCH   6  14
ATOM     14  O   UNL     1       0.661   3.009  21.021  0.00  0.00    +0.000 OA
ATOM     15  H   UNL     1      -0.285   3.137  21.234  0.00  0.00    +0.000 HD
ENDBRANCH   6  14
BRANCH   7  16
ATOM     16  O   UNL     1       2.957   4.284  20.420  0.00  0.00    +0.000 OA
ATOM     17  H   UNL     1       3.088   3.327  20.537  0.00  0.00    +0.000 HD
ENDBRANCH   7  16
BRANCH   1  18
ATOM     18  C   UNL     1       5.410   5.087  16.527  0.00  0.00    +0.000 C 
BRANCH  18  19
ATOM     19  CA  UNL     1       6.585   4.224  16.025  0.00  0.00    +0.000 C 
BRANCH  19  20
ATOM     20  N   UNL     1       7.832   4.260  16.838  0.00  0.00    +0.000 NA
ATOM     21  H1  UNL     1       8.635   4.160  16.206  0.00  0.00    +0.000 HD
ATOM     22  H2  UNL     1       7.914   3.443  17.455  0.00  0.00    +0.000 HD
ENDBRANCH  19  20
BRANCH  19  23
ATOM     23  C   UNL     1       6.924   4.504  14.552  0.00  0.00    +0.000 C 
ATOM     24  O   UNL     1       7.596   5.443  14.153  0.00  0.00    +0.000 OA
BRANCH  23  25
ATOM     25  OXT UNL     1       6.359   3.583  13.729  0.00  0.00    +0.000 OA
ATOM     26  HXT UNL     1       6.810   3.683  12.854  0.00  0.00    +0.000 HD
ENDBRANCH  23  25
ENDBRANCH  19  23
ENDBRANCH  18  19
ENDBRANCH   1  18
TORSDOF 9
ENDMDL
MODEL 3
REMARK VINA RESULT:      -7.4      1.068      1.288
REMARK  Name = 
REMARK  9 active torsions:
REMARK  status: ('A' for Active; 'I' for Inactive)
REMARK    1  A    between atoms: N_1  and  CA_2
REMARK    2  A    between atoms: CA_2  and  C_3
REMARK    3  A    between atoms: CA_2  and  C_18
REMARK    4  A    between atoms: C_3  and  C_4
REMARK    5  A    between atoms: C_4  and  C_5
REMARK    6  A    between atoms: C_5  and  O_7
REMARK    7  A    between atoms: C_12  and  O_13
REMARK    8  A    between atoms: C_14  and  O_15
REMARK    9  A    between atoms: C_18  and  OXT_20
REMARK                            x       y       z     vdW  Elec       q    Type
REMARK                         _______ _______ _______ _____ _____    ______ ____
ROOT
ATOM      1  C   UNL     1       4.581   4.720  17.637  0.00  0.00    +0.000 C 
ATOM      2  C   UNL     1       4.067   3.279  17.508  0.00  0.00    +0.000 C 
ATOM      3  C   UNL     1       2.588   3.454  17.244  0.00  0.00    +0.000 C 
ATOM      4  O   UNL     1       1.784   2.329  17.553  0.00  0.00    +0.000 OA
ATOM      5  C   UNL     1       1.540   2.089  18.934  0.00  0.00    +0.000 C 
ATOM      6  C   UNL     1       0.939   3.305  19.638  0.00  0.00    +0.000 C 
ATOM      7  C   UNL     1       1.829   4.536  19.447  0.00  0.00    +0.000 C 
ATOM      8  C   UNL     1       2.248   4.737  17.981  0.00  0.00    +0.000 C 
ATOM      9  O   UNL     1       3.433   5.561  17.901  0.00  0.00    +0.000 OA
ENDROOT
BRANCH   1  10
ATOM     10  C   UNL     1       5.541   4.808  18.828  0.00  0.00    +0.000 C 
ATOM     11  O   UNL     1       5.728   3.909  19.634  0.00  0.00    +0.000 OA
BRANCH  10  12
ATOM     12  O   UNL     1       6.261   5.955  18.827  0.00  0.00    +0.000 OA
ATOM     13  H   UNL     1       7.068   5.826  18.272  0.00  0.00    +0.000 HD
ENDBRANCH  10  12
ENDBRANCH   1  10
BRANCH   6  14
ATOM     14  O   UNL     1       0.786   3.022  21.031  0.00  0.00    +0.000 OA
ATOM     15  H   UNL     1       0.478   2.097  21.114  0.00  0.00    +0.000 HD
ENDBRANCH   6  14
BRANCH   7  16
ATOM     16  O   UNL     1       2.965   4.444  20.328  0.00  0.00    +0.000 OA
ATOM     17  H   UNL     1       3.376   5.318  20.440  0.00  0.00    +0.000 HD
ENDBRANCH   7  16
BRANCH   1  18
ATOM     18  C   UNL     1       5.330   5.193  16.371  0.00  0.00    +0.000 C 
BRANCH  18  19
ATOM     19  CA  UNL     1       6.499   4.333  15.848  0.00  0.00    +0.000 C 
BRANCH  19  20
ATOM     20  N   UNL     1       7.799   4.476  16.560  0.00  0.00    +0.000 NA
ATOM     21  H1  UNL     1       8.506   4.795  15.885  0.00  0.00    +0.000 HD
ATOM     22  H2  UNL     1       8.167   3.571  16.877  0.00  0.00    +0.000 HD
ENDBRANCH  19  20
BRANCH  19  23
ATOM     23  C   UNL     1       6.718   4.507  14.337  0.00  0.00    +0.000 C 
ATOM     24  O   UNL     1       6.140   3.873  13.467  0.00  0.00    +0.000 OA
BRANCH  23  25
ATOM     25  OXT UNL     1       7.665   5.446  14.078  0.00  0.00    +0.000 OA
ATOM     26  HXT UNL     1       7.306   6.300  14.424  0.00  0.00    +0.000 HD
ENDBRANCH  23  25
ENDBRANCH  19  23
ENDBRANCH  18  19
ENDBRANCH   1  18
TORSDOF 9
ENDMDL
MODEL 4
REMARK VINA RESULT:      -7.2      1.228      1.354
REMARK  Name = 
REMARK  9 active torsions:
REMARK  status: ('A' for Active; 'I' for Inactive)
REMARK    1  A    between atoms: N_1  and  CA_2
REMARK    2  A    between atoms: CA_2  and  C_3
REMARK    3  A    between atoms: CA_2  and  C_18
REMARK    4  A    between atoms: C_3  and  C_4
REMARK    5  A    between atoms: C_4  and  C_5
REMARK    6  A    between atoms: C_5  and  O_7
REMARK    7  A    between atoms: C_12  and  O_13
REMARK    8  A    between atoms: C_14  and  O_15
REMARK    9  A    between atoms: C_18  and  OXT_20
REMARK                            x       y       z     vdW  Elec       q    Type
REMARK                         _______ _______ _______ _____ _____    ______ ____
ROOT
ATOM      1  C   UNL     1       4.330   4.673  17.831  0.00  0.00    +0.000 C 
ATOM      2  C   UNL     1       3.406   3.506  17.452  0.00  0.00    +0.000 C 
ATOM      3  C   UNL     1       2.019   4.088  17.616  0.00  0.00    +0.000 C 
ATOM      4  O   UNL     1       0.985   3.137  17.799  0.00  0.00    +0.000 OA
ATOM      5  C   UNL     1       0.914   2.524  19.082  0.00  0.00    +0.000 C 
ATOM      6  C   UNL     1       0.816   3.550  20.210  0.00  0.00    +0.000 C 
ATOM      7  C   UNL     1       1.981   4.541  20.144  0.00  0.00    +0.000 C 
ATOM      8  C   UNL     1       2.192   5.105  18.729  0.00  0.00    +0.000 C 
ATOM      9  O   UNL     1       3.535   5.619  18.584  0.00  0.00    +0.000 OA
ENDROOT
BRANCH   1  10
ATOM     10  C   UNL     1       5.457   4.151  18.729  0.00  0.00    +0.000 C 
ATOM     11  O   UNL     1       6.366   4.838  19.169  0.00  0.00    +0.000 OA
BRANCH  10  12
ATOM     12  O   UNL     1       5.273   2.859  19.090  0.00  0.00    +0.000 OA
ATOM     13  H   UNL     1       5.378   2.285  18.293  0.00  0.00    +0.000 HD
ENDBRANCH  10  12
ENDBRANCH   1  10
BRANCH   6  14
ATOM     14  O   UNL     1       0.820   2.874  21.471  0.00  0.00    +0.000 OA
ATOM     15  H   UNL     1       1.583   3.206  21.983  0.00  0.00    +0.000 HD
ENDBRANCH   6  14
BRANCH   7  16
ATOM     16  O   UNL     1       3.170   3.914  20.662  0.00  0.00    +0.000 OA
ATOM     17  H   UNL     1       3.506   4.411  21.428  0.00  0.00    +0.000 HD
ENDBRANCH   7  16
BRANCH   1  18
ATOM     18  C   UNL     1       4.965   5.346  16.595  0.00  0.00    +0.000 C 
BRANCH  18  19
ATOM     19  CA  UNL     1       5.791   4.473  15.628  0.00  0.00    +0.000 C 
BRANCH  19  20
ATOM     20  N   UNL     1       5.754   3.003  15.863  0.00  0.00    +0.000 NA
ATOM     21  H1  UNL     1       6.404   2.552  15.208  0.00  0.00    +0.000 HD
ATOM     22  H2  UNL     1       4.845   2.595  15.612  0.00  0.00    +0.000 HD
ENDBRANCH  19  20
BRANCH  19  23
ATOM     23  C   UNL     1       7.253   4.940  15.528  0.00  0.00    +0.000 C 
ATOM     24  O   UNL     1       7.721   5.581  14.599  0.00  0.00    +0.000 OA
BRANCH  23  25
ATOM     25  OXT UNL     1       7.980   4.528  16.598  0.00  0.00    +0.000 OA
ATOM     26  HXT UNL     1       8.135   3.559  16.467  0.00  0.00    +0.000 HD
ENDBRANCH  23  25
ENDBRANCH  19  23
ENDBRANCH  18  19
ENDBRANCH   1  18
TORSDOF 9
ENDMDL
MODEL 5
REMARK VINA RESULT:      -7.2      2.406      6.056
REMARK  Name = 
REMARK  9 active torsions:
REMARK  status: ('A' for Active; 'I' for Inactive)
REMARK    1  A    between atoms: N_1  and  CA_2
REMARK    2  A    between atoms: CA_2  and  C_3
REMARK    3  A    between atoms: CA_2  and  C_18
REMARK    4  A    between atoms: C_3  and  C_4
REMARK    5  A    between atoms: C_4  and  C_5
REMARK    6  A    between atoms: C_5  and  O_7
REMARK    7  A    between atoms: C_12  and  O_13
REMARK    8  A    between atoms: C_14  and  O_15
REMARK    9  A    between atoms: C_18  and  OXT_20
REMARK                            x       y       z     vdW  Elec       q    Type
REMARK                         _______ _______ _______ _____ _____    ______ ____
ROOT
ATOM      1  C   UNL     1       3.449   4.100  18.632  0.00  0.00    +0.000 C 
ATOM      2  C   UNL     1       4.857   3.825  19.180  0.00  0.00    +0.000 C 
ATOM      3  C   UNL     1       5.544   5.169  19.080  0.00  0.00    +0.000 C 
ATOM      4  O   UNL     1       6.960   5.122  19.059  0.00  0.00    +0.000 OA
ATOM      5  C   UNL     1       7.557   4.691  17.841  0.00  0.00    +0.000 C 
ATOM      6  C   UNL     1       7.095   5.519  16.643  0.00  0.00    +0.000 C 
ATOM      7  C   UNL     1       5.568   5.510  16.533  0.00  0.00    +0.000 C 
ATOM      8  C   UNL     1       4.882   5.814  17.876  0.00  0.00    +0.000 C 
ATOM      9  O   UNL     1       3.521   5.328  17.870  0.00  0.00    +0.000 OA
ENDROOT
BRANCH   1  10
ATOM     10  C   UNL     1       3.041   2.960  17.694  0.00  0.00    +0.000 C 
ATOM     11  O   UNL     1       2.150   3.034  16.862  0.00  0.00    +0.000 OA
BRANCH  10  12
ATOM     12  O   UNL     1       3.860   1.887  17.798  0.00  0.00    +0.000 OA
ATOM     13  H   UNL     1       3.341   1.119  18.140  0.00  0.00    +0.000 HD
ENDBRANCH  10  12
ENDBRANCH   1  10
BRANCH   6  14
ATOM     14  O   UNL     1       7.675   4.992  15.446  0.00  0.00    +0.000 OA
ATOM     15  H   UNL     1       8.403   4.393  15.709  0.00  0.00    +0.000 HD
ENDBRANCH   6  14
BRANCH   7  16
ATOM     16  O   UNL     1       5.138   4.254  15.976  0.00  0.00    +0.000 OA
ATOM     17  H   UNL     1       5.882   3.627  15.945  0.00  0.00    +0.000 HD
ENDBRANCH   7  16
BRANCH   1  18
ATOM     18  C   UNL     1       2.393   4.209  19.754  0.00  0.00    +0.000 C 
BRANCH  18  19
ATOM     19  CA  UNL     1       1.623   2.936  20.162  0.00  0.00    +0.000 C 
BRANCH  19  20
ATOM     20  N   UNL     1       0.162   2.923  19.876  0.00  0.00    +0.000 NA
ATOM     21  H1  UNL     1      -0.315   2.429  20.640  0.00  0.00    +0.000 HD
ATOM     22  H2  UNL     1      -0.065   2.356  19.050  0.00  0.00    +0.000 HD
ENDBRANCH  19  20
BRANCH  19  23
ATOM     23  C   UNL     1       1.862   2.558  21.633  0.00  0.00    +0.000 C 
ATOM     24  O   UNL     1       0.994   2.488  22.488  0.00  0.00    +0.000 OA
BRANCH  23  25
ATOM     25  OXT UNL     1       3.178   2.331  21.879  0.00  0.00    +0.000 OA
ATOM     26  HXT UNL     1       3.376   2.772  22.743  0.00  0.00    +0.000 HD
ENDBRANCH  23  25
ENDBRANCH  19  23
ENDBRANCH  18  19
ENDBRANCH   1  18
TORSDOF 9
ENDMDL
MODEL 6
REMARK VINA RESULT:      -7.2      1.742      2.627
REMARK  Name = 
REMARK  9 active torsions:
REMARK  status: ('A' for Active; 'I' for Inactive)
REMARK    1  A    between atoms: N_1  and  CA_2
REMARK    2  A    between atoms: CA_2  and  C_3
REMARK    3  A    between atoms: CA_2  and  C_18
REMARK    4  A    between atoms: C_3  and  C_4
REMARK    5  A    between atoms: C_4  and  C_5
REMARK    6  A    between atoms: C_5  and  O_7
REMARK    7  A    between atoms: C_12  and  O_13
REMARK    8  A    between atoms: C_14  and  O_15
REMARK    9  A    between atoms: C_18  and  OXT_20
REMARK                            x       y       z     vdW  Elec       q    Type
REMARK                         _______ _______ _______ _____ _____    ______ ____
ROOT
ATOM      1  C   UNL     1       4.479   5.209  18.125  0.00  0.00    +0.000 C 
ATOM      2  C   UNL     1       4.318   4.634  19.540  0.00  0.00    +0.000 C 
ATOM      3  C   UNL     1       4.162   3.148  19.302  0.00  0.00    +0.000 C 
ATOM      4  O   UNL     1       3.531   2.433  20.349  0.00  0.00    +0.000 OA
ATOM      5  C   UNL     1       2.122   2.594  20.461  0.00  0.00    +0.000 C 
ATOM      6  C   UNL     1       1.394   2.263  19.159  0.00  0.00    +0.000 C 
ATOM      7  C   UNL     1       1.947   3.097  18.001  0.00  0.00    +0.000 C 
ATOM      8  C   UNL     1       3.484   3.078  17.946  0.00  0.00    +0.000 C 
ATOM      9  O   UNL     1       3.978   4.214  17.201  0.00  0.00    +0.000 OA
ENDROOT
BRANCH   1  10
ATOM     10  C   UNL     1       3.628   6.475  17.996  0.00  0.00    +0.000 C 
ATOM     11  O   UNL     1       2.730   6.787  18.763  0.00  0.00    +0.000 OA
BRANCH  10  12
ATOM     12  O   UNL     1       4.057   7.287  17.001  0.00  0.00    +0.000 OA
ATOM     13  H   UNL     1       4.608   8.009  17.390  0.00  0.00    +0.000 HD
ENDBRANCH  10  12
ENDBRANCH   1  10
BRANCH   6  14
ATOM     14  O   UNL     1      -0.005   2.513  19.318  0.00  0.00    +0.000 OA
ATOM     15  H   UNL     1      -0.461   1.647  19.338  0.00  0.00    +0.000 HD
ENDBRANCH   6  14
BRANCH   7  16
ATOM     16  O   UNL     1       1.424   4.437  18.087  0.00  0.00    +0.000 OA
ATOM     17  H   UNL     1       2.138   5.085  17.966  0.00  0.00    +0.000 HD
ENDBRANCH   7  16
BRANCH   1  18
ATOM     18  C   UNL     1       5.945   5.572  17.802  0.00  0.00    +0.000 C 
BRANCH  18  19
ATOM     19  CA  UNL     1       6.723   4.673  16.819  0.00  0.00    +0.000 C 
BRANCH  19  20
ATOM     20  N   UNL     1       8.068   4.211  17.262  0.00  0.00    +0.000 NA
ATOM     21  H1  UNL     1       8.215   4.520  18.230  0.00  0.00    +0.000 HD
ATOM     22  H2  UNL     1       8.824   4.678  16.748  0.00  0.00    +0.000 HD
ENDBRANCH  19  20
BRANCH  19  23
ATOM     23  C   UNL     1       6.830   5.298  15.419  0.00  0.00    +0.000 C 
ATOM     24  O   UNL     1       7.845   5.329  14.740  0.00  0.00    +0.000 OA
BRANCH  23  25
ATOM     25  OXT UNL     1       5.649   5.845  15.028  0.00  0.00    +0.000 OA
ATOM     26  HXT UNL     1       5.674   5.874  14.040  0.00  0.00    +0.000 HD
ENDBRANCH  23  25
ENDBRANCH  19  23
ENDBRANCH  18  19
ENDBRANCH   1  18
TORSDOF 9
ENDMDL
MODEL 7
REMARK VINA RESULT:      -7.1      1.854      3.080
REMARK  Name = 
REMARK  9 active torsions:
REMARK  status: ('A' for Active; 'I' for Inactive)
REMARK    1  A    between atoms: N_1  and  CA_2
REMARK    2  A    between atoms: CA_2  and  C_3
REMARK    3  A    between atoms: CA_2  and  C_18
REMARK    4  A    between atoms: C_3  and  C_4
REMARK    5  A    between atoms: C_4  and  C_5
REMARK    6  A    between atoms: C_5  and  O_7
REMARK    7  A    between atoms: C_12  and  O_13
REMARK    8  A    between atoms: C_14  and  O_15
REMARK    9  A    between atoms: C_18  and  OXT_20
REMARK                            x       y       z     vdW  Elec       q    Type
REMARK                         _______ _______ _______ _____ _____    ______ ____
ROOT
ATOM      1  C   UNL     1       5.113   4.848  17.326  0.00  0.00    +0.000 C 
ATOM      2  C   UNL     1       3.690   5.386  17.532  0.00  0.00    +0.000 C 
ATOM      3  C   UNL     1       3.388   5.043  18.974  0.00  0.00    +0.000 C 
ATOM      4  O   UNL     1       2.011   4.983  19.303  0.00  0.00    +0.000 OA
ATOM      5  C   UNL     1       1.305   3.834  18.849  0.00  0.00    +0.000 C 
ATOM      6  C   UNL     1       1.957   2.532  19.312  0.00  0.00    +0.000 C 
ATOM      7  C   UNL     1       3.424   2.476  18.878  0.00  0.00    +0.000 C 
ATOM      8  C   UNL     1       4.184   3.773  19.208  0.00  0.00    +0.000 C 
ATOM      9  O   UNL     1       5.365   3.892  18.383  0.00  0.00    +0.000 OA
ENDROOT
BRANCH   1  10
ATOM     10  C   UNL     1       5.189   4.124  15.979  0.00  0.00    +0.000 C 
ATOM     11  O   UNL     1       4.887   4.625  14.906  0.00  0.00    +0.000 OA
BRANCH  10  12
ATOM     12  O   UNL     1       5.747   2.894  16.082  0.00  0.00    +0.000 OA
ATOM     13  H   UNL     1       6.454   2.804  15.399  0.00  0.00    +0.000 HD
ENDBRANCH  10  12
ENDBRANCH   1  10
BRANCH   6  14
ATOM     14  O   UNL     1       1.243   1.420  18.766  0.00  0.00    +0.000 OA
ATOM     15  H   UNL     1       1.046   0.804  19.500  0.00  0.00    +0.000 HD
ENDBRANCH   6  14
BRANCH   7  16
ATOM     16  O   UNL     1       3.495   2.148  17.477  0.00  0.00    +0.000 OA
ATOM     17  H   UNL     1       3.185   2.898  16.940  0.00  0.00    +0.000 HD
ENDBRANCH   7  16
BRANCH   1  18
ATOM     18  C   UNL     1       6.174   5.971  17.336  0.00  0.00    +0.000 C 
BRANCH  18  19
ATOM     19  CA  UNL     1       7.616   5.613  17.749  0.00  0.00    +0.000 C 
BRANCH  19  20
ATOM     20  N   UNL     1       8.026   4.192  17.568  0.00  0.00    +0.000 NA
ATOM     21  H1  UNL     1       8.933   4.054  18.030  0.00  0.00    +0.000 HD
ATOM     22  H2  UNL     1       8.226   3.970  16.586  0.00  0.00    +0.000 HD
ENDBRANCH  19  20
BRANCH  19  23
ATOM     23  C   UNL     1       7.940   6.063  19.183  0.00  0.00    +0.000 C 
ATOM     24  O   UNL     1       7.625   5.456  20.195  0.00  0.00    +0.000 OA
BRANCH  23  25
ATOM     25  OXT UNL     1       8.605   7.247  19.193  0.00  0.00    +0.000 OA
ATOM     26  HXT UNL     1       8.815   7.452  18.249  0.00  0.00    +0.000 HD
ENDBRANCH  23  25
ENDBRANCH  19  23
ENDBRANCH  18  19
ENDBRANCH   1  18
TORSDOF 9
ENDMDL
MODEL 8
REMARK VINA RESULT:      -7.1      1.753      2.755
REMARK  Name = 
REMARK  9 active torsions:
REMARK  status: ('A' for Active; 'I' for Inactive)
REMARK    1  A    between atoms: N_1  and  CA_2
REMARK    2  A    between atoms: CA_2  and  C_3
REMARK    3  A    between atoms: CA_2  and  C_18
REMARK    4  A    between atoms: C_3  and  C_4
REMARK    5  A    between atoms: C_4  and  C_5
REMARK    6  A    between atoms: C_5  and  O_7
REMARK    7  A    between atoms: C_12  and  O_13
REMARK    8  A    between atoms: C_14  and  O_15
REMARK    9  A    between atoms: C_18  and  OXT_20
REMARK                            x       y       z     vdW  Elec       q    Type
REMARK                         _______ _______ _______ _____ _____    ______ ____
ROOT
ATOM      1  C   UNL     1       4.334   5.609  18.167  0.00  0.00    +0.000 C 
ATOM      2  C   UNL     1       4.207   4.848  19.496  0.00  0.00    +0.000 C 
ATOM      3  C   UNL     1       4.264   3.396  19.078  0.00  0.00    +0.000 C 
ATOM      4  O   UNL     1       3.703   2.481  20.002  0.00  0.00    +0.000 OA
ATOM      5  C   UNL     1       2.282   2.440  20.064  0.00  0.00    +0.000 C 
ATOM      6  C   UNL     1       1.649   2.177  18.698  0.00  0.00    +0.000 C 
ATOM      7  C   UNL     1       2.120   3.213  17.674  0.00  0.00    +0.000 C 
ATOM      8  C   UNL     1       3.646   3.403  17.691  0.00  0.00    +0.000 C 
ATOM      9  O   UNL     1       4.004   4.677  17.110  0.00  0.00    +0.000 OA
ENDROOT
BRANCH   1  10
ATOM     10  C   UNL     1       3.322   6.758  18.146  0.00  0.00    +0.000 C 
ATOM     11  O   UNL     1       2.433   6.914  18.970  0.00  0.00    +0.000 OA
BRANCH  10  12
ATOM     12  O   UNL     1       3.590   7.665  17.177  0.00  0.00    +0.000 OA
ATOM     13  H   UNL     1       4.523   7.974  17.275  0.00  0.00    +0.000 HD
ENDBRANCH  10  12
ENDBRANCH   1  10
BRANCH   6  14
ATOM     14  O   UNL     1       0.224   2.219  18.817  0.00  0.00    +0.000 OA
ATOM     15  H   UNL     1      -0.046   1.484  19.404  0.00  0.00    +0.000 HD
ENDBRANCH   6  14
BRANCH   7  16
ATOM     16  O   UNL     1       1.416   4.451  17.890  0.00  0.00    +0.000 OA
ATOM     17  H   UNL     1       0.557   4.280  18.315  0.00  0.00    +0.000 HD
ENDBRANCH   7  16
BRANCH   1  18
ATOM     18  C   UNL     1       5.746   6.199  17.960  0.00  0.00    +0.000 C 
BRANCH  18  19
ATOM     19  CA  UNL     1       6.472   5.911  16.630  0.00  0.00    +0.000 C 
BRANCH  19  20
ATOM     20  N   UNL     1       5.680   6.105  15.384  0.00  0.00    +0.000 NA
ATOM     21  H1  UNL     1       5.500   5.184  14.966  0.00  0.00    +0.000 HD
ATOM     22  H2  UNL     1       6.217   6.593  14.658  0.00  0.00    +0.000 HD
ENDBRANCH  19  20
BRANCH  19  23
ATOM     23  C   UNL     1       7.124   4.518  16.613  0.00  0.00    +0.000 C 
ATOM     24  O   UNL     1       8.142   4.213  17.214  0.00  0.00    +0.000 OA
BRANCH  23  25
ATOM     25  OXT UNL     1       6.436   3.659  15.817  0.00  0.00    +0.000 OA
ATOM     26  HXT UNL     1       6.394   4.085  14.925  0.00  0.00    +0.000 HD
ENDBRANCH  23  25
ENDBRANCH  19  23
ENDBRANCH  18  19
ENDBRANCH   1  18
TORSDOF 9
ENDMDL
MODEL 9
REMARK VINA RESULT:      -7.1      2.490      5.994
REMARK  Name = 
REMARK  9 active torsions:
REMARK  status: ('A' for Active; 'I' for Inactive)
REMARK    1  A    between atoms: N_1  and  CA_2
REMARK    2  A    between atoms: CA_2  and  C_3
REMARK    3  A    between atoms: CA_2  and  C_18
REMARK    4  A    between atoms: C_3  and  C_4
REMARK    5  A    between atoms: C_4  and  C_5
REMARK    6  A    between atoms: C_5  and  O_7
REMARK    7  A    between atoms: C_12  and  O_13
REMARK    8  A    between atoms: C_14  and  O_15
REMARK    9  A    between atoms: C_18  and  OXT_20
REMARK                            x       y       z     vdW  Elec       q    Type
REMARK                         _______ _______ _______ _____ _____    ______ ____
ROOT
ATOM      1  C   UNL     1       3.789   3.945  18.828  0.00  0.00    +0.000 C 
ATOM      2  C   UNL     1       5.071   4.709  19.191  0.00  0.00    +0.000 C 
ATOM      3  C   UNL     1       5.061   5.886  18.241  0.00  0.00    +0.000 C 
ATOM      4  O   UNL     1       6.323   6.487  18.014  0.00  0.00    +0.000 OA
ATOM      5  C   UNL     1       7.218   5.772  17.169  0.00  0.00    +0.000 C 
ATOM      6  C   UNL     1       6.599   5.449  15.810  0.00  0.00    +0.000 C 
ATOM      7  C   UNL     1       5.283   4.684  15.981  0.00  0.00    +0.000 C 
ATOM      8  C   UNL     1       4.352   5.342  17.014  0.00  0.00    +0.000 C 
ATOM      9  O   UNL     1       3.389   4.385  17.509  0.00  0.00    +0.000 OA
ENDROOT
BRANCH   1  10
ATOM     10  C   UNL     1       4.095   2.445  18.775  0.00  0.00    +0.000 C 
ATOM     11  O   UNL     1       3.663   1.680  17.926  0.00  0.00    +0.000 OA
BRANCH  10  12
ATOM     12  O   UNL     1       5.002   2.069  19.707  0.00  0.00    +0.000 OA
ATOM     13  H   UNL     1       4.605   1.366  20.277  0.00  0.00    +0.000 HD
ENDBRANCH  10  12
ENDBRANCH   1  10
BRANCH   6  14
ATOM     14  O   UNL     1       7.520   4.672  15.039  0.00  0.00    +0.000 OA
ATOM     15  H   UNL     1       7.078   4.436  14.199  0.00  0.00    +0.000 HD
ENDBRANCH   6  14
BRANCH   7  16
ATOM     16  O   UNL     1       5.570   3.311  16.306  0.00  0.00    +0.000 OA
ATOM     17  H   UNL     1       6.519   3.199  16.490  0.00  0.00    +0.000 HD
ENDBRANCH   7  16
BRANCH   1  18
ATOM     18  C   UNL     1       2.657   4.176  19.853  0.00  0.00    +0.000 C 
BRANCH  18  19
ATOM     19  CA  UNL     1       1.736   2.990  20.207  0.00  0.00    +0.000 C 
BRANCH  19  20
ATOM     20  N   UNL     1       0.293   3.145  19.873  0.00  0.00    +0.000 NA
ATOM     21  H1  UNL     1      -0.149   3.718  20.602  0.00  0.00    +0.000 HD
ATOM     22  H2  UNL     1      -0.215   2.255  19.932  0.00  0.00    +0.000 HD
ENDBRANCH  19  20
BRANCH  19  23
ATOM     23  C   UNL     1       1.880   2.560  21.676  0.00  0.00    +0.000 C 
ATOM     24  O   UNL     1       0.962   2.490  22.479  0.00  0.00    +0.000 OA
BRANCH  23  25
ATOM     25  OXT UNL     1       3.173   2.287  21.989  0.00  0.00    +0.000 OA
ATOM     26  HXT UNL     1       3.661   3.144  21.911  0.00  0.00    +0.000 HD
ENDBRANCH  23  25
ENDBRANCH  19  23
ENDBRANCH  18  19
ENDBRANCH   1  18
TORSDOF 9
ENDMDL
