MODEL 1
REMARK VINA RESULT:      -6.6      0.000      0.000
REMARK  Name = 
REMARK  9 active torsions:
REMARK  status: ('A' for Active; 'I' for Inactive)
REMARK    1  A    between atoms: C_1  and  O_2
REMARK    2  A    between atoms: O_2  and  C_3
REMARK    3  A    between atoms: C_3  and  C_5
REMARK    4  A    between atoms: C_7  and  O_8
REMARK    5  A    between atoms: O_8  and  C_9
REMARK    6  A    between atoms: C_9  and  C_10
REMARK    7  A    between atoms: C_15  and  C_16
REMARK    8  A    between atoms: C_23  and  C_24
REMARK    9  A    between atoms: C_30  and  C_31
REMARK                            x       y       z     vdW  Elec       q    Type
REMARK                         _______ _______ _______ _____ _____    ______ ____
ROOT
ATOM      1  C   UNL     1      -0.301   9.715  20.461  0.00  0.00    +0.000 C 
ATOM      2  C   UNL     1      -0.309   9.694  18.911  0.00  0.00    +0.000 C 
ATOM      3  C   UNL     1      -1.546  10.355  18.305  0.00  0.00    +0.000 C 
ATOM      4  C   UNL     1      -1.666  11.761  18.901  0.00  0.00    +0.000 C 
ATOM      5  O   UNL     1      -1.716  12.773  18.208  0.00  0.00    +0.000 OA
ATOM      6  C   UNL     1      -1.758  11.782  20.438  0.00  0.00    +0.000 C 
ATOM      7  C   UNL     1      -0.458  11.174  21.059  0.00  0.00    +0.000 C 
ATOM      8  C   UNL     1       0.794  12.015  20.728  0.00  0.00    +0.000 C 
ATOM      9  C   UNL     1      -0.642  11.100  22.604  0.00  0.00    +0.000 C 
ATOM     10  C   UNL     1      -1.190  12.382  23.252  0.00  0.00    +0.000 C 
ATOM     11  C   UNL     1      -2.515  12.808  22.601  0.00  0.00    +0.000 C 
ATOM     12  C   UNL     1      -3.196  13.952  23.313  0.00  0.00    +0.000 C 
ATOM     13  O   UNL     1      -2.859  14.350  24.426  0.00  0.00    +0.000 OA
ATOM     14  O   UNL     1      -4.309  14.435  22.707  0.00  0.00    +0.000 OA
ATOM     15  C   UNL     1      -4.609  14.321  21.289  0.00  0.00    +0.000 C 
ATOM     16  C   UNL     1      -3.781  13.263  20.559  0.00  0.00    +0.000 C 
ATOM     17  C   UNL     1      -2.349  13.081  21.093  0.00  0.00    +0.000 C 
ATOM     18  C   UNL     1      -1.548  14.378  20.835  0.00  0.00    +0.000 C 
ENDROOT
BRANCH  15  19
ATOM     19  C   UNL     1      -6.121  14.018  21.152  0.00  0.00    +0.000 C 
ATOM     20  C   UNL     1      -6.910  14.099  22.450  0.00  0.00    +0.000 C 
ATOM     21  C   UNL     1      -6.871  12.691  23.008  0.00  0.00    +0.000 C 
ATOM     22  O   UNL     1      -6.451  11.821  21.953  0.00  0.00    +0.000 OA
ATOM     23  C   UNL     1      -6.379  12.578  20.739  0.00  0.00    +0.000 C 
ENDBRANCH  15  19
BRANCH   1  24
ATOM     24  C   UNL     1       0.924   8.942  20.953  0.00  0.00    +0.000 C 
ATOM     25  O   UNL     1       1.217   8.782  22.129  0.00  0.00    +0.000 OA
BRANCH  24  27
ATOM     26  C   UNL     1       2.123   7.149  20.013  0.00  0.00    +0.000 C 
ATOM     27  O   UNL     1       1.666   8.501  19.898  0.00  0.00    +0.000 OA
ENDBRANCH  24  27
ENDBRANCH   1  24
BRANCH   3  28
ATOM     28  O   UNL     1      -1.414  10.379  16.875  0.00  0.00    +0.000 OA
BRANCH  28  29
ATOM     29  C   UNL     1      -2.528  10.074  16.157  0.00  0.00    +0.000 C 
ATOM     30  C   UNL     1      -3.686   9.702  17.038  0.00  0.00    +0.000 C 
ATOM     31  O   UNL     1      -2.610  10.119  14.935  0.00  0.00    +0.000 OA
ENDBRANCH  28  29
ENDBRANCH   3  28
TORSDOF 5
ENDMDL
MODEL 2
REMARK VINA RESULT:      -6.3      0.909      1.249
REMARK  Name = 
REMARK  9 active torsions:
REMARK  status: ('A' for Active; 'I' for Inactive)
REMARK    1  A    between atoms: C_1  and  O_2
REMARK    2  A    between atoms: O_2  and  C_3
REMARK    3  A    between atoms: C_3  and  C_5
REMARK    4  A    between atoms: C_7  and  O_8
REMARK    5  A    between atoms: O_8  and  C_9
REMARK    6  A    between atoms: C_9  and  C_10
REMARK    7  A    between atoms: C_15  and  C_16
REMARK    8  A    between atoms: C_23  and  C_24
REMARK    9  A    between atoms: C_30  and  C_31
REMARK                            x       y       z     vdW  Elec       q    Type
REMARK                         _______ _______ _______ _____ _____    ______ ____
ROOT
ATOM      1  C   UNL     1      -0.277   9.722  20.475  0.00  0.00    +0.000 C 
ATOM      2  C   UNL     1      -0.285   9.767  18.925  0.00  0.00    +0.000 C 
ATOM      3  C   UNL     1      -1.590  10.307  18.344  0.00  0.00    +0.000 C 
ATOM      4  C   UNL     1      -1.869  11.663  19.000  0.00  0.00    +0.000 C 
ATOM      5  O   UNL     1      -2.037  12.691  18.351  0.00  0.00    +0.000 OA
ATOM      6  C   UNL     1      -1.961  11.607  20.536  0.00  0.00    +0.000 C 
ATOM      7  C   UNL     1      -0.599  11.125  21.135  0.00  0.00    +0.000 C 
ATOM      8  C   UNL     1       0.548  12.118  20.844  0.00  0.00    +0.000 C 
ATOM      9  C   UNL     1      -0.771  10.964  22.674  0.00  0.00    +0.000 C 
ATOM     10  C   UNL     1      -1.461  12.145  23.375  0.00  0.00    +0.000 C 
ATOM     11  C   UNL     1      -2.828  12.444  22.738  0.00  0.00    +0.000 C 
ATOM     12  C   UNL     1      -3.635  13.471  23.497  0.00  0.00    +0.000 C 
ATOM     13  O   UNL     1      -3.344  13.857  24.627  0.00  0.00    +0.000 OA
ATOM     14  O   UNL     1      -4.797  13.848  22.908  0.00  0.00    +0.000 OA
ATOM     15  C   UNL     1      -5.084  13.762  21.485  0.00  0.00    +0.000 C 
ATOM     16  C   UNL     1      -4.141  12.839  20.713  0.00  0.00    +0.000 C 
ATOM     17  C   UNL     1      -2.697  12.800  21.244  0.00  0.00    +0.000 C 
ATOM     18  C   UNL     1      -2.051  14.190  21.045  0.00  0.00    +0.000 C 
ENDROOT
BRANCH  15  19
ATOM     19  C   UNL     1      -6.552  13.293  21.330  0.00  0.00    +0.000 C 
ATOM     20  C   UNL     1      -6.798  12.333  20.176  0.00  0.00    +0.000 C 
ATOM     21  C   UNL     1      -7.159  13.229  19.008  0.00  0.00    +0.000 C 
ATOM     22  O   UNL     1      -7.474  14.520  19.535  0.00  0.00    +0.000 OA
ATOM     23  C   UNL     1      -7.481  14.439  20.966  0.00  0.00    +0.000 C 
ENDBRANCH  15  19
BRANCH   1  24
ATOM     24  C   UNL     1       1.030   9.074  20.937  0.00  0.00    +0.000 C 
ATOM     25  O   UNL     1       1.396   9.007  22.101  0.00  0.00    +0.000 OA
BRANCH  24  27
ATOM     26  C   UNL     1       2.117   7.246  19.930  0.00  0.00    +0.000 C 
ATOM     27  O   UNL     1       1.747   8.628  19.867  0.00  0.00    +0.000 OA
ENDBRANCH  24  27
ENDBRANCH   1  24
BRANCH   3  28
ATOM     28  O   UNL     1      -1.464  10.408  16.917  0.00  0.00    +0.000 OA
BRANCH  28  29
ATOM     29  C   UNL     1      -2.561  10.077  16.185  0.00  0.00    +0.000 C 
ATOM     30  C   UNL     1      -3.732   9.713  17.053  0.00  0.00    +0.000 C 
ATOM     31  O   UNL     1      -2.620  10.094  14.961  0.00  0.00    +0.000 OA
ENDBRANCH  28  29
ENDBRANCH   3  28
TORSDOF 5
ENDMDL
MODEL 3
REMARK VINA RESULT:      -6.0      1.087      1.329
REMARK  Name = 
REMARK  9 active torsions:
REMARK  status: ('A' for Active; 'I' for Inactive)
REMARK    1  A    between atoms: C_1  and  O_2
REMARK    2  A    between atoms: O_2  and  C_3
REMARK    3  A    between atoms: C_3  and  C_5
REMARK    4  A    between atoms: C_7  and  O_8
REMARK    5  A    between atoms: O_8  and  C_9
REMARK    6  A    between atoms: C_9  and  C_10
REMARK    7  A    between atoms: C_15  and  C_16
REMARK    8  A    between atoms: C_23  and  C_24
REMARK    9  A    between atoms: C_30  and  C_31
REMARK                            x       y       z     vdW  Elec       q    Type
REMARK                         _______ _______ _______ _____ _____    ______ ____
ROOT
ATOM      1  C   UNL     1      -0.262   9.633  19.914  0.00  0.00    +0.000 C 
ATOM      2  C   UNL     1      -0.438   9.719  18.376  0.00  0.00    +0.000 C 
ATOM      3  C   UNL     1      -1.803  10.259  17.954  0.00  0.00    +0.000 C 
ATOM      4  C   UNL     1      -2.022  11.594  18.673  0.00  0.00    +0.000 C 
ATOM      5  O   UNL     1      -2.267  12.637  18.074  0.00  0.00    +0.000 OA
ATOM      6  C   UNL     1      -1.946  11.496  20.208  0.00  0.00    +0.000 C 
ATOM      7  C   UNL     1      -0.523  11.015  20.643  0.00  0.00    +0.000 C 
ATOM      8  C   UNL     1       0.577  12.028  20.258  0.00  0.00    +0.000 C 
ATOM      9  C   UNL     1      -0.527  10.812  22.187  0.00  0.00    +0.000 C 
ATOM     10  C   UNL     1      -1.147  11.966  22.990  0.00  0.00    +0.000 C 
ATOM     11  C   UNL     1      -2.577  12.266  22.513  0.00  0.00    +0.000 C 
ATOM     12  C   UNL     1      -3.306  13.263  23.382  0.00  0.00    +0.000 C 
ATOM     13  O   UNL     1      -2.898  13.622  24.484  0.00  0.00    +0.000 OA
ATOM     14  O   UNL     1      -4.529  13.642  22.932  0.00  0.00    +0.000 OA
ATOM     15  C   UNL     1      -4.967  13.590  21.547  0.00  0.00    +0.000 C 
ATOM     16  C   UNL     1      -4.105  12.698  20.653  0.00  0.00    +0.000 C 
ATOM     17  C   UNL     1      -2.611  12.662  21.023  0.00  0.00    +0.000 C 
ATOM     18  C   UNL     1      -2.002  14.065  20.794  0.00  0.00    +0.000 C 
ENDROOT
BRANCH  15  19
ATOM     19  C   UNL     1      -6.438  13.108  21.538  0.00  0.00    +0.000 C 
ATOM     20  C   UNL     1      -7.315  13.748  20.472  0.00  0.00    +0.000 C 
ATOM     21  C   UNL     1      -7.915  14.963  21.152  0.00  0.00    +0.000 C 
ATOM     22  O   UNL     1      -7.719  14.809  22.560  0.00  0.00    +0.000 OA
ATOM     23  C   UNL     1      -7.176  13.506  22.806  0.00  0.00    +0.000 C 
ENDBRANCH  15  19
BRANCH   1  24
ATOM     24  C   UNL     1       1.092   8.989  20.215  0.00  0.00    +0.000 C 
ATOM     25  O   UNL     1       1.450   8.611  21.321  0.00  0.00    +0.000 OA
BRANCH  24  27
ATOM     26  C   UNL     1       2.415   7.653  18.799  0.00  0.00    +0.000 C 
ATOM     27  O   UNL     1       1.859   8.941  19.089  0.00  0.00    +0.000 OA
ENDBRANCH  24  27
ENDBRANCH   1  24
BRANCH   3  28
ATOM     28  O   UNL     1      -1.833  10.399  16.525  0.00  0.00    +0.000 OA
BRANCH  28  29
ATOM     29  C   UNL     1      -3.050  10.290  15.930  0.00  0.00    +0.000 C 
ATOM     30  C   UNL     1      -2.940  10.019  14.457  0.00  0.00    +0.000 C 
ATOM     31  O   UNL     1      -4.126  10.372  16.512  0.00  0.00    +0.000 OA
ENDBRANCH  28  29
ENDBRANCH   3  28
TORSDOF 5
ENDMDL
MODEL 4
REMARK VINA RESULT:      -6.0      8.156     12.357
REMARK  Name = 
REMARK  9 active torsions:
REMARK  status: ('A' for Active; 'I' for Inactive)
REMARK    1  A    between atoms: C_1  and  O_2
REMARK    2  A    between atoms: O_2  and  C_3
REMARK    3  A    between atoms: C_3  and  C_5
REMARK    4  A    between atoms: C_7  and  O_8
REMARK    5  A    between atoms: O_8  and  C_9
REMARK    6  A    between atoms: C_9  and  C_10
REMARK    7  A    between atoms: C_15  and  C_16
REMARK    8  A    between atoms: C_23  and  C_24
REMARK    9  A    between atoms: C_30  and  C_31
REMARK                            x       y       z     vdW  Elec       q    Type
REMARK                         _______ _______ _______ _____ _____    ______ ____
ROOT
ATOM      1  C   UNL     1       4.781  14.579  20.833  0.00  0.00    +0.000 C 
ATOM      2  C   UNL     1       4.776  14.235  22.344  0.00  0.00    +0.000 C 
ATOM      3  C   UNL     1       6.059  13.550  22.810  0.00  0.00    +0.000 C 
ATOM      4  C   UNL     1       7.241  14.426  22.383  0.00  0.00    +0.000 C 
ATOM      5  O   UNL     1       8.075  14.848  23.178  0.00  0.00    +0.000 OA
ATOM      6  C   UNL     1       7.306  14.689  20.867  0.00  0.00    +0.000 C 
ATOM      7  C   UNL     1       6.026  15.459  20.403  0.00  0.00    +0.000 C 
ATOM      8  C   UNL     1       5.925  16.860  21.043  0.00  0.00    +0.000 C 
ATOM      9  C   UNL     1       6.074  15.596  18.853  0.00  0.00    +0.000 C 
ATOM     10  C   UNL     1       7.419  16.077  18.287  0.00  0.00    +0.000 C 
ATOM     11  C   UNL     1       8.571  15.173  18.753  0.00  0.00    +0.000 C 
ATOM     12  C   UNL     1       9.889  15.483  18.084  0.00  0.00    +0.000 C 
ATOM     13  O   UNL     1       9.992  16.215  17.103  0.00  0.00    +0.000 OA
ATOM     14  O   UNL     1      10.956  14.786  18.550  0.00  0.00    +0.000 OA
ATOM     15  C   UNL     1      11.056  14.189  19.871  0.00  0.00    +0.000 C 
ATOM     16  C   UNL     1       9.716  14.040  20.593  0.00  0.00    +0.000 C 
ATOM     17  C   UNL     1       8.692  15.149  20.289  0.00  0.00    +0.000 C 
ATOM     18  C   UNL     1       9.228  16.492  20.838  0.00  0.00    +0.000 C 
ENDROOT
BRANCH  15  19
ATOM     19  C   UNL     1      11.743  12.810  19.713  0.00  0.00    +0.000 C 
ATOM     20  C   UNL     1      12.038  12.404  18.277  0.00  0.00    +0.000 C 
ATOM     21  C   UNL     1      10.809  11.630  17.841  0.00  0.00    +0.000 C 
ATOM     22  O   UNL     1      10.073  11.291  19.020  0.00  0.00    +0.000 OA
ATOM     23  C   UNL     1      10.846  11.670  20.165  0.00  0.00    +0.000 C 
ENDBRANCH  15  19
BRANCH   1  24
ATOM     24  C   UNL     1       3.417  15.164  20.462  0.00  0.00    +0.000 C 
ATOM     25  O   UNL     1       2.820  16.004  21.120  0.00  0.00    +0.000 OA
BRANCH  24  27
ATOM     26  C   UNL     1       2.044  13.489  19.543  0.00  0.00    +0.000 C 
ATOM     27  O   UNL     1       2.941  14.584  19.325  0.00  0.00    +0.000 OA
ENDBRANCH  24  27
ENDBRANCH   1  24
BRANCH   3  28
ATOM     28  O   UNL     1       6.004  13.366  24.234  0.00  0.00    +0.000 OA
BRANCH  28  29
ATOM     29  C   UNL     1       6.133  12.091  24.687  0.00  0.00    +0.000 C 
ATOM     30  C   UNL     1       7.509  11.540  24.446  0.00  0.00    +0.000 C 
ATOM     31  O   UNL     1       5.252  11.455  25.256  0.00  0.00    +0.000 OA
ENDBRANCH  28  29
ENDBRANCH   3  28
TORSDOF 5
ENDMDL
MODEL 5
REMARK VINA RESULT:      -5.9      8.021     12.348
REMARK  Name = 
REMARK  9 active torsions:
REMARK  status: ('A' for Active; 'I' for Inactive)
REMARK    1  A    between atoms: C_1  and  O_2
REMARK    2  A    between atoms: O_2  and  C_3
REMARK    3  A    between atoms: C_3  and  C_5
REMARK    4  A    between atoms: C_7  and  O_8
REMARK    5  A    between atoms: O_8  and  C_9
REMARK    6  A    between atoms: C_9  and  C_10
REMARK    7  A    between atoms: C_15  and  C_16
REMARK    8  A    between atoms: C_23  and  C_24
REMARK    9  A    between atoms: C_30  and  C_31
REMARK                            x       y       z     vdW  Elec       q    Type
REMARK                         _______ _______ _______ _____ _____    ______ ____
ROOT
ATOM      1  C   UNL     1       4.575  15.020  20.240  0.00  0.00    +0.000 C 
ATOM      2  C   UNL     1       4.299  14.769  21.745  0.00  0.00    +0.000 C 
ATOM      3  C   UNL     1       5.386  13.942  22.427  0.00  0.00    +0.000 C 
ATOM      4  C   UNL     1       6.732  14.620  22.154  0.00  0.00    +0.000 C 
ATOM      5  O   UNL     1       7.493  14.969  23.052  0.00  0.00    +0.000 OA
ATOM      6  C   UNL     1       7.057  14.782  20.658  0.00  0.00    +0.000 C 
ATOM      7  C   UNL     1       5.985  15.692  19.974  0.00  0.00    +0.000 C 
ATOM      8  C   UNL     1       5.996  17.130  20.538  0.00  0.00    +0.000 C 
ATOM      9  C   UNL     1       6.279  15.730  18.446  0.00  0.00    +0.000 C 
ATOM     10  C   UNL     1       7.748  15.988  18.075  0.00  0.00    +0.000 C 
ATOM     11  C   UNL     1       8.675  14.962  18.747  0.00  0.00    +0.000 C 
ATOM     12  C   UNL     1      10.108  15.047  18.277  0.00  0.00    +0.000 C 
ATOM     13  O   UNL     1      10.459  15.699  17.297  0.00  0.00    +0.000 OA
ATOM     14  O   UNL     1      10.982  14.238  18.927  0.00  0.00    +0.000 OA
ATOM     15  C   UNL     1      10.800  13.712  20.270  0.00  0.00    +0.000 C 
ATOM     16  C   UNL     1       9.361  13.792  20.782  0.00  0.00    +0.000 C 
ATOM     17  C   UNL     1       8.565  15.012  20.284  0.00  0.00    +0.000 C 
ATOM     18  C   UNL     1       9.204  16.298  20.858  0.00  0.00    +0.000 C 
ENDROOT
BRANCH  15  19
ATOM     19  C   UNL     1      11.295  12.244  20.270  0.00  0.00    +0.000 C 
ATOM     20  C   UNL     1      12.047  11.823  19.017  0.00  0.00    +0.000 C 
ATOM     21  C   UNL     1      10.977  11.263  18.102  0.00  0.00    +0.000 C 
ATOM     22  O   UNL     1       9.812  11.024  18.896  0.00  0.00    +0.000 OA
ATOM     23  C   UNL     1      10.143  11.254  20.271  0.00  0.00    +0.000 C 
ENDBRANCH  15  19
BRANCH   1  24
ATOM     24  C   UNL     1       3.380  15.765  19.642  0.00  0.00    +0.000 C 
ATOM     25  O   UNL     1       3.092  15.774  18.454  0.00  0.00    +0.000 OA
BRANCH  24  27
ATOM     26  C   UNL     1       1.904  17.532  20.127  0.00  0.00    +0.000 C 
ATOM     27  O   UNL     1       2.714  16.455  20.610  0.00  0.00    +0.000 OA
ENDBRANCH  24  27
ENDBRANCH   1  24
BRANCH   3  28
ATOM     28  O   UNL     1       5.097  13.852  23.832  0.00  0.00    +0.000 OA
BRANCH  28  29
ATOM     29  C   UNL     1       5.552  12.744  24.475  0.00  0.00    +0.000 C 
ATOM     30  C   UNL     1       5.936  13.033  25.898  0.00  0.00    +0.000 C 
ATOM     31  O   UNL     1       5.623  11.624  23.981  0.00  0.00    +0.000 OA
ENDBRANCH  28  29
ENDBRANCH   3  28
TORSDOF 5
ENDMDL
MODEL 6
REMARK VINA RESULT:      -5.9      2.969      6.183
REMARK  Name = 
REMARK  9 active torsions:
REMARK  status: ('A' for Active; 'I' for Inactive)
REMARK    1  A    between atoms: C_1  and  O_2
REMARK    2  A    between atoms: O_2  and  C_3
REMARK    3  A    between atoms: C_3  and  C_5
REMARK    4  A    between atoms: C_7  and  O_8
REMARK    5  A    between atoms: O_8  and  C_9
REMARK    6  A    between atoms: C_9  and  C_10
REMARK    7  A    between atoms: C_15  and  C_16
REMARK    8  A    between atoms: C_23  and  C_24
REMARK    9  A    between atoms: C_30  and  C_31
REMARK                            x       y       z     vdW  Elec       q    Type
REMARK                         _______ _______ _______ _____ _____    ______ ____
ROOT
ATOM      1  C   UNL     1      -4.842  13.490  22.283  0.00  0.00    +0.000 C 
ATOM      2  C   UNL     1      -5.266  12.502  21.166  0.00  0.00    +0.000 C 
ATOM      3  C   UNL     1      -4.483  12.688  19.868  0.00  0.00    +0.000 C 
ATOM      4  C   UNL     1      -2.991  12.629  20.207  0.00  0.00    +0.000 C 
ATOM      5  O   UNL     1      -2.220  11.838  19.672  0.00  0.00    +0.000 OA
ATOM      6  C   UNL     1      -2.545  13.676  21.244  0.00  0.00    +0.000 C 
ATOM      7  C   UNL     1      -3.291  13.438  22.598  0.00  0.00    +0.000 C 
ATOM      8  C   UNL     1      -2.929  12.077  23.231  0.00  0.00    +0.000 C 
ATOM      9  C   UNL     1      -2.906  14.587  23.576  0.00  0.00    +0.000 C 
ATOM     10  C   UNL     1      -1.402  14.893  23.655  0.00  0.00    +0.000 C 
ATOM     11  C   UNL     1      -0.825  15.196  22.263  0.00  0.00    +0.000 C 
ATOM     12  C   UNL     1       0.603  15.684  22.295  0.00  0.00    +0.000 C 
ATOM     13  O   UNL     1       1.175  16.030  23.326  0.00  0.00    +0.000 OA
ATOM     14  O   UNL     1       1.188  15.853  21.082  0.00  0.00    +0.000 OA
ATOM     15  C   UNL     1       0.790  15.179  19.858  0.00  0.00    +0.000 C 
ATOM     16  C   UNL     1      -0.603  14.550  19.915  0.00  0.00    +0.000 C 
ATOM     17  C   UNL     1      -1.011  14.009  21.297  0.00  0.00    +0.000 C 
ATOM     18  C   UNL     1      -0.087  12.825  21.667  0.00  0.00    +0.000 C 
ENDROOT
BRANCH  15  19
ATOM     19  C   UNL     1       0.873  16.210  18.706  0.00  0.00    +0.000 C 
ATOM     20  C   UNL     1       1.614  17.494  19.049  0.00  0.00    +0.000 C 
ATOM     21  C   UNL     1       0.535  18.430  19.556  0.00  0.00    +0.000 C 
ATOM     22  O   UNL     1      -0.729  17.882  19.170  0.00  0.00    +0.000 OA
ATOM     23  C   UNL     1      -0.495  16.750  18.324  0.00  0.00    +0.000 C 
ENDBRANCH  15  19
BRANCH   1  24
ATOM     24  C   UNL     1      -5.756  13.281  23.492  0.00  0.00    +0.000 C 
ATOM     25  O   UNL     1      -6.061  12.188  23.949  0.00  0.00    +0.000 OA
BRANCH  24  27
ATOM     26  C   UNL     1      -6.789  15.325  22.953  0.00  0.00    +0.000 C 
ATOM     27  O   UNL     1      -6.218  14.476  23.955  0.00  0.00    +0.000 OA
ENDBRANCH  24  27
ENDBRANCH   1  24
BRANCH   3  28
ATOM     28  O   UNL     1      -4.871  11.667  18.934  0.00  0.00    +0.000 OA
BRANCH  28  29
ATOM     29  C   UNL     1      -6.097  11.800  18.363  0.00  0.00    +0.000 C 
ATOM     30  C   UNL     1      -6.255  13.118  17.661  0.00  0.00    +0.000 C 
ATOM     31  O   UNL     1      -6.976  10.945  18.381  0.00  0.00    +0.000 OA
ENDBRANCH  28  29
ENDBRANCH   3  28
TORSDOF 5
ENDMDL
MODEL 7
REMARK VINA RESULT:      -5.8      3.078      6.466
REMARK  Name = 
REMARK  9 active torsions:
REMARK  status: ('A' for Active; 'I' for Inactive)
REMARK    1  A    between atoms: C_1  and  O_2
REMARK    2  A    between atoms: O_2  and  C_3
REMARK    3  A    between atoms: C_3  and  C_5
REMARK    4  A    between atoms: C_7  and  O_8
REMARK    5  A    between atoms: O_8  and  C_9
REMARK    6  A    between atoms: C_9  and  C_10
REMARK    7  A    between atoms: C_15  and  C_16
REMARK    8  A    between atoms: C_23  and  C_24
REMARK    9  A    between atoms: C_30  and  C_31
REMARK                            x       y       z     vdW  Elec       q    Type
REMARK                         _______ _______ _______ _____ _____    ______ ____
ROOT
ATOM      1  C   UNL     1      -4.484  13.621  21.981  0.00  0.00    +0.000 C 
ATOM      2  C   UNL     1      -4.909  12.589  20.905  0.00  0.00    +0.000 C 
ATOM      3  C   UNL     1      -4.049  12.645  19.644  0.00  0.00    +0.000 C 
ATOM      4  C   UNL     1      -2.583  12.520  20.070  0.00  0.00    +0.000 C 
ATOM      5  O   UNL     1      -1.835  11.653  19.629  0.00  0.00    +0.000 OA
ATOM      6  C   UNL     1      -2.128  13.604  21.064  0.00  0.00    +0.000 C 
ATOM      7  C   UNL     1      -2.958  13.499  22.386  0.00  0.00    +0.000 C 
ATOM      8  C   UNL     1      -2.715  12.162  23.121  0.00  0.00    +0.000 C 
ATOM      9  C   UNL     1      -2.555  14.684  23.312  0.00  0.00    +0.000 C 
ATOM     10  C   UNL     1      -1.041  14.906  23.457  0.00  0.00    +0.000 C 
ATOM     11  C   UNL     1      -0.374  15.084  22.084  0.00  0.00    +0.000 C 
ATOM     12  C   UNL     1       1.078  15.489  22.166  0.00  0.00    +0.000 C 
ATOM     13  O   UNL     1       1.615  15.867  23.205  0.00  0.00    +0.000 OA
ATOM     14  O   UNL     1       1.735  15.545  20.980  0.00  0.00    +0.000 OA
ATOM     15  C   UNL     1       1.362  14.817  19.779  0.00  0.00    +0.000 C 
ATOM     16  C   UNL     1      -0.069  14.275  19.795  0.00  0.00    +0.000 C 
ATOM     17  C   UNL     1      -0.582  13.850  21.183  0.00  0.00    +0.000 C 
ATOM     18  C   UNL     1       0.247  12.641  21.676  0.00  0.00    +0.000 C 
ENDROOT
BRANCH  15  19
ATOM     19  C   UNL     1       1.569  15.765  18.572  0.00  0.00    +0.000 C 
ATOM     20  C   UNL     1       2.868  15.556  17.810  0.00  0.00    +0.000 C 
ATOM     21  C   UNL     1       3.854  16.495  18.475  0.00  0.00    +0.000 C 
ATOM     22  O   UNL     1       3.102  17.423  19.263  0.00  0.00    +0.000 OA
ATOM     23  C   UNL     1       1.708  17.216  19.004  0.00  0.00    +0.000 C 
ENDBRANCH  15  19
BRANCH   1  24
ATOM     24  C   UNL     1      -5.471  13.543  23.147  0.00  0.00    +0.000 C 
ATOM     25  O   UNL     1      -5.624  14.420  23.986  0.00  0.00    +0.000 OA
BRANCH  24  27
ATOM     26  C   UNL     1      -7.439  12.377  23.699  0.00  0.00    +0.000 C 
ATOM     27  O   UNL     1      -6.118  12.344  23.148  0.00  0.00    +0.000 OA
ENDBRANCH  24  27
ENDBRANCH   1  24
BRANCH   3  28
ATOM     28  O   UNL     1      -4.449  11.589  18.755  0.00  0.00    +0.000 OA
BRANCH  28  29
ATOM     29  C   UNL     1      -5.583  11.799  18.034  0.00  0.00    +0.000 C 
ATOM     30  C   UNL     1      -6.668  10.824  18.388  0.00  0.00    +0.000 C 
ATOM     31  O   UNL     1      -5.734  12.693  17.208  0.00  0.00    +0.000 OA
ENDBRANCH  28  29
ENDBRANCH   3  28
TORSDOF 5
ENDMDL
MODEL 8
REMARK VINA RESULT:      -5.8      3.438      6.997
REMARK  Name = 
REMARK  9 active torsions:
REMARK  status: ('A' for Active; 'I' for Inactive)
REMARK    1  A    between atoms: C_1  and  O_2
REMARK    2  A    between atoms: O_2  and  C_3
REMARK    3  A    between atoms: C_3  and  C_5
REMARK    4  A    between atoms: C_7  and  O_8
REMARK    5  A    between atoms: O_8  and  C_9
REMARK    6  A    between atoms: C_9  and  C_10
REMARK    7  A    between atoms: C_15  and  C_16
REMARK    8  A    between atoms: C_23  and  C_24
REMARK    9  A    between atoms: C_30  and  C_31
REMARK                            x       y       z     vdW  Elec       q    Type
REMARK                         _______ _______ _______ _____ _____    ______ ____
ROOT
ATOM      1  C   UNL     1      -0.727  10.798  18.285  0.00  0.00    +0.000 C 
ATOM      2  C   UNL     1      -0.348   9.525  19.084  0.00  0.00    +0.000 C 
ATOM      3  C   UNL     1       1.012   9.628  19.772  0.00  0.00    +0.000 C 
ATOM      4  C   UNL     1       1.014  10.906  20.617  0.00  0.00    +0.000 C 
ATOM      5  O   UNL     1       1.251  10.905  21.821  0.00  0.00    +0.000 OA
ATOM      6  C   UNL     1       0.735  12.187  19.810  0.00  0.00    +0.000 C 
ATOM      7  C   UNL     1      -0.689  12.114  19.166  0.00  0.00    +0.000 C 
ATOM      8  C   UNL     1      -1.807  12.067  20.230  0.00  0.00    +0.000 C 
ATOM      9  C   UNL     1      -0.882  13.367  18.263  0.00  0.00    +0.000 C 
ATOM     10  C   UNL     1      -0.479  14.701  18.911  0.00  0.00    +0.000 C 
ATOM     11  C   UNL     1       0.972  14.656  19.415  0.00  0.00    +0.000 C 
ATOM     12  C   UNL     1       1.486  15.992  19.895  0.00  0.00    +0.000 C 
ATOM     13  O   UNL     1       0.900  17.053  19.691  0.00  0.00    +0.000 OA
ATOM     14  O   UNL     1       2.722  15.974  20.454  0.00  0.00    +0.000 OA
ATOM     15  C   UNL     1       3.351  14.813  21.062  0.00  0.00    +0.000 C 
ATOM     16  C   UNL     1       2.701  13.481  20.685  0.00  0.00    +0.000 C 
ATOM     17  C   UNL     1       1.179  13.545  20.463  0.00  0.00    +0.000 C 
ATOM     18  C   UNL     1       0.491  13.893  21.804  0.00  0.00    +0.000 C 
ENDROOT
BRANCH  15  19
ATOM     19  C   UNL     1       4.846  14.822  20.656  0.00  0.00    +0.000 C 
ATOM     20  C   UNL     1       5.825  14.772  21.819  0.00  0.00    +0.000 C 
ATOM     21  C   UNL     1       6.100  16.226  22.146  0.00  0.00    +0.000 C 
ATOM     22  O   UNL     1       5.644  17.011  21.040  0.00  0.00    +0.000 OA
ATOM     23  C   UNL     1       5.247  16.126  19.986  0.00  0.00    +0.000 C 
ENDBRANCH  15  19
BRANCH   1  24
ATOM     24  C   UNL     1      -2.050  10.543  17.561  0.00  0.00    +0.000 C 
ATOM     25  O   UNL     1      -2.916   9.772  17.949  0.00  0.00    +0.000 OA
BRANCH  24  27
ATOM     26  C   UNL     1      -2.903  10.662  15.371  0.00  0.00    +0.000 C 
ATOM     27  O   UNL     1      -2.105  11.256  16.401  0.00  0.00    +0.000 OA
ENDBRANCH  24  27
ENDBRANCH   1  24
BRANCH   3  28
ATOM     28  O   UNL     1       1.228   8.450  20.567  0.00  0.00    +0.000 OA
BRANCH  28  29
ATOM     29  C   UNL     1       1.923   7.441  19.979  0.00  0.00    +0.000 C 
ATOM     30  C   UNL     1       1.727   6.131  20.686  0.00  0.00    +0.000 C 
ATOM     31  O   UNL     1       2.613   7.557  18.972  0.00  0.00    +0.000 OA
ENDBRANCH  28  29
ENDBRANCH   3  28
TORSDOF 5
ENDMDL
MODEL 9
REMARK VINA RESULT:      -5.8      2.308      7.071
REMARK  Name = 
REMARK  9 active torsions:
REMARK  status: ('A' for Active; 'I' for Inactive)
REMARK    1  A    between atoms: C_1  and  O_2
REMARK    2  A    between atoms: O_2  and  C_3
REMARK    3  A    between atoms: C_3  and  C_5
REMARK    4  A    between atoms: C_7  and  O_8
REMARK    5  A    between atoms: O_8  and  C_9
REMARK    6  A    between atoms: C_9  and  C_10
REMARK    7  A    between atoms: C_15  and  C_16
REMARK    8  A    between atoms: C_23  and  C_24
REMARK    9  A    between atoms: C_30  and  C_31
REMARK                            x       y       z     vdW  Elec       q    Type
REMARK                         _______ _______ _______ _____ _____    ______ ____
ROOT
ATOM      1  C   UNL     1      -3.617  15.795  22.382  0.00  0.00    +0.000 C 
ATOM      2  C   UNL     1      -4.443  15.046  23.459  0.00  0.00    +0.000 C 
ATOM      3  C   UNL     1      -4.798  13.615  23.059  0.00  0.00    +0.000 C 
ATOM      4  C   UNL     1      -3.499  12.900  22.673  0.00  0.00    +0.000 C 
ATOM      5  O   UNL     1      -3.134  11.856  23.205  0.00  0.00    +0.000 OA
ATOM      6  C   UNL     1      -2.723  13.587  21.534  0.00  0.00    +0.000 C 
ATOM      7  C   UNL     1      -2.294  15.026  21.972  0.00  0.00    +0.000 C 
ATOM      8  C   UNL     1      -1.310  15.002  23.162  0.00  0.00    +0.000 C 
ATOM      9  C   UNL     1      -1.623  15.728  20.755  0.00  0.00    +0.000 C 
ATOM     10  C   UNL     1      -0.573  14.882  20.018  0.00  0.00    +0.000 C 
ATOM     11  C   UNL     1      -1.163  13.536  19.568  0.00  0.00    +0.000 C 
ATOM     12  C   UNL     1      -0.237  12.739  18.680  0.00  0.00    +0.000 C 
ATOM     13  O   UNL     1       0.780  13.206  18.174  0.00  0.00    +0.000 OA
ATOM     14  O   UNL     1      -0.672  11.496  18.353  0.00  0.00    +0.000 OA
ATOM     15  C   UNL     1      -1.622  10.710  19.123  0.00  0.00    +0.000 C 
ATOM     16  C   UNL     1      -2.431  11.523  20.135  0.00  0.00    +0.000 C 
ATOM     17  C   UNL     1      -1.675  12.708  20.763  0.00  0.00    +0.000 C 
ATOM     18  C   UNL     1      -0.508  12.163  21.619  0.00  0.00    +0.000 C 
ENDROOT
BRANCH  15  19
ATOM     19  C   UNL     1      -2.564   9.999  18.121  0.00  0.00    +0.000 C 
ATOM     20  C   UNL     1      -2.086  10.009  16.677  0.00  0.00    +0.000 C 
ATOM     21  C   UNL     1      -2.704  11.258  16.081  0.00  0.00    +0.000 C 
ATOM     22  O   UNL     1      -3.738  11.694  16.969  0.00  0.00    +0.000 OA
ATOM     23  C   UNL     1      -3.903  10.708  17.995  0.00  0.00    +0.000 C 
ENDBRANCH  15  19
BRANCH   1  24
ATOM     24  C   UNL     1      -3.409  17.238  22.844  0.00  0.00    +0.000 C 
ATOM     25  O   UNL     1      -2.977  18.137  22.137  0.00  0.00    +0.000 OA
BRANCH  24  27
ATOM     26  C   UNL     1      -3.374  18.631  24.741  0.00  0.00    +0.000 C 
ATOM     27  O   UNL     1      -3.725  17.368  24.163  0.00  0.00    +0.000 OA
ENDBRANCH  24  27
ENDBRANCH   1  24
BRANCH   3  28
ATOM     28  O   UNL     1      -5.468  12.972  24.155  0.00  0.00    +0.000 OA
BRANCH  28  29
ATOM     29  C   UNL     1      -6.770  12.633  23.956  0.00  0.00    +0.000 C 
ATOM     30  C   UNL     1      -7.702  13.778  24.227  0.00  0.00    +0.000 C 
ATOM     31  O   UNL     1      -7.158  11.535  23.572  0.00  0.00    +0.000 OA
ENDBRANCH  28  29
ENDBRANCH   3  28
TORSDOF 5
ENDMDL
