MODEL 1
REMARK VINA RESULT:      -8.9      0.000      0.000
REMARK  Name = 
REMARK  6 active torsions:
REMARK  status: ('A' for Active; 'I' for Inactive)
REMARK    1  A    between atoms: C_1  and  C_2
REMARK    2  A    between atoms: C_2  and  C_3
REMARK    3  A    between atoms: C_10  and  O_11
REMARK    4  A    between atoms: O_11  and  C_12
REMARK    5  A    between atoms: C_12  and  C_13
REMARK    6  A    between atoms: C_16  and  C_17
REMARK                            x       y       z     vdW  Elec       q    Type
REMARK                         _______ _______ _______ _____ _____    ______ ____
ROOT
ATOM      1  C   UNL     1       1.808   4.290  20.280  0.00  0.00    +0.000 A 
ATOM      2  C   UNL     1       1.240   5.478  20.545  0.00  0.00    +0.000 A 
ATOM      3  C   UNL     1       1.932   6.752  20.294  0.00  0.00    +0.000 A 
ATOM      4  O   UNL     1       1.366   7.813  20.525  0.00  0.00    +0.000 OA
ATOM      5  O   UNL     1       3.208   6.674  19.831  0.00  0.00    +0.000 OA
ATOM      6  C   UNL     1       3.823   5.428  19.538  0.00  0.00    +0.000 A 
ATOM      7  N   UNL     1       5.117   5.522  19.086  0.00  0.00    +0.000 NA
ATOM      8  C   UNL     1       5.739   4.425  18.834  0.00  0.00    +0.000 A 
ATOM      9  N   UNL     1       5.163   3.200  18.932  0.00  0.00    +0.000 N 
ATOM     10  C   UNL     1       3.877   3.038  19.331  0.00  0.00    +0.000 A 
ATOM     11  O   UNL     1       3.387   1.914  19.337  0.00  0.00    +0.000 OA
ATOM     12  C   UNL     1       3.152   4.274  19.725  0.00  0.00    +0.000 A 
ATOM     13  H   UNL     1       5.627   2.360  18.635  0.00  0.00    +0.000 HD
ENDROOT
BRANCH   1  15
ATOM     14  C   UNL     1       1.456   2.486  22.015  0.00  0.00    +0.000 C 
ATOM     15  C   UNL     1       1.082   3.014  20.637  0.00  0.00    +0.000 C 
ENDBRANCH   1  15
BRANCH   8  16
ATOM     16  O   UNL     1       7.033   4.470  18.439  0.00  0.00    +0.000 OA
BRANCH  16  17
ATOM     17  C   UNL     1       7.393   5.348  17.359  0.00  0.00    +0.000 C 
BRANCH  17  18
ATOM     18  C   UNL     1       6.956   4.797  16.028  0.00  0.00    +0.000 A 
ATOM     19  C   UNL     1       5.828   3.977  15.911  0.00  0.00    +0.000 A 
ATOM     20  C   UNL     1       5.409   3.525  14.660  0.00  0.00    +0.000 A 
ATOM     21  C   UNL     1       6.104   3.893  13.499  0.00  0.00    +0.000 A 
ATOM     22  C   UNL     1       7.223   4.730  13.615  0.00  0.00    +0.000 A 
ATOM     23  C   UNL     1       7.640   5.182  14.867  0.00  0.00    +0.000 A 
BRANCH  21  24
ATOM     24  C   UNL     1       5.665   3.405  12.142  0.00  0.00    +0.000 C 
ATOM     25  F   UNL     1       4.349   3.637  11.877  0.00  0.00    +0.000 F 
ATOM     26  F   UNL     1       6.361   3.991  11.128  0.00  0.00    +0.000 F 
ATOM     27  F   UNL     1       5.845   2.062  11.991  0.00  0.00    +0.000 F 
ENDBRANCH  21  24
ENDBRANCH  17  18
ENDBRANCH  16  17
ENDBRANCH   8  16
TORSDOF 5
ENDMDL
MODEL 2
REMARK VINA RESULT:      -8.9      6.614      8.408
REMARK  Name = 
REMARK  6 active torsions:
REMARK  status: ('A' for Active; 'I' for Inactive)
REMARK    1  A    between atoms: C_1  and  C_2
REMARK    2  A    between atoms: C_2  and  C_3
REMARK    3  A    between atoms: C_10  and  O_11
REMARK    4  A    between atoms: O_11  and  C_12
REMARK    5  A    between atoms: C_12  and  C_13
REMARK    6  A    between atoms: C_16  and  C_17
REMARK                            x       y       z     vdW  Elec       q    Type
REMARK                         _______ _______ _______ _____ _____    ______ ____
ROOT
ATOM      1  C   UNL     1       5.293   3.798  16.577  0.00  0.00    +0.000 A 
ATOM      2  C   UNL     1       5.346   3.536  15.261  0.00  0.00    +0.000 A 
ATOM      3  C   UNL     1       6.213   4.294  14.345  0.00  0.00    +0.000 A 
ATOM      4  O   UNL     1       6.252   4.005  13.156  0.00  0.00    +0.000 OA
ATOM      5  O   UNL     1       6.925   5.320  14.884  0.00  0.00    +0.000 OA
ATOM      6  C   UNL     1       6.888   5.607  16.275  0.00  0.00    +0.000 A 
ATOM      7  N   UNL     1       7.655   6.679  16.658  0.00  0.00    +0.000 NA
ATOM      8  C   UNL     1       7.637   7.009  17.901  0.00  0.00    +0.000 A 
ATOM      9  N   UNL     1       6.955   6.316  18.847  0.00  0.00    +0.000 N 
ATOM     10  C   UNL     1       6.211   5.224  18.545  0.00  0.00    +0.000 A 
ATOM     11  O   UNL     1       5.669   4.596  19.449  0.00  0.00    +0.000 OA
ATOM     12  C   UNL     1       6.127   4.866  17.105  0.00  0.00    +0.000 A 
ATOM     13  H   UNL     1       7.031   6.523  19.828  0.00  0.00    +0.000 HD
ENDROOT
BRANCH   1  15
ATOM     14  C   UNL     1       2.890   3.543  17.319  0.00  0.00    +0.000 C 
ATOM     15  C   UNL     1       4.322   3.042  17.454  0.00  0.00    +0.000 C 
ENDBRANCH   1  15
BRANCH   8  16
ATOM     16  O   UNL     1       8.337   8.092  18.312  0.00  0.00    +0.000 OA
BRANCH  16  17
ATOM     17  C   UNL     1       8.165   9.332  17.606  0.00  0.00    +0.000 C 
BRANCH  17  18
ATOM     18  C   UNL     1       8.780  10.485  18.353  0.00  0.00    +0.000 A 
ATOM     19  C   UNL     1       9.430  10.298  19.578  0.00  0.00    +0.000 A 
ATOM     20  C   UNL     1      10.043  11.372  20.224  0.00  0.00    +0.000 A 
ATOM     21  C   UNL     1      10.027  12.652  19.653  0.00  0.00    +0.000 A 
ATOM     22  C   UNL     1       9.392  12.834  18.416  0.00  0.00    +0.000 A 
ATOM     23  C   UNL     1       8.780  11.760  17.770  0.00  0.00    +0.000 A 
BRANCH  21  24
ATOM     24  C   UNL     1      10.679  13.821  20.345  0.00  0.00    +0.000 C 
ATOM     25  F   UNL     1      10.220  15.032  19.923  0.00  0.00    +0.000 F 
ATOM     26  F   UNL     1      10.490  13.798  21.694  0.00  0.00    +0.000 F 
ATOM     27  F   UNL     1      12.028  13.848  20.157  0.00  0.00    +0.000 F 
ENDBRANCH  21  24
ENDBRANCH  17  18
ENDBRANCH  16  17
ENDBRANCH   8  16
TORSDOF 5
ENDMDL
MODEL 3
REMARK VINA RESULT:      -8.6      4.073      6.087
REMARK  Name = 
REMARK  6 active torsions:
REMARK  status: ('A' for Active; 'I' for Inactive)
REMARK    1  A    between atoms: C_1  and  C_2
REMARK    2  A    between atoms: C_2  and  C_3
REMARK    3  A    between atoms: C_10  and  O_11
REMARK    4  A    between atoms: O_11  and  C_12
REMARK    5  A    between atoms: C_12  and  C_13
REMARK    6  A    between atoms: C_16  and  C_17
REMARK                            x       y       z     vdW  Elec       q    Type
REMARK                         _______ _______ _______ _____ _____    ______ ____
ROOT
ATOM      1  C   UNL     1      -0.811  11.411  21.315  0.00  0.00    +0.000 A 
ATOM      2  C   UNL     1      -1.391  12.012  20.262  0.00  0.00    +0.000 A 
ATOM      3  C   UNL     1      -1.197  11.537  18.884  0.00  0.00    +0.000 A 
ATOM      4  O   UNL     1      -1.765  12.097  17.956  0.00  0.00    +0.000 OA
ATOM      5  O   UNL     1      -0.351  10.486  18.712  0.00  0.00    +0.000 OA
ATOM      6  C   UNL     1       0.264   9.833  19.812  0.00  0.00    +0.000 A 
ATOM      7  N   UNL     1       1.097   8.796  19.469  0.00  0.00    +0.000 NA
ATOM      8  C   UNL     1       1.709   8.185  20.421  0.00  0.00    +0.000 A 
ATOM      9  N   UNL     1       1.524   8.474  21.734  0.00  0.00    +0.000 N 
ATOM     10  C   UNL     1       0.686   9.457  22.144  0.00  0.00    +0.000 A 
ATOM     11  O   UNL     1       0.505   9.631  23.345  0.00  0.00    +0.000 OA
ATOM     12  C   UNL     1       0.031  10.251  21.072  0.00  0.00    +0.000 A 
ATOM     13  H   UNL     1       1.929   7.923  22.470  0.00  0.00    +0.000 HD
ENDROOT
BRANCH   1  15
ATOM     14  C   UNL     1      -2.412  11.907  23.208  0.00  0.00    +0.000 C 
ATOM     15  C   UNL     1      -0.979  11.995  22.698  0.00  0.00    +0.000 C 
ENDBRANCH   1  15
BRANCH   8  16
ATOM     16  O   UNL     1       2.579   7.192  20.122  0.00  0.00    +0.000 OA
BRANCH  16  17
ATOM     17  C   UNL     1       2.124   6.098  19.309  0.00  0.00    +0.000 C 
BRANCH  17  18
ATOM     18  C   UNL     1       3.155   5.702  18.287  0.00  0.00    +0.000 A 
ATOM     19  C   UNL     1       3.872   6.660  17.562  0.00  0.00    +0.000 A 
ATOM     20  C   UNL     1       4.863   6.271  16.661  0.00  0.00    +0.000 A 
ATOM     21  C   UNL     1       5.165   4.914  16.476  0.00  0.00    +0.000 A 
ATOM     22  C   UNL     1       4.460   3.955  17.218  0.00  0.00    +0.000 A 
ATOM     23  C   UNL     1       3.469   4.346  18.118  0.00  0.00    +0.000 A 
BRANCH  21  24
ATOM     24  C   UNL     1       6.229   4.480  15.501  0.00  0.00    +0.000 C 
ATOM     25  F   UNL     1       6.383   5.329  14.446  0.00  0.00    +0.000 F 
ATOM     26  F   UNL     1       7.458   4.380  16.081  0.00  0.00    +0.000 F 
ATOM     27  F   UNL     1       5.970   3.257  14.960  0.00  0.00    +0.000 F 
ENDBRANCH  21  24
ENDBRANCH  17  18
ENDBRANCH  16  17
ENDBRANCH   8  16
TORSDOF 5
ENDMDL
MODEL 4
REMARK VINA RESULT:      -8.5      5.945      8.656
REMARK  Name = 
REMARK  6 active torsions:
REMARK  status: ('A' for Active; 'I' for Inactive)
REMARK    1  A    between atoms: C_1  and  C_2
REMARK    2  A    between atoms: C_2  and  C_3
REMARK    3  A    between atoms: C_10  and  O_11
REMARK    4  A    between atoms: O_11  and  C_12
REMARK    5  A    between atoms: C_12  and  C_13
REMARK    6  A    between atoms: C_16  and  C_17
REMARK                            x       y       z     vdW  Elec       q    Type
REMARK                         _______ _______ _______ _____ _____    ______ ____
ROOT
ATOM      1  C   UNL     1       4.236   4.471  18.003  0.00  0.00    +0.000 A 
ATOM      2  C   UNL     1       4.956   4.629  16.879  0.00  0.00    +0.000 A 
ATOM      3  C   UNL     1       5.041   5.920  16.179  0.00  0.00    +0.000 A 
ATOM      4  O   UNL     1       5.730   6.028  15.173  0.00  0.00    +0.000 OA
ATOM      5  O   UNL     1       4.306   6.944  16.690  0.00  0.00    +0.000 OA
ATOM      6  C   UNL     1       3.546   6.798  17.881  0.00  0.00    +0.000 A 
ATOM      7  N   UNL     1       2.855   7.922  18.259  0.00  0.00    +0.000 NA
ATOM      8  C   UNL     1       2.121   7.843  19.313  0.00  0.00    +0.000 A 
ATOM      9  N   UNL     1       2.051   6.734  20.091  0.00  0.00    +0.000 N 
ATOM     10  C   UNL     1       2.740   5.603  19.799  0.00  0.00    +0.000 A 
ATOM     11  O   UNL     1       2.692   4.653  20.573  0.00  0.00    +0.000 OA
ATOM     12  C   UNL     1       3.524   5.620  18.537  0.00  0.00    +0.000 A 
ATOM     13  H   UNL     1       1.556   6.718  20.965  0.00  0.00    +0.000 HD
ENDROOT
BRANCH   1  15
ATOM     14  C   UNL     1       3.104   2.212  17.925  0.00  0.00    +0.000 C 
ATOM     15  C   UNL     1       4.118   3.102  18.631  0.00  0.00    +0.000 C 
ENDBRANCH   1  15
BRANCH   8  16
ATOM     16  O   UNL     1       1.382   8.912  19.690  0.00  0.00    +0.000 OA
BRANCH  16  17
ATOM     17  C   UNL     1       1.216   9.997  18.763  0.00  0.00    +0.000 C 
BRANCH  17  18
ATOM     18  C   UNL     1      -0.234  10.362  18.592  0.00  0.00    +0.000 A 
ATOM     19  C   UNL     1      -0.844  11.332  19.395  0.00  0.00    +0.000 A 
ATOM     20  C   UNL     1      -2.173  11.695  19.179  0.00  0.00    +0.000 A 
ATOM     21  C   UNL     1      -2.917  11.102  18.149  0.00  0.00    +0.000 A 
ATOM     22  C   UNL     1      -2.299  10.144  17.332  0.00  0.00    +0.000 A 
ATOM     23  C   UNL     1      -0.970   9.783  17.548  0.00  0.00    +0.000 A 
BRANCH  21  24
ATOM     24  C   UNL     1      -4.356  11.481  17.912  0.00  0.00    +0.000 C 
ATOM     25  F   UNL     1      -4.784  12.518  18.685  0.00  0.00    +0.000 F 
ATOM     26  F   UNL     1      -4.590  11.854  16.622  0.00  0.00    +0.000 F 
ATOM     27  F   UNL     1      -5.212  10.450  18.163  0.00  0.00    +0.000 F 
ENDBRANCH  21  24
ENDBRANCH  17  18
ENDBRANCH  16  17
ENDBRANCH   8  16
TORSDOF 5
ENDMDL
MODEL 5
REMARK VINA RESULT:      -8.4      0.945      1.595
REMARK  Name = 
REMARK  6 active torsions:
REMARK  status: ('A' for Active; 'I' for Inactive)
REMARK    1  A    between atoms: C_1  and  C_2
REMARK    2  A    between atoms: C_2  and  C_3
REMARK    3  A    between atoms: C_10  and  O_11
REMARK    4  A    between atoms: O_11  and  C_12
REMARK    5  A    between atoms: C_12  and  C_13
REMARK    6  A    between atoms: C_16  and  C_17
REMARK                            x       y       z     vdW  Elec       q    Type
REMARK                         _______ _______ _______ _____ _____    ______ ____
ROOT
ATOM      1  C   UNL     1       2.555   4.802  20.497  0.00  0.00    +0.000 A 
ATOM      2  C   UNL     1       1.837   5.936  20.552  0.00  0.00    +0.000 A 
ATOM      3  C   UNL     1       2.200   7.132  19.775  0.00  0.00    +0.000 A 
ATOM      4  O   UNL     1       1.502   8.136  19.834  0.00  0.00    +0.000 OA
ATOM      5  O   UNL     1       3.337   7.059  19.033  0.00  0.00    +0.000 OA
ATOM      6  C   UNL     1       4.104   5.866  18.956  0.00  0.00    +0.000 A 
ATOM      7  N   UNL     1       5.228   5.959  18.172  0.00  0.00    +0.000 NA
ATOM      8  C   UNL     1       5.982   4.920  18.089  0.00  0.00    +0.000 A 
ATOM      9  N   UNL     1       5.688   3.735  18.680  0.00  0.00    +0.000 N 
ATOM     10  C   UNL     1       4.575   3.562  19.433  0.00  0.00    +0.000 A 
ATOM     11  O   UNL     1       4.324   2.451  19.889  0.00  0.00    +0.000 OA
ATOM     12  C   UNL     1       3.725   4.764  19.635  0.00  0.00    +0.000 A 
ATOM     13  H   UNL     1       6.232   2.905  18.523  0.00  0.00    +0.000 HD
ENDROOT
BRANCH   1  15
ATOM     14  C   UNL     1       1.063   2.783  20.797  0.00  0.00    +0.000 C 
ATOM     15  C   UNL     1       2.183   3.635  21.381  0.00  0.00    +0.000 C 
ENDBRANCH   1  15
BRANCH   8  16
ATOM     16  O   UNL     1       7.127   4.987  17.370  0.00  0.00    +0.000 OA
BRANCH  16  17
ATOM     17  C   UNL     1       7.155   5.809  16.191  0.00  0.00    +0.000 C 
BRANCH  17  18
ATOM     18  C   UNL     1       6.766   5.029  14.963  0.00  0.00    +0.000 A 
ATOM     19  C   UNL     1       7.563   5.032  13.813  0.00  0.00    +0.000 A 
ATOM     20  C   UNL     1       7.213   4.256  12.708  0.00  0.00    +0.000 A 
ATOM     21  C   UNL     1       6.064   3.453  12.735  0.00  0.00    +0.000 A 
ATOM     22  C   UNL     1       5.277   3.435  13.896  0.00  0.00    +0.000 A 
ATOM     23  C   UNL     1       5.629   4.211  15.000  0.00  0.00    +0.000 A 
BRANCH  21  24
ATOM     24  C   UNL     1       5.672   2.616  11.545  0.00  0.00    +0.000 C 
ATOM     25  F   UNL     1       6.612   2.593  10.559  0.00  0.00    +0.000 F 
ATOM     26  F   UNL     1       5.446   1.314  11.877  0.00  0.00    +0.000 F 
ATOM     27  F   UNL     1       4.525   3.056  10.957  0.00  0.00    +0.000 F 
ENDBRANCH  21  24
ENDBRANCH  17  18
ENDBRANCH  16  17
ENDBRANCH   8  16
TORSDOF 5
ENDMDL
MODEL 6
REMARK VINA RESULT:      -8.4      4.679      6.993
REMARK  Name = 
REMARK  6 active torsions:
REMARK  status: ('A' for Active; 'I' for Inactive)
REMARK    1  A    between atoms: C_1  and  C_2
REMARK    2  A    between atoms: C_2  and  C_3
REMARK    3  A    between atoms: C_10  and  O_11
REMARK    4  A    between atoms: O_11  and  C_12
REMARK    5  A    between atoms: C_12  and  C_13
REMARK    6  A    between atoms: C_16  and  C_17
REMARK                            x       y       z     vdW  Elec       q    Type
REMARK                         _______ _______ _______ _____ _____    ______ ____
ROOT
ATOM      1  C   UNL     1      -0.902  11.314  21.197  0.00  0.00    +0.000 A 
ATOM      2  C   UNL     1      -0.760  10.962  22.485  0.00  0.00    +0.000 A 
ATOM      3  C   UNL     1       0.153   9.887  22.908  0.00  0.00    +0.000 A 
ATOM      4  O   UNL     1       0.273   9.616  24.095  0.00  0.00    +0.000 OA
ATOM      5  O   UNL     1       0.811   9.221  21.922  0.00  0.00    +0.000 OA
ATOM      6  C   UNL     1       0.679   9.584  20.556  0.00  0.00    +0.000 A 
ATOM      7  N   UNL     1       1.403   8.807  19.685  0.00  0.00    +0.000 NA
ATOM      8  C   UNL     1       1.299   9.066  18.430  0.00  0.00    +0.000 A 
ATOM      9  N   UNL     1       0.568  10.098  17.939  0.00  0.00    +0.000 N 
ATOM     10  C   UNL     1      -0.137  10.930  18.745  0.00  0.00    +0.000 A 
ATOM     11  O   UNL     1      -0.727  11.886  18.253  0.00  0.00    +0.000 OA
ATOM     12  C   UNL     1      -0.122  10.606  20.195  0.00  0.00    +0.000 A 
ATOM     13  H   UNL     1       0.577  10.352  16.967  0.00  0.00    +0.000 HD
ENDROOT
BRANCH   1  15
ATOM     14  C   UNL     1      -2.003  13.501  21.828  0.00  0.00    +0.000 C 
ATOM     15  C   UNL     1      -1.916  12.367  20.815  0.00  0.00    +0.000 C 
ENDBRANCH   1  15
BRANCH   8  16
ATOM     16  O   UNL     1       1.954   8.290  17.534  0.00  0.00    +0.000 OA
BRANCH  16  17
ATOM     17  C   UNL     1       3.281   7.839  17.853  0.00  0.00    +0.000 C 
BRANCH  17  18
ATOM     18  C   UNL     1       3.322   6.350  18.069  0.00  0.00    +0.000 A 
ATOM     19  C   UNL     1       4.457   5.718  18.589  0.00  0.00    +0.000 A 
ATOM     20  C   UNL     1       4.452   4.345  18.835  0.00  0.00    +0.000 A 
ATOM     21  C   UNL     1       3.307   3.578  18.575  0.00  0.00    +0.000 A 
ATOM     22  C   UNL     1       2.164   4.216  18.073  0.00  0.00    +0.000 A 
ATOM     23  C   UNL     1       2.170   5.589  17.828  0.00  0.00    +0.000 A 
BRANCH  21  24
ATOM     24  C   UNL     1       3.292   2.093  18.830  0.00  0.00    +0.000 C 
ATOM     25  F   UNL     1       4.343   1.655  19.577  0.00  0.00    +0.000 F 
ATOM     26  F   UNL     1       2.170   1.689  19.490  0.00  0.00    +0.000 F 
ATOM     27  F   UNL     1       3.327   1.369  17.676  0.00  0.00    +0.000 F 
ENDBRANCH  21  24
ENDBRANCH  17  18
ENDBRANCH  16  17
ENDBRANCH   8  16
TORSDOF 5
ENDMDL
MODEL 7
REMARK VINA RESULT:      -8.3      1.168      1.359
REMARK  Name = 
REMARK  6 active torsions:
REMARK  status: ('A' for Active; 'I' for Inactive)
REMARK    1  A    between atoms: C_1  and  C_2
REMARK    2  A    between atoms: C_2  and  C_3
REMARK    3  A    between atoms: C_10  and  O_11
REMARK    4  A    between atoms: O_11  and  C_12
REMARK    5  A    between atoms: C_12  and  C_13
REMARK    6  A    between atoms: C_16  and  C_17
REMARK                            x       y       z     vdW  Elec       q    Type
REMARK                         _______ _______ _______ _____ _____    ______ ____
ROOT
ATOM      1  C   UNL     1       2.673   5.197  20.099  0.00  0.00    +0.000 A 
ATOM      2  C   UNL     1       2.037   6.369  19.941  0.00  0.00    +0.000 A 
ATOM      3  C   UNL     1       2.510   7.398  19.002  0.00  0.00    +0.000 A 
ATOM      4  O   UNL     1       1.885   8.442  18.869  0.00  0.00    +0.000 OA
ATOM      5  O   UNL     1       3.664   7.131  18.333  0.00  0.00    +0.000 OA
ATOM      6  C   UNL     1       4.346   5.894  18.480  0.00  0.00    +0.000 A 
ATOM      7  N   UNL     1       5.500   5.786  17.743  0.00  0.00    +0.000 NA
ATOM      8  C   UNL     1       6.179   4.701  17.859  0.00  0.00    +0.000 A 
ATOM      9  N   UNL     1       5.782   3.648  18.617  0.00  0.00    +0.000 N 
ATOM     10  C   UNL     1       4.634   3.672  19.337  0.00  0.00    +0.000 A 
ATOM     11  O   UNL     1       4.288   2.668  19.951  0.00  0.00    +0.000 OA
ATOM     12  C   UNL     1       3.866   4.944  19.307  0.00  0.00    +0.000 A 
ATOM     13  H   UNL     1       6.269   2.770  18.618  0.00  0.00    +0.000 HD
ENDROOT
BRANCH   1  15
ATOM     14  C   UNL     1       1.025   3.362  20.652  0.00  0.00    +0.000 C 
ATOM     15  C   UNL     1       2.189   4.214  21.139  0.00  0.00    +0.000 C 
ENDBRANCH   1  15
BRANCH   8  16
ATOM     16  O   UNL     1       7.350   4.575  17.190  0.00  0.00    +0.000 OA
BRANCH  16  17
ATOM     17  C   UNL     1       7.533   5.320  15.974  0.00  0.00    +0.000 C 
BRANCH  17  18
ATOM     18  C   UNL     1       6.782   4.699  14.827  0.00  0.00    +0.000 A 
ATOM     19  C   UNL     1       5.469   4.237  14.977  0.00  0.00    +0.000 A 
ATOM     20  C   UNL     1       4.773   3.719  13.885  0.00  0.00    +0.000 A 
ATOM     21  C   UNL     1       5.372   3.662  12.619  0.00  0.00    +0.000 A 
ATOM     22  C   UNL     1       6.680   4.143  12.466  0.00  0.00    +0.000 A 
ATOM     23  C   UNL     1       7.375   4.661  13.558  0.00  0.00    +0.000 A 
BRANCH  21  24
ATOM     24  C   UNL     1       4.633   3.097  11.433  0.00  0.00    +0.000 C 
ATOM     25  F   UNL     1       3.324   2.818  11.688  0.00  0.00    +0.000 F 
ATOM     26  F   UNL     1       4.635   3.944  10.367  0.00  0.00    +0.000 F 
ATOM     27  F   UNL     1       5.182   1.933  10.987  0.00  0.00    +0.000 F 
ENDBRANCH  21  24
ENDBRANCH  17  18
ENDBRANCH  16  17
ENDBRANCH   8  16
TORSDOF 5
ENDMDL
MODEL 8
REMARK VINA RESULT:      -8.3      2.975      4.754
REMARK  Name = 
REMARK  6 active torsions:
REMARK  status: ('A' for Active; 'I' for Inactive)
REMARK    1  A    between atoms: C_1  and  C_2
REMARK    2  A    between atoms: C_2  and  C_3
REMARK    3  A    between atoms: C_10  and  O_11
REMARK    4  A    between atoms: O_11  and  C_12
REMARK    5  A    between atoms: C_12  and  C_13
REMARK    6  A    between atoms: C_16  and  C_17
REMARK                            x       y       z     vdW  Elec       q    Type
REMARK                         _______ _______ _______ _____ _____    ______ ____
ROOT
ATOM      1  C   UNL     1       0.175  10.420  19.869  0.00  0.00    +0.000 A 
ATOM      2  C   UNL     1      -0.399  10.613  21.067  0.00  0.00    +0.000 A 
ATOM      3  C   UNL     1      -0.210   9.677  22.187  0.00  0.00    +0.000 A 
ATOM      4  O   UNL     1      -0.730   9.905  23.272  0.00  0.00    +0.000 OA
ATOM      5  O   UNL     1       0.534   8.567  21.938  0.00  0.00    +0.000 OA
ATOM      6  C   UNL     1       1.156   8.349  20.679  0.00  0.00    +0.000 A 
ATOM      7  N   UNL     1       1.865   7.176  20.586  0.00  0.00    +0.000 NA
ATOM      8  C   UNL     1       2.424   6.908  19.460  0.00  0.00    +0.000 A 
ATOM      9  N   UNL     1       2.400   7.748  18.395  0.00  0.00    +0.000 N 
ATOM     10  C   UNL     1       1.754   8.940  18.432  0.00  0.00    +0.000 A 
ATOM     11  O   UNL     1       1.820   9.689  17.463  0.00  0.00    +0.000 OA
ATOM     12  C   UNL     1       1.013   9.246  19.683  0.00  0.00    +0.000 A 
ATOM     13  H   UNL     1       2.925   7.573  17.557  0.00  0.00    +0.000 HD
ENDROOT
BRANCH   1  15
ATOM     14  C   UNL     1      -1.579  11.319  18.286  0.00  0.00    +0.000 C 
ATOM     15  C   UNL     1      -0.124  11.369  18.732  0.00  0.00    +0.000 C 
ENDBRANCH   1  15
BRANCH   8  16
ATOM     16  O   UNL     1       3.087   5.737  19.310  0.00  0.00    +0.000 OA
BRANCH  16  17
ATOM     17  C   UNL     1       4.516   5.769  19.153  0.00  0.00    +0.000 C 
BRANCH  17  18
ATOM     18  C   UNL     1       4.932   5.324  17.777  0.00  0.00    +0.000 A 
ATOM     19  C   UNL     1       5.050   3.969  17.451  0.00  0.00    +0.000 A 
ATOM     20  C   UNL     1       5.381   3.579  16.153  0.00  0.00    +0.000 A 
ATOM     21  C   UNL     1       5.589   4.539  15.152  0.00  0.00    +0.000 A 
ATOM     22  C   UNL     1       5.451   5.896  15.474  0.00  0.00    +0.000 A 
ATOM     23  C   UNL     1       5.120   6.284  16.773  0.00  0.00    +0.000 A 
BRANCH  21  24
ATOM     24  C   UNL     1       5.954   4.131  13.748  0.00  0.00    +0.000 C 
ATOM     25  F   UNL     1       4.902   4.146  12.883  0.00  0.00    +0.000 F 
ATOM     26  F   UNL     1       6.900   4.943  13.199  0.00  0.00    +0.000 F 
ATOM     27  F   UNL     1       6.466   2.870  13.690  0.00  0.00    +0.000 F 
ENDBRANCH  21  24
ENDBRANCH  17  18
ENDBRANCH  16  17
ENDBRANCH   8  16
TORSDOF 5
ENDMDL
MODEL 9
REMARK VINA RESULT:      -8.2      6.472      9.576
REMARK  Name = 
REMARK  6 active torsions:
REMARK  status: ('A' for Active; 'I' for Inactive)
REMARK    1  A    between atoms: C_1  and  C_2
REMARK    2  A    between atoms: C_2  and  C_3
REMARK    3  A    between atoms: C_10  and  O_11
REMARK    4  A    between atoms: O_11  and  C_12
REMARK    5  A    between atoms: C_12  and  C_13
REMARK    6  A    between atoms: C_16  and  C_17
REMARK                            x       y       z     vdW  Elec       q    Type
REMARK                         _______ _______ _______ _____ _____    ______ ____
ROOT
ATOM      1  C   UNL     1       4.216   4.169  17.866  0.00  0.00    +0.000 A 
ATOM      2  C   UNL     1       4.917   4.413  16.747  0.00  0.00    +0.000 A 
ATOM      3  C   UNL     1       5.035   5.763  16.174  0.00  0.00    +0.000 A 
ATOM      4  O   UNL     1       5.706   5.945  15.167  0.00  0.00    +0.000 OA
ATOM      5  O   UNL     1       4.350   6.756  16.802  0.00  0.00    +0.000 OA
ATOM      6  C   UNL     1       3.610   6.519  17.991  0.00  0.00    +0.000 A 
ATOM      7  N   UNL     1       2.969   7.624  18.495  0.00  0.00    +0.000 NA
ATOM      8  C   UNL     1       2.256   7.466  19.553  0.00  0.00    +0.000 A 
ATOM      9  N   UNL     1       2.161   6.289  20.220  0.00  0.00    +0.000 N 
ATOM     10  C   UNL     1       2.800   5.169  19.802  0.00  0.00    +0.000 A 
ATOM     11  O   UNL     1       2.734   4.150  20.480  0.00  0.00    +0.000 OA
ATOM     12  C   UNL     1       3.558   5.284  18.529  0.00  0.00    +0.000 A 
ATOM     13  H   UNL     1       1.684   6.205  21.101  0.00  0.00    +0.000 HD
ENDROOT
BRANCH   1  15
ATOM     14  C   UNL     1       2.852   2.043  17.761  0.00  0.00    +0.000 C 
ATOM     15  C   UNL     1       4.060   2.749  18.361  0.00  0.00    +0.000 C 
ENDBRANCH   1  15
BRANCH   8  16
ATOM     16  O   UNL     1       1.565   8.518  20.052  0.00  0.00    +0.000 OA
BRANCH  16  17
ATOM     17  C   UNL     1       1.026   8.422  21.381  0.00  0.00    +0.000 C 
BRANCH  17  18
ATOM     18  C   UNL     1       0.076   9.551  21.676  0.00  0.00    +0.000 A 
ATOM     19  C   UNL     1      -0.433   9.762  22.963  0.00  0.00    +0.000 A 
ATOM     20  C   UNL     1      -1.265  10.849  23.225  0.00  0.00    +0.000 A 
ATOM     21  C   UNL     1      -1.597  11.756  22.208  0.00  0.00    +0.000 A 
ATOM     22  C   UNL     1      -1.071  11.555  20.924  0.00  0.00    +0.000 A 
ATOM     23  C   UNL     1      -0.238  10.467  20.663  0.00  0.00    +0.000 A 
BRANCH  21  24
ATOM     24  C   UNL     1      -2.502  12.930  22.478  0.00  0.00    +0.000 C 
ATOM     25  F   UNL     1      -3.207  13.339  21.386  0.00  0.00    +0.000 F 
ATOM     26  F   UNL     1      -3.426  12.664  23.442  0.00  0.00    +0.000 F 
ATOM     27  F   UNL     1      -1.815  14.025  22.910  0.00  0.00    +0.000 F 
ENDBRANCH  21  24
ENDBRANCH  17  18
ENDBRANCH  16  17
ENDBRANCH   8  16
TORSDOF 5
ENDMDL
