MODEL 1
REMARK VINA RESULT:      -7.7      0.000      0.000
REMARK  Name = 
REMARK  9 active torsions:
REMARK  status: ('A' for Active; 'I' for Inactive)
REMARK    1  A    between atoms: C_1  and  C_2
REMARK    2  A    between atoms: C_2  and  C_3
REMARK    3  A    between atoms: C_3  and  O_4
REMARK    4  A    between atoms: O_4  and  C_5
REMARK    5  A    between atoms: C_5  and  C_7
REMARK    6  A    between atoms: C_7  and  C_8
REMARK    7  A    between atoms: C_8  and  C_9
REMARK    8  A    between atoms: C_9  and  N_10
REMARK    9  A    between atoms: N_10  and  C_11
REMARK                            x       y       z     vdW  Elec       q    Type
REMARK                         _______ _______ _______ _____ _____    ______ ____
ROOT
ATOM      1  C   UNL     1       3.329   6.093  18.295  0.00  0.00    +0.000 A 
ATOM      2  C   UNL     1       3.229   4.990  19.239  0.00  0.00    +0.000 A 
ATOM      3  C   UNL     1       3.828   3.686  19.186  0.00  0.00    +0.000 A 
ATOM      4  C   UNL     1       3.592   2.678  20.122  0.00  0.00    +0.000 A 
ATOM      5  C   UNL     1       2.748   2.931  21.177  0.00  0.00    +0.000 A 
ATOM      6  C   UNL     1       2.170   4.192  21.286  0.00  0.00    +0.000 A 
ATOM      7  C   UNL     1       2.393   5.205  20.357  0.00  0.00    +0.000 A 
ATOM      8  N   UNL     1       1.750   6.347  20.606  0.00  0.00    +0.000 NA
ATOM      9  C   UNL     1       1.853   7.367  19.756  0.00  0.00    +0.000 A 
ATOM     10  C   UNL     1       1.155   8.522  20.085  0.00  0.00    +0.000 A 
ATOM     11  C   UNL     1       1.150   9.645  19.262  0.00  0.00    +0.000 A 
ATOM     12  C   UNL     1       1.867   9.616  18.077  0.00  0.00    +0.000 A 
ATOM     13  C   UNL     1       2.598   8.472  17.744  0.00  0.00    +0.000 A 
ATOM     14  C   UNL     1       2.608   7.312  18.573  0.00  0.00    +0.000 A 
ENDROOT
BRANCH   1  15
ATOM     15  N   UNL     1       4.151   6.109  17.120  0.00  0.00    +0.000 N 
ATOM     16  H   UNL     1       4.086   5.206  16.655  0.00  0.00    +0.000 HD
BRANCH  15  17
ATOM     17  C   UNL     1       5.510   6.605  17.169  0.00  0.00    +0.000 C 
BRANCH  17  18
ATOM     18  C   UNL     1       6.561   5.516  17.337  0.00  0.00    +0.000 C 
BRANCH  18  19
ATOM     19  C   UNL     1       6.273   4.369  16.367  0.00  0.00    +0.000 C 
BRANCH  19  20
ATOM     20  C   UNL     1       6.692   4.646  14.938  0.00  0.00    +0.000 C 
ATOM     21  O   UNL     1       7.654   5.344  14.636  0.00  0.00    +0.000 OA
BRANCH  20  22
ATOM     22  O   UNL     1       5.828   4.056  14.070  0.00  0.00    +0.000 OA
BRANCH  22  23
ATOM     23  C   UNL     1       6.362   3.706  12.784  0.00  0.00    +0.000 C 
BRANCH  23  25
ATOM     24  C   UNL     1       5.886   1.695  11.375  0.00  0.00    +0.000 C 
ATOM     25  C   UNL     1       5.327   3.005  11.913  0.00  0.00    +0.000 C 
ENDBRANCH  23  25
ENDBRANCH  22  23
ENDBRANCH  20  22
ENDBRANCH  19  20
ENDBRANCH  18  19
ENDBRANCH  17  18
ENDBRANCH  15  17
ENDBRANCH   1  15
TORSDOF 8
ENDMDL
MODEL 2
REMARK VINA RESULT:      -7.6      3.708      7.171
REMARK  Name = 
REMARK  9 active torsions:
REMARK  status: ('A' for Active; 'I' for Inactive)
REMARK    1  A    between atoms: C_1  and  C_2
REMARK    2  A    between atoms: C_2  and  C_3
REMARK    3  A    between atoms: C_3  and  O_4
REMARK    4  A    between atoms: O_4  and  C_5
REMARK    5  A    between atoms: C_5  and  C_7
REMARK    6  A    between atoms: C_7  and  C_8
REMARK    7  A    between atoms: C_8  and  C_9
REMARK    8  A    between atoms: C_9  and  N_10
REMARK    9  A    between atoms: N_10  and  C_11
REMARK                            x       y       z     vdW  Elec       q    Type
REMARK                         _______ _______ _______ _____ _____    ______ ____
ROOT
ATOM      1  C   UNL     1       5.648   3.788  16.031  0.00  0.00    +0.000 A 
ATOM      2  C   UNL     1       6.034   3.935  14.636  0.00  0.00    +0.000 A 
ATOM      3  C   UNL     1       5.599   3.195  13.485  0.00  0.00    +0.000 A 
ATOM      4  C   UNL     1       6.105   3.381  12.197  0.00  0.00    +0.000 A 
ATOM      5  C   UNL     1       7.072   4.337  11.991  0.00  0.00    +0.000 A 
ATOM      6  C   UNL     1       7.500   5.100  13.072  0.00  0.00    +0.000 A 
ATOM      7  C   UNL     1       7.007   4.923  14.363  0.00  0.00    +0.000 A 
ATOM      8  N   UNL     1       7.537   5.730  15.283  0.00  0.00    +0.000 NA
ATOM      9  C   UNL     1       7.174   5.613  16.559  0.00  0.00    +0.000 A 
ATOM     10  C   UNL     1       7.769   6.490  17.456  0.00  0.00    +0.000 A 
ATOM     11  C   UNL     1       7.503   6.446  18.822  0.00  0.00    +0.000 A 
ATOM     12  C   UNL     1       6.614   5.502  19.307  0.00  0.00    +0.000 A 
ATOM     13  C   UNL     1       5.984   4.630  18.413  0.00  0.00    +0.000 A 
ATOM     14  C   UNL     1       6.250   4.658  17.014  0.00  0.00    +0.000 A 
ENDROOT
BRANCH   1  15
ATOM     15  N   UNL     1       4.653   2.883  16.526  0.00  0.00    +0.000 N 
ATOM     16  H   UNL     1       4.682   2.024  15.982  0.00  0.00    +0.000 HD
BRANCH  15  17
ATOM     17  C   UNL     1       3.298   3.331  16.773  0.00  0.00    +0.000 C 
BRANCH  17  18
ATOM     18  C   UNL     1       2.590   2.576  17.889  0.00  0.00    +0.000 C 
BRANCH  18  19
ATOM     19  C   UNL     1       3.561   1.587  18.539  0.00  0.00    +0.000 C 
BRANCH  19  20
ATOM     20  C   UNL     1       4.142   2.063  19.853  0.00  0.00    +0.000 C 
ATOM     21  O   UNL     1       5.171   1.610  20.344  0.00  0.00    +0.000 OA
BRANCH  20  22
ATOM     22  O   UNL     1       3.338   3.006  20.412  0.00  0.00    +0.000 OA
BRANCH  22  23
ATOM     23  C   UNL     1       2.616   2.609  21.588  0.00  0.00    +0.000 C 
BRANCH  23  25
ATOM     24  C   UNL     1       0.928   4.072  20.465  0.00  0.00    +0.000 C 
ATOM     25  C   UNL     1       1.140   2.973  21.496  0.00  0.00    +0.000 C 
ENDBRANCH  23  25
ENDBRANCH  22  23
ENDBRANCH  20  22
ENDBRANCH  19  20
ENDBRANCH  18  19
ENDBRANCH  17  18
ENDBRANCH  15  17
ENDBRANCH   1  15
TORSDOF 8
ENDMDL
MODEL 3
REMARK VINA RESULT:      -7.3      3.034      6.920
REMARK  Name = 
REMARK  9 active torsions:
REMARK  status: ('A' for Active; 'I' for Inactive)
REMARK    1  A    between atoms: C_1  and  C_2
REMARK    2  A    between atoms: C_2  and  C_3
REMARK    3  A    between atoms: C_3  and  O_4
REMARK    4  A    between atoms: O_4  and  C_5
REMARK    5  A    between atoms: C_5  and  C_7
REMARK    6  A    between atoms: C_7  and  C_8
REMARK    7  A    between atoms: C_8  and  C_9
REMARK    8  A    between atoms: C_9  and  N_10
REMARK    9  A    between atoms: N_10  and  C_11
REMARK                            x       y       z     vdW  Elec       q    Type
REMARK                         _______ _______ _______ _____ _____    ______ ____
ROOT
ATOM      1  C   UNL     1       5.602   3.852  16.083  0.00  0.00    +0.000 A 
ATOM      2  C   UNL     1       5.995   4.001  14.690  0.00  0.00    +0.000 A 
ATOM      3  C   UNL     1       5.545   3.280  13.532  0.00  0.00    +0.000 A 
ATOM      4  C   UNL     1       6.060   3.464  12.247  0.00  0.00    +0.000 A 
ATOM      5  C   UNL     1       7.049   4.399  12.051  0.00  0.00    +0.000 A 
ATOM      6  C   UNL     1       7.492   5.143  13.139  0.00  0.00    +0.000 A 
ATOM      7  C   UNL     1       6.991   4.967  14.427  0.00  0.00    +0.000 A 
ATOM      8  N   UNL     1       7.537   5.754  15.355  0.00  0.00    +0.000 NA
ATOM      9  C   UNL     1       7.169   5.636  16.629  0.00  0.00    +0.000 A 
ATOM     10  C   UNL     1       7.781   6.492  17.534  0.00  0.00    +0.000 A 
ATOM     11  C   UNL     1       7.510   6.443  18.900  0.00  0.00    +0.000 A 
ATOM     12  C   UNL     1       6.598   5.516  19.374  0.00  0.00    +0.000 A 
ATOM     13  C   UNL     1       5.950   4.666  18.472  0.00  0.00    +0.000 A 
ATOM     14  C   UNL     1       6.221   4.699  17.073  0.00  0.00    +0.000 A 
ENDROOT
BRANCH   1  15
ATOM     15  N   UNL     1       4.583   2.967  16.568  0.00  0.00    +0.000 N 
ATOM     16  H   UNL     1       4.540   2.146  15.968  0.00  0.00    +0.000 HD
BRANCH  15  17
ATOM     17  C   UNL     1       3.268   3.465  16.912  0.00  0.00    +0.000 C 
BRANCH  17  18
ATOM     18  C   UNL     1       2.430   2.489  17.726  0.00  0.00    +0.000 C 
BRANCH  18  19
ATOM     19  C   UNL     1       1.450   3.263  18.610  0.00  0.00    +0.000 C 
BRANCH  19  20
ATOM     20  C   UNL     1       2.072   3.845  19.862  0.00  0.00    +0.000 C 
ATOM     21  O   UNL     1       2.693   3.179  20.684  0.00  0.00    +0.000 OA
BRANCH  20  22
ATOM     22  O   UNL     1       1.797   5.173  19.953  0.00  0.00    +0.000 OA
BRANCH  22  23
ATOM     23  C   UNL     1       2.835   6.066  19.523  0.00  0.00    +0.000 C 
BRANCH  23  25
ATOM     24  C   UNL     1       3.679   7.412  17.591  0.00  0.00    +0.000 C 
ATOM     25  C   UNL     1       2.445   6.819  18.257  0.00  0.00    +0.000 C 
ENDBRANCH  23  25
ENDBRANCH  22  23
ENDBRANCH  20  22
ENDBRANCH  19  20
ENDBRANCH  18  19
ENDBRANCH  17  18
ENDBRANCH  15  17
ENDBRANCH   1  15
TORSDOF 8
ENDMDL
MODEL 4
REMARK VINA RESULT:      -7.3      1.222      4.089
REMARK  Name = 
REMARK  9 active torsions:
REMARK  status: ('A' for Active; 'I' for Inactive)
REMARK    1  A    between atoms: C_1  and  C_2
REMARK    2  A    between atoms: C_2  and  C_3
REMARK    3  A    between atoms: C_3  and  O_4
REMARK    4  A    between atoms: O_4  and  C_5
REMARK    5  A    between atoms: C_5  and  C_7
REMARK    6  A    between atoms: C_7  and  C_8
REMARK    7  A    between atoms: C_8  and  C_9
REMARK    8  A    between atoms: C_9  and  N_10
REMARK    9  A    between atoms: N_10  and  C_11
REMARK                            x       y       z     vdW  Elec       q    Type
REMARK                         _______ _______ _______ _____ _____    ______ ____
ROOT
ATOM      1  C   UNL     1       3.272   5.953  18.321  0.00  0.00    +0.000 A 
ATOM      2  C   UNL     1       2.568   7.202  18.574  0.00  0.00    +0.000 A 
ATOM      3  C   UNL     1       2.543   8.409  17.796  0.00  0.00    +0.000 A 
ATOM      4  C   UNL     1       1.887   9.578  18.187  0.00  0.00    +0.000 A 
ATOM      5  C   UNL     1       1.203   9.593  19.380  0.00  0.00    +0.000 A 
ATOM      6  C   UNL     1       1.175   8.435  20.150  0.00  0.00    +0.000 A 
ATOM      7  C   UNL     1       1.828   7.264  19.776  0.00  0.00    +0.000 A 
ATOM      8  N   UNL     1       1.709   6.253  20.637  0.00  0.00    +0.000 NA
ATOM      9  C   UNL     1       2.334   5.102  20.403  0.00  0.00    +0.000 A 
ATOM     10  C   UNL     1       2.159   4.097  21.346  0.00  0.00    +0.000 A 
ATOM     11  C   UNL     1       2.789   2.859  21.235  0.00  0.00    +0.000 A 
ATOM     12  C   UNL     1       3.613   2.616  20.150  0.00  0.00    +0.000 A 
ATOM     13  C   UNL     1       3.777   3.606  19.176  0.00  0.00    +0.000 A 
ATOM     14  C   UNL     1       3.146   4.880  19.278  0.00  0.00    +0.000 A 
ENDROOT
BRANCH   1  15
ATOM     15  N   UNL     1       4.042   5.657  17.150  0.00  0.00    +0.000 N 
ATOM     16  H   UNL     1       4.516   4.765  17.277  0.00  0.00    +0.000 HD
BRANCH  15  17
ATOM     17  C   UNL     1       4.906   6.656  16.555  0.00  0.00    +0.000 C 
BRANCH  17  18
ATOM     18  C   UNL     1       6.031   7.123  17.467  0.00  0.00    +0.000 C 
BRANCH  18  19
ATOM     19  C   UNL     1       7.329   6.404  17.093  0.00  0.00    +0.000 C 
BRANCH  19  20
ATOM     20  C   UNL     1       7.274   4.900  17.255  0.00  0.00    +0.000 C 
ATOM     21  O   UNL     1       7.054   4.340  18.324  0.00  0.00    +0.000 OA
BRANCH  20  22
ATOM     22  O   UNL     1       7.548   4.287  16.073  0.00  0.00    +0.000 OA
BRANCH  22  23
ATOM     23  C   UNL     1       6.440   3.652  15.416  0.00  0.00    +0.000 C 
BRANCH  23  25
ATOM     24  C   UNL     1       7.430   5.057  13.600  0.00  0.00    +0.000 C 
ATOM     25  C   UNL     1       6.281   4.133  13.979  0.00  0.00    +0.000 C 
ENDBRANCH  23  25
ENDBRANCH  22  23
ENDBRANCH  20  22
ENDBRANCH  19  20
ENDBRANCH  18  19
ENDBRANCH  17  18
ENDBRANCH  15  17
ENDBRANCH   1  15
TORSDOF 8
ENDMDL
MODEL 5
REMARK VINA RESULT:      -7.3      1.834      2.970
REMARK  Name = 
REMARK  9 active torsions:
REMARK  status: ('A' for Active; 'I' for Inactive)
REMARK    1  A    between atoms: C_1  and  C_2
REMARK    2  A    between atoms: C_2  and  C_3
REMARK    3  A    between atoms: C_3  and  O_4
REMARK    4  A    between atoms: O_4  and  C_5
REMARK    5  A    between atoms: C_5  and  C_7
REMARK    6  A    between atoms: C_7  and  C_8
REMARK    7  A    between atoms: C_8  and  C_9
REMARK    8  A    between atoms: C_9  and  N_10
REMARK    9  A    between atoms: N_10  and  C_11
REMARK                            x       y       z     vdW  Elec       q    Type
REMARK                         _______ _______ _______ _____ _____    ______ ____
ROOT
ATOM      1  C   UNL     1       2.735   7.043  18.244  0.00  0.00    +0.000 A 
ATOM      2  C   UNL     1       2.785   5.811  19.018  0.00  0.00    +0.000 A 
ATOM      3  C   UNL     1       3.376   4.546  18.681  0.00  0.00    +0.000 A 
ATOM      4  C   UNL     1       3.290   3.405  19.482  0.00  0.00    +0.000 A 
ATOM      5  C   UNL     1       2.615   3.477  20.678  0.00  0.00    +0.000 A 
ATOM      6  C   UNL     1       2.055   4.692  21.058  0.00  0.00    +0.000 A 
ATOM      7  C   UNL     1       2.129   5.836  20.268  0.00  0.00    +0.000 A 
ATOM      8  N   UNL     1       1.526   6.911  20.778  0.00  0.00    +0.000 NA
ATOM      9  C   UNL     1       1.492   8.047  20.084  0.00  0.00    +0.000 A 
ATOM     10  C   UNL     1       0.847   9.122  20.683  0.00  0.00    +0.000 A 
ATOM     11  C   UNL     1       0.711  10.353  20.047  0.00  0.00    +0.000 A 
ATOM     12  C   UNL     1       1.238  10.518  18.777  0.00  0.00    +0.000 A 
ATOM     13  C   UNL     1       1.916   9.455  18.171  0.00  0.00    +0.000 A 
ATOM     14  C   UNL     1       2.058   8.188  18.806  0.00  0.00    +0.000 A 
ENDROOT
BRANCH   1  15
ATOM     15  N   UNL     1       3.367   7.253  16.975  0.00  0.00    +0.000 N 
ATOM     16  H   UNL     1       2.780   6.862  16.241  0.00  0.00    +0.000 HD
BRANCH  15  17
ATOM     17  C   UNL     1       4.768   6.944  16.782  0.00  0.00    +0.000 C 
BRANCH  17  18
ATOM     18  C   UNL     1       5.060   6.168  15.506  0.00  0.00    +0.000 C 
BRANCH  18  19
ATOM     19  C   UNL     1       5.782   4.863  15.850  0.00  0.00    +0.000 C 
BRANCH  19  20
ATOM     20  C   UNL     1       7.287   4.929  15.699  0.00  0.00    +0.000 C 
ATOM     21  O   UNL     1       7.852   5.312  14.679  0.00  0.00    +0.000 OA
BRANCH  20  22
ATOM     22  O   UNL     1       7.896   4.463  16.822  0.00  0.00    +0.000 OA
BRANCH  22  23
ATOM     23  C   UNL     1       7.203   4.691  18.059  0.00  0.00    +0.000 C 
BRANCH  23  25
ATOM     24  C   UNL     1       7.976   7.045  18.400  0.00  0.00    +0.000 C 
ATOM     25  C   UNL     1       7.975   5.635  18.974  0.00  0.00    +0.000 C 
ENDBRANCH  23  25
ENDBRANCH  22  23
ENDBRANCH  20  22
ENDBRANCH  19  20
ENDBRANCH  18  19
ENDBRANCH  17  18
ENDBRANCH  15  17
ENDBRANCH   1  15
TORSDOF 8
ENDMDL
MODEL 6
REMARK VINA RESULT:      -7.2      3.709      6.955
REMARK  Name = 
REMARK  9 active torsions:
REMARK  status: ('A' for Active; 'I' for Inactive)
REMARK    1  A    between atoms: C_1  and  C_2
REMARK    2  A    between atoms: C_2  and  C_3
REMARK    3  A    between atoms: C_3  and  O_4
REMARK    4  A    between atoms: O_4  and  C_5
REMARK    5  A    between atoms: C_5  and  C_7
REMARK    6  A    between atoms: C_7  and  C_8
REMARK    7  A    between atoms: C_8  and  C_9
REMARK    8  A    between atoms: C_9  and  N_10
REMARK    9  A    between atoms: N_10  and  C_11
REMARK                            x       y       z     vdW  Elec       q    Type
REMARK                         _______ _______ _______ _____ _____    ______ ____
ROOT
ATOM      1  C   UNL     1       3.335   5.883  18.233  0.00  0.00    +0.000 A 
ATOM      2  C   UNL     1       2.628   4.859  18.986  0.00  0.00    +0.000 A 
ATOM      3  C   UNL     1       1.698   5.001  20.072  0.00  0.00    +0.000 A 
ATOM      4  C   UNL     1       1.141   3.929  20.771  0.00  0.00    +0.000 A 
ATOM      5  C   UNL     1       1.477   2.646  20.406  0.00  0.00    +0.000 A 
ATOM      6  C   UNL     1       2.349   2.461  19.338  0.00  0.00    +0.000 A 
ATOM      7  C   UNL     1       2.916   3.521  18.636  0.00  0.00    +0.000 A 
ATOM      8  N   UNL     1       3.742   3.165  17.650  0.00  0.00    +0.000 NA
ATOM      9  C   UNL     1       4.378   4.098  16.945  0.00  0.00    +0.000 A 
ATOM     10  C   UNL     1       5.218   3.647  15.935  0.00  0.00    +0.000 A 
ATOM     11  C   UNL     1       5.968   4.520  15.151  0.00  0.00    +0.000 A 
ATOM     12  C   UNL     1       5.872   5.883  15.377  0.00  0.00    +0.000 A 
ATOM     13  C   UNL     1       5.008   6.355  16.370  0.00  0.00    +0.000 A 
ATOM     14  C   UNL     1       4.240   5.475  17.186  0.00  0.00    +0.000 A 
ENDROOT
BRANCH   1  15
ATOM     15  N   UNL     1       3.163   7.298  18.392  0.00  0.00    +0.000 N 
ATOM     16  H   UNL     1       3.286   7.541  19.373  0.00  0.00    +0.000 HD
BRANCH  15  17
ATOM     17  C   UNL     1       2.035   7.981  17.795  0.00  0.00    +0.000 C 
BRANCH  17  18
ATOM     18  C   UNL     1       1.900   9.438  18.217  0.00  0.00    +0.000 C 
BRANCH  18  19
ATOM     19  C   UNL     1       0.458   9.904  18.002  0.00  0.00    +0.000 C 
BRANCH  19  20
ATOM     20  C   UNL     1      -0.340  10.058  19.279  0.00  0.00    +0.000 C 
ATOM     21  O   UNL     1       0.075   9.724  20.384  0.00  0.00    +0.000 OA
BRANCH  20  22
ATOM     22  O   UNL     1      -1.573  10.562  19.008  0.00  0.00    +0.000 OA
BRANCH  22  23
ATOM     23  C   UNL     1      -1.876  10.788  17.623  0.00  0.00    +0.000 C 
BRANCH  23  25
ATOM     24  C   UNL     1      -3.069   9.935  15.597  0.00  0.00    +0.000 C 
ATOM     25  C   UNL     1      -2.933   9.819  17.109  0.00  0.00    +0.000 C 
ENDBRANCH  23  25
ENDBRANCH  22  23
ENDBRANCH  20  22
ENDBRANCH  19  20
ENDBRANCH  18  19
ENDBRANCH  17  18
ENDBRANCH  15  17
ENDBRANCH   1  15
TORSDOF 8
ENDMDL
MODEL 7
REMARK VINA RESULT:      -7.2      3.423      7.240
REMARK  Name = 
REMARK  9 active torsions:
REMARK  status: ('A' for Active; 'I' for Inactive)
REMARK    1  A    between atoms: C_1  and  C_2
REMARK    2  A    between atoms: C_2  and  C_3
REMARK    3  A    between atoms: C_3  and  O_4
REMARK    4  A    between atoms: O_4  and  C_5
REMARK    5  A    between atoms: C_5  and  C_7
REMARK    6  A    between atoms: C_7  and  C_8
REMARK    7  A    between atoms: C_8  and  C_9
REMARK    8  A    between atoms: C_9  and  N_10
REMARK    9  A    between atoms: N_10  and  C_11
REMARK                            x       y       z     vdW  Elec       q    Type
REMARK                         _______ _______ _______ _____ _____    ______ ____
ROOT
ATOM      1  C   UNL     1       3.134   5.856  18.367  0.00  0.00    +0.000 A 
ATOM      2  C   UNL     1       4.104   5.585  17.317  0.00  0.00    +0.000 A 
ATOM      3  C   UNL     1       4.782   6.500  16.441  0.00  0.00    +0.000 A 
ATOM      4  C   UNL     1       5.640   6.108  15.412  0.00  0.00    +0.000 A 
ATOM      5  C   UNL     1       5.878   4.769  15.214  0.00  0.00    +0.000 A 
ATOM      6  C   UNL     1       5.267   3.848  16.060  0.00  0.00    +0.000 A 
ATOM      7  C   UNL     1       4.406   4.224  17.087  0.00  0.00    +0.000 A 
ATOM      8  N   UNL     1       3.897   3.213  17.792  0.00  0.00    +0.000 NA
ATOM      9  C   UNL     1       3.023   3.455  18.767  0.00  0.00    +0.000 A 
ATOM     10  C   UNL     1       2.540   2.351  19.456  0.00  0.00    +0.000 A 
ATOM     11  C   UNL     1       1.594   2.467  20.472  0.00  0.00    +0.000 A 
ATOM     12  C   UNL     1       1.120   3.722  20.813  0.00  0.00    +0.000 A 
ATOM     13  C   UNL     1       1.617   4.848  20.149  0.00  0.00    +0.000 A 
ATOM     14  C   UNL     1       2.580   4.746  19.103  0.00  0.00    +0.000 A 
ENDROOT
BRANCH   1  15
ATOM     15  N   UNL     1       2.716   7.159  18.795  0.00  0.00    +0.000 N 
ATOM     16  H   UNL     1       2.300   7.089  19.721  0.00  0.00    +0.000 HD
BRANCH  15  17
ATOM     17  C   UNL     1       1.957   8.023  17.915  0.00  0.00    +0.000 C 
BRANCH  17  18
ATOM     18  C   UNL     1       2.368   9.487  17.980  0.00  0.00    +0.000 C 
BRANCH  18  19
ATOM     19  C   UNL     1       1.178  10.337  18.432  0.00  0.00    +0.000 C 
BRANCH  19  20
ATOM     20  C   UNL     1       0.512   9.846  19.699  0.00  0.00    +0.000 C 
ATOM     21  O   UNL     1       1.129   9.426  20.672  0.00  0.00    +0.000 OA
BRANCH  20  22
ATOM     22  O   UNL     1      -0.841   9.896  19.572  0.00  0.00    +0.000 OA
BRANCH  22  23
ATOM     23  C   UNL     1      -1.384  11.117  19.047  0.00  0.00    +0.000 C 
BRANCH  23  25
ATOM     24  C   UNL     1      -2.186   9.882  17.025  0.00  0.00    +0.000 C 
ATOM     25  C   UNL     1      -2.571  10.859  18.127  0.00  0.00    +0.000 C 
ENDBRANCH  23  25
ENDBRANCH  22  23
ENDBRANCH  20  22
ENDBRANCH  19  20
ENDBRANCH  18  19
ENDBRANCH  17  18
ENDBRANCH  15  17
ENDBRANCH   1  15
TORSDOF 8
ENDMDL
MODEL 8
REMARK VINA RESULT:      -7.1      3.826      7.304
REMARK  Name = 
REMARK  9 active torsions:
REMARK  status: ('A' for Active; 'I' for Inactive)
REMARK    1  A    between atoms: C_1  and  C_2
REMARK    2  A    between atoms: C_2  and  C_3
REMARK    3  A    between atoms: C_3  and  O_4
REMARK    4  A    between atoms: O_4  and  C_5
REMARK    5  A    between atoms: C_5  and  C_7
REMARK    6  A    between atoms: C_7  and  C_8
REMARK    7  A    between atoms: C_8  and  C_9
REMARK    8  A    between atoms: C_9  and  N_10
REMARK    9  A    between atoms: N_10  and  C_11
REMARK                            x       y       z     vdW  Elec       q    Type
REMARK                         _______ _______ _______ _____ _____    ______ ____
ROOT
ATOM      1  C   UNL     1       3.300   5.986  18.693  0.00  0.00    +0.000 A 
ATOM      2  C   UNL     1       4.172   5.748  17.554  0.00  0.00    +0.000 A 
ATOM      3  C   UNL     1       4.589   6.651  16.518  0.00  0.00    +0.000 A 
ATOM      4  C   UNL     1       5.374   6.280  15.424  0.00  0.00    +0.000 A 
ATOM      5  C   UNL     1       5.798   4.977  15.319  0.00  0.00    +0.000 A 
ATOM      6  C   UNL     1       5.445   4.074  16.317  0.00  0.00    +0.000 A 
ATOM      7  C   UNL     1       4.659   4.429  17.410  0.00  0.00    +0.000 A 
ATOM      8  N   UNL     1       4.404   3.438  18.265  0.00  0.00    +0.000 NA
ATOM      9  C   UNL     1       3.622   3.653  19.320  0.00  0.00    +0.000 A 
ATOM     10  C   UNL     1       3.405   2.572  20.164  0.00  0.00    +0.000 A 
ATOM     11  C   UNL     1       2.577   2.658  21.281  0.00  0.00    +0.000 A 
ATOM     12  C   UNL     1       1.951   3.859  21.566  0.00  0.00    +0.000 A 
ATOM     13  C   UNL     1       2.181   4.966  20.743  0.00  0.00    +0.000 A 
ATOM     14  C   UNL     1       3.020   4.893  19.594  0.00  0.00    +0.000 A 
ENDROOT
BRANCH   1  15
ATOM     15  N   UNL     1       2.731   7.252  19.053  0.00  0.00    +0.000 N 
ATOM     16  H   UNL     1       2.225   7.154  19.931  0.00  0.00    +0.000 HD
BRANCH  15  17
ATOM     17  C   UNL     1       2.001   8.042  18.084  0.00  0.00    +0.000 C 
BRANCH  17  18
ATOM     18  C   UNL     1       1.580   9.413  18.594  0.00  0.00    +0.000 C 
BRANCH  18  19
ATOM     19  C   UNL     1       0.248   9.813  17.956  0.00  0.00    +0.000 C 
BRANCH  19  20
ATOM     20  C   UNL     1      -0.786  10.314  18.941  0.00  0.00    +0.000 C 
ATOM     21  O   UNL     1      -0.583  10.415  20.147  0.00  0.00    +0.000 OA
BRANCH  20  22
ATOM     22  O   UNL     1      -1.957  10.580  18.304  0.00  0.00    +0.000 OA
BRANCH  22  23
ATOM     23  C   UNL     1      -2.156   9.923  17.043  0.00  0.00    +0.000 C 
BRANCH  23  25
ATOM     24  C   UNL     1      -3.020  10.114  14.704  0.00  0.00    +0.000 C 
ATOM     25  C   UNL     1      -2.779  10.855  16.011  0.00  0.00    +0.000 C 
ENDBRANCH  23  25
ENDBRANCH  22  23
ENDBRANCH  20  22
ENDBRANCH  19  20
ENDBRANCH  18  19
ENDBRANCH  17  18
ENDBRANCH  15  17
ENDBRANCH   1  15
TORSDOF 8
ENDMDL
MODEL 9
REMARK VINA RESULT:      -7.1      3.364      7.051
REMARK  Name = 
REMARK  9 active torsions:
REMARK  status: ('A' for Active; 'I' for Inactive)
REMARK    1  A    between atoms: C_1  and  C_2
REMARK    2  A    between atoms: C_2  and  C_3
REMARK    3  A    between atoms: C_3  and  O_4
REMARK    4  A    between atoms: O_4  and  C_5
REMARK    5  A    between atoms: C_5  and  C_7
REMARK    6  A    between atoms: C_7  and  C_8
REMARK    7  A    between atoms: C_8  and  C_9
REMARK    8  A    between atoms: C_9  and  N_10
REMARK    9  A    between atoms: N_10  and  C_11
REMARK                            x       y       z     vdW  Elec       q    Type
REMARK                         _______ _______ _______ _____ _____    ______ ____
ROOT
ATOM      1  C   UNL     1       3.396   5.562  18.815  0.00  0.00    +0.000 A 
ATOM      2  C   UNL     1       2.486   4.435  18.957  0.00  0.00    +0.000 A 
ATOM      3  C   UNL     1       1.411   4.242  19.890  0.00  0.00    +0.000 A 
ATOM      4  C   UNL     1       0.652   3.073  19.978  0.00  0.00    +0.000 A 
ATOM      5  C   UNL     1       0.923   2.034  19.120  0.00  0.00    +0.000 A 
ATOM      6  C   UNL     1       1.935   2.190  18.178  0.00  0.00    +0.000 A 
ATOM      7  C   UNL     1       2.703   3.348  18.081  0.00  0.00    +0.000 A 
ATOM      8  N   UNL     1       3.639   3.324  17.132  0.00  0.00    +0.000 NA
ATOM      9  C   UNL     1       4.463   4.360  16.984  0.00  0.00    +0.000 A 
ATOM     10  C   UNL     1       5.410   4.260  15.973  0.00  0.00    +0.000 A 
ATOM     11  C   UNL     1       6.353   5.258  15.739  0.00  0.00    +0.000 A 
ATOM     12  C   UNL     1       6.348   6.391  16.535  0.00  0.00    +0.000 A 
ATOM     13  C   UNL     1       5.383   6.521  17.539  0.00  0.00    +0.000 A 
ATOM     14  C   UNL     1       4.415   5.506  17.795  0.00  0.00    +0.000 A 
ENDROOT
BRANCH   1  15
ATOM     15  N   UNL     1       3.331   6.781  19.565  0.00  0.00    +0.000 N 
ATOM     16  H   UNL     1       3.523   6.582  20.545  0.00  0.00    +0.000 HD
BRANCH  15  17
ATOM     17  C   UNL     1       2.223   7.699  19.400  0.00  0.00    +0.000 C 
BRANCH  17  18
ATOM     18  C   UNL     1       2.281   8.515  18.117  0.00  0.00    +0.000 C 
BRANCH  18  19
ATOM     19  C   UNL     1       1.019   9.371  17.993  0.00  0.00    +0.000 C 
BRANCH  19  20
ATOM     20  C   UNL     1       1.112  10.715  18.684  0.00  0.00    +0.000 C 
ATOM     21  O   UNL     1       1.987  11.542  18.447  0.00  0.00    +0.000 OA
BRANCH  20  22
ATOM     22  O   UNL     1       0.131  10.835  19.618  0.00  0.00    +0.000 OA
BRANCH  22  23
ATOM     23  C   UNL     1       0.531  10.648  20.985  0.00  0.00    +0.000 C 
BRANCH  23  25
ATOM     24  C   UNL     1       0.069   9.464  23.139  0.00  0.00    +0.000 C 
ATOM     25  C   UNL     1      -0.239   9.513  21.649  0.00  0.00    +0.000 C 
ENDBRANCH  23  25
ENDBRANCH  22  23
ENDBRANCH  20  22
ENDBRANCH  19  20
ENDBRANCH  18  19
ENDBRANCH  17  18
ENDBRANCH  15  17
ENDBRANCH   1  15
TORSDOF 8
ENDMDL
