MODEL 1
REMARK VINA RESULT:      -7.5      0.000      0.000
REMARK  Name = 
REMARK  9 active torsions:
REMARK  status: ('A' for Active; 'I' for Inactive)
REMARK    1  A    between atoms: C_1  and  C_2
REMARK    2  A    between atoms: C_2  and  C_3
REMARK    3  A    between atoms: C_3  and  C_4
REMARK    4  A    between atoms: C_4  and  O_5
REMARK    5  A    between atoms: O_5  and  C_6
REMARK    6  A    between atoms: C_11  and  C_12
REMARK    7  A    between atoms: N_14  and  C_15
REMARK    8  A    between atoms: C_15  and  C_16
REMARK    9  A    between atoms: C_19  and  C_20
REMARK                            x       y       z     vdW  Elec       q    Type
REMARK                         _______ _______ _______ _____ _____    ______ ____
ROOT
ATOM      1  C   UNL     1       2.587   6.270  18.899  0.00  0.00    +0.000 C 
ATOM      2  O   UNL     1       3.011   6.620  19.999  0.00  0.00    +0.000 OA
ATOM      3  N   UNL     1       2.351   7.184  17.900  0.00  0.00    +0.000 N 
ATOM      4  H   UNL     1       2.043   6.859  16.989  0.00  0.00    +0.000 HD
ENDROOT
BRANCH   1  10
ATOM      5  C   UNL     1       2.979   4.001  17.684  0.00  0.00    +0.000 A 
ATOM      6  C   UNL     1       2.613   2.643  17.578  0.00  0.00    +0.000 A 
ATOM      7  C   UNL     1       1.605   2.094  18.375  0.00  0.00    +0.000 A 
ATOM      8  C   UNL     1       0.946   2.894  19.293  0.00  0.00    +0.000 A 
ATOM      9  C   UNL     1       1.303   4.238  19.425  0.00  0.00    +0.000 A 
ATOM     10  C   UNL     1       2.324   4.811  18.636  0.00  0.00    +0.000 A 
BRANCH   5  11
ATOM     11  O   UNL     1       3.949   4.568  16.886  0.00  0.00    +0.000 OA
BRANCH  11  12
ATOM     12  C   UNL     1       5.307   4.387  17.309  0.00  0.00    +0.000 C 
BRANCH  12  13
ATOM     13  C   UNL     1       6.146   3.993  16.102  0.00  0.00    +0.000 C 
BRANCH  13  15
ATOM     14  C   UNL     1       5.742   3.903  13.628  0.00  0.00    +0.000 C 
ATOM     15  C   UNL     1       5.760   4.794  14.859  0.00  0.00    +0.000 C 
ENDBRANCH  13  15
ENDBRANCH  12  13
ENDBRANCH  11  12
ENDBRANCH   5  11
ENDBRANCH   1  10
BRANCH   3  16
ATOM     16  C   UNL     1       2.568   8.604  18.103  0.00  0.00    +0.000 C 
BRANCH  16  17
ATOM     17  C   UNL     1       1.324   9.267  18.613  0.00  0.00    +0.000 A 
ATOM     18  C   UNL     1       1.004   9.463  19.944  0.00  0.00    +0.000 A 
ATOM     19  S   UNL     1      -0.522  10.212  20.086  0.00  0.00    +0.000 S 
ATOM     20  C   UNL     1      -0.698  10.189  18.367  0.00  0.00    +0.000 A 
ATOM     21  N   UNL     1       0.336   9.680  17.718  0.00  0.00    +0.000 NA
BRANCH  20  22
ATOM     22  C   UNL     1      -1.972  10.600  17.748  0.00  0.00    +0.000 A 
ATOM     23  C   UNL     1      -2.913  11.411  18.410  0.00  0.00    +0.000 A 
ATOM     24  C   UNL     1      -4.155  11.694  17.830  0.00  0.00    +0.000 A 
ATOM     25  C   UNL     1      -4.470  11.183  16.574  0.00  0.00    +0.000 A 
ATOM     26  C   UNL     1      -3.538  10.414  15.885  0.00  0.00    +0.000 A 
ATOM     27  C   UNL     1      -2.296  10.132  16.464  0.00  0.00    +0.000 A 
ENDBRANCH  20  22
ENDBRANCH  16  17
ENDBRANCH   3  16
TORSDOF 8
ENDMDL
MODEL 2
REMARK VINA RESULT:      -7.5      3.120      4.674
REMARK  Name = 
REMARK  9 active torsions:
REMARK  status: ('A' for Active; 'I' for Inactive)
REMARK    1  A    between atoms: C_1  and  C_2
REMARK    2  A    between atoms: C_2  and  C_3
REMARK    3  A    between atoms: C_3  and  C_4
REMARK    4  A    between atoms: C_4  and  O_5
REMARK    5  A    between atoms: O_5  and  C_6
REMARK    6  A    between atoms: C_11  and  C_12
REMARK    7  A    between atoms: N_14  and  C_15
REMARK    8  A    between atoms: C_15  and  C_16
REMARK    9  A    between atoms: C_19  and  C_20
REMARK                            x       y       z     vdW  Elec       q    Type
REMARK                         _______ _______ _______ _____ _____    ______ ____
ROOT
ATOM      1  C   UNL     1       3.876   4.646  17.712  0.00  0.00    +0.000 C 
ATOM      2  O   UNL     1       2.852   3.978  17.583  0.00  0.00    +0.000 OA
ATOM      3  N   UNL     1       4.038   5.509  18.770  0.00  0.00    +0.000 N 
ATOM      4  H   UNL     1       4.913   6.012  18.874  0.00  0.00    +0.000 HD
ENDROOT
BRANCH   1  10
ATOM      5  C   UNL     1       6.364   4.458  16.968  0.00  0.00    +0.000 A 
ATOM      6  C   UNL     1       7.264   4.322  15.891  0.00  0.00    +0.000 A 
ATOM      7  C   UNL     1       6.816   4.267  14.568  0.00  0.00    +0.000 A 
ATOM      8  C   UNL     1       5.461   4.346  14.301  0.00  0.00    +0.000 A 
ATOM      9  C   UNL     1       4.551   4.465  15.353  0.00  0.00    +0.000 A 
ATOM     10  C   UNL     1       4.981   4.515  16.697  0.00  0.00    +0.000 A 
BRANCH   5  11
ATOM     11  O   UNL     1       6.788   4.545  18.277  0.00  0.00    +0.000 OA
BRANCH  11  12
ATOM     12  C   UNL     1       8.075   5.138  18.490  0.00  0.00    +0.000 C 
BRANCH  12  13
ATOM     13  C   UNL     1       7.882   6.600  18.869  0.00  0.00    +0.000 C 
BRANCH  13  15
ATOM     14  C   UNL     1       8.171   8.918  17.957  0.00  0.00    +0.000 C 
ATOM     15  C   UNL     1       7.758   7.492  17.635  0.00  0.00    +0.000 C 
ENDBRANCH  13  15
ENDBRANCH  12  13
ENDBRANCH  11  12
ENDBRANCH   5  11
ENDBRANCH   1  10
BRANCH   3  16
ATOM     16  C   UNL     1       3.001   5.690  19.768  0.00  0.00    +0.000 C 
BRANCH  16  17
ATOM     17  C   UNL     1       2.312   7.010  19.590  0.00  0.00    +0.000 A 
ATOM     18  C   UNL     1       2.380   7.808  18.463  0.00  0.00    +0.000 A 
ATOM     19  S   UNL     1       1.490   9.244  18.696  0.00  0.00    +0.000 S 
ATOM     20  C   UNL     1       1.105   8.750  20.306  0.00  0.00    +0.000 A 
ATOM     21  N   UNL     1       1.585   7.565  20.644  0.00  0.00    +0.000 NA
BRANCH  20  22
ATOM     22  C   UNL     1       0.403   9.674  21.217  0.00  0.00    +0.000 A 
ATOM     23  C   UNL     1      -0.025   9.297  22.504  0.00  0.00    +0.000 A 
ATOM     24  C   UNL     1      -0.778  10.168  23.297  0.00  0.00    +0.000 A 
ATOM     25  C   UNL     1      -1.105  11.436  22.824  0.00  0.00    +0.000 A 
ATOM     26  C   UNL     1      -0.656  11.844  21.571  0.00  0.00    +0.000 A 
ATOM     27  C   UNL     1       0.098  10.973  20.778  0.00  0.00    +0.000 A 
ENDBRANCH  20  22
ENDBRANCH  16  17
ENDBRANCH   3  16
TORSDOF 8
ENDMDL
MODEL 3
REMARK VINA RESULT:      -7.3      1.240      1.506
REMARK  Name = 
REMARK  9 active torsions:
REMARK  status: ('A' for Active; 'I' for Inactive)
REMARK    1  A    between atoms: C_1  and  C_2
REMARK    2  A    between atoms: C_2  and  C_3
REMARK    3  A    between atoms: C_3  and  C_4
REMARK    4  A    between atoms: C_4  and  O_5
REMARK    5  A    between atoms: O_5  and  C_6
REMARK    6  A    between atoms: C_11  and  C_12
REMARK    7  A    between atoms: N_14  and  C_15
REMARK    8  A    between atoms: C_15  and  C_16
REMARK    9  A    between atoms: C_19  and  C_20
REMARK                            x       y       z     vdW  Elec       q    Type
REMARK                         _______ _______ _______ _____ _____    ______ ____
ROOT
ATOM      1  C   UNL     1       3.269   6.604  17.830  0.00  0.00    +0.000 C 
ATOM      2  O   UNL     1       4.013   6.978  16.926  0.00  0.00    +0.000 OA
ATOM      3  N   UNL     1       2.430   7.482  18.475  0.00  0.00    +0.000 N 
ATOM      4  H   UNL     1       1.796   7.134  19.186  0.00  0.00    +0.000 HD
ENDROOT
BRANCH   1  10
ATOM      5  C   UNL     1       4.273   4.492  18.975  0.00  0.00    +0.000 A 
ATOM      6  C   UNL     1       4.105   3.126  19.282  0.00  0.00    +0.000 A 
ATOM      7  C   UNL     1       2.980   2.416  18.854  0.00  0.00    +0.000 A 
ATOM      8  C   UNL     1       2.005   3.059  18.111  0.00  0.00    +0.000 A 
ATOM      9  C   UNL     1       2.145   4.415  17.809  0.00  0.00    +0.000 A 
ATOM     10  C   UNL     1       3.269   5.155  18.239  0.00  0.00    +0.000 A 
BRANCH   5  11
ATOM     11  O   UNL     1       5.390   5.203  19.362  0.00  0.00    +0.000 OA
BRANCH  11  12
ATOM     12  C   UNL     1       6.643   4.759  18.829  0.00  0.00    +0.000 C 
BRANCH  12  13
ATOM     13  C   UNL     1       6.920   5.517  17.539  0.00  0.00    +0.000 C 
BRANCH  13  15
ATOM     14  C   UNL     1       5.836   4.122  15.760  0.00  0.00    +0.000 C 
ATOM     15  C   UNL     1       7.156   4.569  16.364  0.00  0.00    +0.000 C 
ENDBRANCH  13  15
ENDBRANCH  12  13
ENDBRANCH  11  12
ENDBRANCH   5  11
ENDBRANCH   1  10
BRANCH   3  16
ATOM     16  C   UNL     1       2.402   8.892  18.136  0.00  0.00    +0.000 C 
BRANCH  16  17
ATOM     17  C   UNL     1       1.159   9.544  18.662  0.00  0.00    +0.000 A 
ATOM     18  C   UNL     1       0.864   9.756  19.997  0.00  0.00    +0.000 A 
ATOM     19  S   UNL     1      -0.670  10.483  20.160  0.00  0.00    +0.000 S 
ATOM     20  C   UNL     1      -0.882  10.431  18.446  0.00  0.00    +0.000 A 
ATOM     21  N   UNL     1       0.146   9.928  17.783  0.00  0.00    +0.000 NA
BRANCH  20  22
ATOM     22  C   UNL     1      -2.176  10.813  17.848  0.00  0.00    +0.000 A 
ATOM     23  C   UNL     1      -3.183  11.475  18.574  0.00  0.00    +0.000 A 
ATOM     24  C   UNL     1      -4.435  11.728  18.003  0.00  0.00    +0.000 A 
ATOM     25  C   UNL     1      -4.695  11.337  16.693  0.00  0.00    +0.000 A 
ATOM     26  C   UNL     1      -3.698  10.719  15.943  0.00  0.00    +0.000 A 
ATOM     27  C   UNL     1      -2.446  10.466  16.515  0.00  0.00    +0.000 A 
ENDBRANCH  20  22
ENDBRANCH  16  17
ENDBRANCH   3  16
TORSDOF 8
ENDMDL
MODEL 4
REMARK VINA RESULT:      -7.3      0.655      1.149
REMARK  Name = 
REMARK  9 active torsions:
REMARK  status: ('A' for Active; 'I' for Inactive)
REMARK    1  A    between atoms: C_1  and  C_2
REMARK    2  A    between atoms: C_2  and  C_3
REMARK    3  A    between atoms: C_3  and  C_4
REMARK    4  A    between atoms: C_4  and  O_5
REMARK    5  A    between atoms: O_5  and  C_6
REMARK    6  A    between atoms: C_11  and  C_12
REMARK    7  A    between atoms: N_14  and  C_15
REMARK    8  A    between atoms: C_15  and  C_16
REMARK    9  A    between atoms: C_19  and  C_20
REMARK                            x       y       z     vdW  Elec       q    Type
REMARK                         _______ _______ _______ _____ _____    ______ ____
ROOT
ATOM      1  C   UNL     1       2.905   6.118  18.674  0.00  0.00    +0.000 C 
ATOM      2  O   UNL     1       4.078   6.376  18.938  0.00  0.00    +0.000 OA
ATOM      3  N   UNL     1       2.023   7.104  18.298  0.00  0.00    +0.000 N 
ATOM      4  H   UNL     1       1.074   6.853  18.043  0.00  0.00    +0.000 HD
ENDROOT
BRANCH   1  10
ATOM      5  C   UNL     1       2.647   3.677  17.806  0.00  0.00    +0.000 A 
ATOM      6  C   UNL     1       2.127   2.389  18.051  0.00  0.00    +0.000 A 
ATOM      7  C   UNL     1       1.378   2.110  19.197  0.00  0.00    +0.000 A 
ATOM      8  C   UNL     1       1.136   3.114  20.118  0.00  0.00    +0.000 A 
ATOM      9  C   UNL     1       1.654   4.392  19.904  0.00  0.00    +0.000 A 
ATOM     10  C   UNL     1       2.421   4.695  18.757  0.00  0.00    +0.000 A 
BRANCH   5  11
ATOM     11  O   UNL     1       3.363   3.980  16.668  0.00  0.00    +0.000 OA
BRANCH  11  12
ATOM     12  C   UNL     1       4.774   3.735  16.720  0.00  0.00    +0.000 C 
BRANCH  12  13
ATOM     13  C   UNL     1       5.489   4.842  15.958  0.00  0.00    +0.000 C 
BRANCH  13  15
ATOM     14  C   UNL     1       6.191   3.926  13.731  0.00  0.00    +0.000 C 
ATOM     15  C   UNL     1       6.652   4.298  15.130  0.00  0.00    +0.000 C 
ENDBRANCH  13  15
ENDBRANCH  12  13
ENDBRANCH  11  12
ENDBRANCH   5  11
ENDBRANCH   1  10
BRANCH   3  16
ATOM     16  C   UNL     1       2.429   8.495  18.219  0.00  0.00    +0.000 C 
BRANCH  16  17
ATOM     17  C   UNL     1       1.292   9.405  18.573  0.00  0.00    +0.000 A 
ATOM     18  C   UNL     1       1.162  10.109  19.757  0.00  0.00    +0.000 A 
ATOM     19  S   UNL     1      -0.301  10.985  19.771  0.00  0.00    +0.000 S 
ATOM     20  C   UNL     1      -0.709  10.338  18.222  0.00  0.00    +0.000 A 
ATOM     21  N   UNL     1       0.208   9.538  17.704  0.00  0.00    +0.000 NA
BRANCH  20  22
ATOM     22  C   UNL     1      -2.039  10.598  17.638  0.00  0.00    +0.000 A 
ATOM     23  C   UNL     1      -2.384  10.211  16.329  0.00  0.00    +0.000 A 
ATOM     24  C   UNL     1      -3.618  10.567  15.774  0.00  0.00    +0.000 A 
ATOM     25  C   UNL     1      -4.533  11.302  16.523  0.00  0.00    +0.000 A 
ATOM     26  C   UNL     1      -4.228  11.658  17.834  0.00  0.00    +0.000 A 
ATOM     27  C   UNL     1      -2.994  11.301  18.389  0.00  0.00    +0.000 A 
ENDBRANCH  20  22
ENDBRANCH  16  17
ENDBRANCH   3  16
TORSDOF 8
ENDMDL
MODEL 5
REMARK VINA RESULT:      -7.2      0.802      1.262
REMARK  Name = 
REMARK  9 active torsions:
REMARK  status: ('A' for Active; 'I' for Inactive)
REMARK    1  A    between atoms: C_1  and  C_2
REMARK    2  A    between atoms: C_2  and  C_3
REMARK    3  A    between atoms: C_3  and  C_4
REMARK    4  A    between atoms: C_4  and  O_5
REMARK    5  A    between atoms: O_5  and  C_6
REMARK    6  A    between atoms: C_11  and  C_12
REMARK    7  A    between atoms: N_14  and  C_15
REMARK    8  A    between atoms: C_15  and  C_16
REMARK    9  A    between atoms: C_19  and  C_20
REMARK                            x       y       z     vdW  Elec       q    Type
REMARK                         _______ _______ _______ _____ _____    ______ ____
ROOT
ATOM      1  C   UNL     1       2.364   6.401  19.186  0.00  0.00    +0.000 C 
ATOM      2  O   UNL     1       2.648   6.857  20.292  0.00  0.00    +0.000 OA
ATOM      3  N   UNL     1       2.285   7.212  18.078  0.00  0.00    +0.000 N 
ATOM      4  H   UNL     1       2.093   6.799  17.172  0.00  0.00    +0.000 HD
ENDROOT
BRANCH   1  10
ATOM      5  C   UNL     1       2.660   4.072  18.061  0.00  0.00    +0.000 A 
ATOM      6  C   UNL     1       2.313   2.705  18.073  0.00  0.00    +0.000 A 
ATOM      7  C   UNL     1       1.414   2.189  19.011  0.00  0.00    +0.000 A 
ATOM      8  C   UNL     1       0.849   3.031  19.953  0.00  0.00    +0.000 A 
ATOM      9  C   UNL     1       1.191   4.385  19.969  0.00  0.00    +0.000 A 
ATOM     10  C   UNL     1       2.103   4.926  19.036  0.00  0.00    +0.000 A 
BRANCH   5  11
ATOM     11  O   UNL     1       3.521   4.606  17.125  0.00  0.00    +0.000 OA
BRANCH  11  12
ATOM     12  C   UNL     1       4.469   3.702  16.545  0.00  0.00    +0.000 C 
BRANCH  12  13
ATOM     13  C   UNL     1       5.855   4.326  16.634  0.00  0.00    +0.000 C 
BRANCH  13  15
ATOM     14  C   UNL     1       7.636   5.212  18.160  0.00  0.00    +0.000 C 
ATOM     15  C   UNL     1       6.190   4.758  18.060  0.00  0.00    +0.000 C 
ENDBRANCH  13  15
ENDBRANCH  12  13
ENDBRANCH  11  12
ENDBRANCH   5  11
ENDBRANCH   1  10
BRANCH   3  16
ATOM     16  C   UNL     1       2.508   8.642  18.167  0.00  0.00    +0.000 C 
BRANCH  16  17
ATOM     17  C   UNL     1       1.276   9.347  18.651  0.00  0.00    +0.000 A 
ATOM     18  C   UNL     1       0.975   9.628  19.971  0.00  0.00    +0.000 A 
ATOM     19  S   UNL     1      -0.543  10.397  20.086  0.00  0.00    +0.000 S 
ATOM     20  C   UNL     1      -0.743  10.267  18.374  0.00  0.00    +0.000 A 
ATOM     21  N   UNL     1       0.279   9.710  17.745  0.00  0.00    +0.000 NA
BRANCH  20  22
ATOM     22  C   UNL     1      -2.022  10.650  17.747  0.00  0.00    +0.000 A 
ATOM     23  C   UNL     1      -2.985  11.439  18.403  0.00  0.00    +0.000 A 
ATOM     24  C   UNL     1      -4.230  11.693  17.816  0.00  0.00    +0.000 A 
ATOM     25  C   UNL     1      -4.525  11.175  16.558  0.00  0.00    +0.000 A 
ATOM     26  C   UNL     1      -3.571  10.428  15.874  0.00  0.00    +0.000 A 
ATOM     27  C   UNL     1      -2.327  10.174  16.461  0.00  0.00    +0.000 A 
ENDBRANCH  20  22
ENDBRANCH  16  17
ENDBRANCH   3  16
TORSDOF 8
ENDMDL
MODEL 6
REMARK VINA RESULT:      -7.2      3.161      4.957
REMARK  Name = 
REMARK  9 active torsions:
REMARK  status: ('A' for Active; 'I' for Inactive)
REMARK    1  A    between atoms: C_1  and  C_2
REMARK    2  A    between atoms: C_2  and  C_3
REMARK    3  A    between atoms: C_3  and  C_4
REMARK    4  A    between atoms: C_4  and  O_5
REMARK    5  A    between atoms: O_5  and  C_6
REMARK    6  A    between atoms: C_11  and  C_12
REMARK    7  A    between atoms: N_14  and  C_15
REMARK    8  A    between atoms: C_15  and  C_16
REMARK    9  A    between atoms: C_19  and  C_20
REMARK                            x       y       z     vdW  Elec       q    Type
REMARK                         _______ _______ _______ _____ _____    ______ ____
ROOT
ATOM      1  C   UNL     1       2.533   8.005  18.043  0.00  0.00    +0.000 C 
ATOM      2  O   UNL     1       2.453   8.669  17.011  0.00  0.00    +0.000 OA
ATOM      3  N   UNL     1       1.816   8.341  19.167  0.00  0.00    +0.000 N 
ATOM      4  H   UNL     1       1.869   7.747  19.988  0.00  0.00    +0.000 HD
ENDROOT
BRANCH   1  10
ATOM      5  C   UNL     1       3.193   5.601  18.793  0.00  0.00    +0.000 A 
ATOM      6  C   UNL     1       4.136   4.556  18.703  0.00  0.00    +0.000 A 
ATOM      7  C   UNL     1       5.302   4.689  17.943  0.00  0.00    +0.000 A 
ATOM      8  C   UNL     1       5.543   5.868  17.260  0.00  0.00    +0.000 A 
ATOM      9  C   UNL     1       4.615   6.909  17.322  0.00  0.00    +0.000 A 
ATOM     10  C   UNL     1       3.427   6.794  18.077  0.00  0.00    +0.000 A 
BRANCH   5  11
ATOM     11  O   UNL     1       2.053   5.501  19.561  0.00  0.00    +0.000 OA
BRANCH  11  12
ATOM     12  C   UNL     1       2.224   4.993  20.891  0.00  0.00    +0.000 C 
BRANCH  12  13
ATOM     13  C   UNL     1       1.535   3.639  20.989  0.00  0.00    +0.000 C 
BRANCH  13  15
ATOM     14  C   UNL     1       1.327   2.125  19.000  0.00  0.00    +0.000 C 
ATOM     15  C   UNL     1       0.734   3.320  19.727  0.00  0.00    +0.000 C 
ENDBRANCH  13  15
ENDBRANCH  12  13
ENDBRANCH  11  12
ENDBRANCH   5  11
ENDBRANCH   1  10
BRANCH   3  16
ATOM     16  C   UNL     1       0.954   9.507  19.197  0.00  0.00    +0.000 C 
BRANCH  16  17
ATOM     17  C   UNL     1       0.476   9.784  20.590  0.00  0.00    +0.000 A 
ATOM     18  C   UNL     1       0.501   8.887  21.643  0.00  0.00    +0.000 A 
ATOM     19  S   UNL     1      -0.181   9.590  23.040  0.00  0.00    +0.000 S 
ATOM     20  C   UNL     1      -0.520  11.034  22.154  0.00  0.00    +0.000 A 
ATOM     21  N   UNL     1      -0.120  11.008  20.893  0.00  0.00    +0.000 NA
BRANCH  20  22
ATOM     22  C   UNL     1      -1.306  12.117  22.776  0.00  0.00    +0.000 A 
ATOM     23  C   UNL     1      -0.781  13.402  23.005  0.00  0.00    +0.000 A 
ATOM     24  C   UNL     1      -1.521  14.371  23.692  0.00  0.00    +0.000 A 
ATOM     25  C   UNL     1      -2.803  14.075  24.146  0.00  0.00    +0.000 A 
ATOM     26  C   UNL     1      -3.357  12.824  23.893  0.00  0.00    +0.000 A 
ATOM     27  C   UNL     1      -2.617  11.855  23.206  0.00  0.00    +0.000 A 
ENDBRANCH  20  22
ENDBRANCH  16  17
ENDBRANCH   3  16
TORSDOF 8
ENDMDL
MODEL 7
REMARK VINA RESULT:      -7.1      3.136      4.743
REMARK  Name = 
REMARK  9 active torsions:
REMARK  status: ('A' for Active; 'I' for Inactive)
REMARK    1  A    between atoms: C_1  and  C_2
REMARK    2  A    between atoms: C_2  and  C_3
REMARK    3  A    between atoms: C_3  and  C_4
REMARK    4  A    between atoms: C_4  and  O_5
REMARK    5  A    between atoms: O_5  and  C_6
REMARK    6  A    between atoms: C_11  and  C_12
REMARK    7  A    between atoms: N_14  and  C_15
REMARK    8  A    between atoms: C_15  and  C_16
REMARK    9  A    between atoms: C_19  and  C_20
REMARK                            x       y       z     vdW  Elec       q    Type
REMARK                         _______ _______ _______ _____ _____    ______ ____
ROOT
ATOM      1  C   UNL     1       3.828   4.964  17.799  0.00  0.00    +0.000 C 
ATOM      2  O   UNL     1       2.776   4.381  17.544  0.00  0.00    +0.000 OA
ATOM      3  N   UNL     1       3.958   5.748  18.921  0.00  0.00    +0.000 N 
ATOM      4  H   UNL     1       4.853   6.180  19.126  0.00  0.00    +0.000 HD
ENDROOT
BRANCH   1  10
ATOM      5  C   UNL     1       6.363   4.979  17.205  0.00  0.00    +0.000 A 
ATOM      6  C   UNL     1       7.341   4.788  16.205  0.00  0.00    +0.000 A 
ATOM      7  C   UNL     1       6.987   4.466  14.892  0.00  0.00    +0.000 A 
ATOM      8  C   UNL     1       5.652   4.329  14.556  0.00  0.00    +0.000 A 
ATOM      9  C   UNL     1       4.669   4.497  15.533  0.00  0.00    +0.000 A 
ATOM     10  C   UNL     1       5.003   4.815  16.869  0.00  0.00    +0.000 A 
BRANCH   5  11
ATOM     11  O   UNL     1       6.690   5.326  18.498  0.00  0.00    +0.000 OA
BRANCH  11  12
ATOM     12  C   UNL     1       7.862   6.134  18.663  0.00  0.00    +0.000 C 
BRANCH  12  13
ATOM     13  C   UNL     1       7.679   7.425  17.877  0.00  0.00    +0.000 C 
BRANCH  13  15
ATOM     14  C   UNL     1       8.113   9.894  17.849  0.00  0.00    +0.000 C 
ATOM     15  C   UNL     1       8.524   8.561  18.450  0.00  0.00    +0.000 C 
ENDBRANCH  13  15
ENDBRANCH  12  13
ENDBRANCH  11  12
ENDBRANCH   5  11
ENDBRANCH   1  10
BRANCH   3  16
ATOM     16  C   UNL     1       2.854   5.943  19.841  0.00  0.00    +0.000 C 
BRANCH  16  17
ATOM     17  C   UNL     1       2.198   7.272  19.616  0.00  0.00    +0.000 A 
ATOM     18  C   UNL     1       2.354   8.068  18.496  0.00  0.00    +0.000 A 
ATOM     19  S   UNL     1       1.470   9.516  18.666  0.00  0.00    +0.000 S 
ATOM     20  C   UNL     1       0.969   9.030  20.246  0.00  0.00    +0.000 A 
ATOM     21  N   UNL     1       1.408   7.839  20.617  0.00  0.00    +0.000 NA
BRANCH  20  22
ATOM     22  C   UNL     1       0.219   9.966  21.106  0.00  0.00    +0.000 A 
ATOM     23  C   UNL     1       0.076  11.332  20.800  0.00  0.00    +0.000 A 
ATOM     24  C   UNL     1      -0.553  12.208  21.691  0.00  0.00    +0.000 A 
ATOM     25  C   UNL     1      -1.061  11.730  22.896  0.00  0.00    +0.000 A 
ATOM     26  C   UNL     1      -0.967  10.375  23.200  0.00  0.00    +0.000 A 
ATOM     27  C   UNL     1      -0.339   9.499  22.307  0.00  0.00    +0.000 A 
ENDBRANCH  20  22
ENDBRANCH  16  17
ENDBRANCH   3  16
TORSDOF 8
ENDMDL
MODEL 8
REMARK VINA RESULT:      -7.1      1.747      2.171
REMARK  Name = 
REMARK  9 active torsions:
REMARK  status: ('A' for Active; 'I' for Inactive)
REMARK    1  A    between atoms: C_1  and  C_2
REMARK    2  A    between atoms: C_2  and  C_3
REMARK    3  A    between atoms: C_3  and  C_4
REMARK    4  A    between atoms: C_4  and  O_5
REMARK    5  A    between atoms: O_5  and  C_6
REMARK    6  A    between atoms: C_11  and  C_12
REMARK    7  A    between atoms: N_14  and  C_15
REMARK    8  A    between atoms: C_15  and  C_16
REMARK    9  A    between atoms: C_19  and  C_20
REMARK                            x       y       z     vdW  Elec       q    Type
REMARK                         _______ _______ _______ _____ _____    ______ ____
ROOT
ATOM      1  C   UNL     1       2.023   6.096  20.188  0.00  0.00    +0.000 C 
ATOM      2  O   UNL     1       1.841   5.637  21.314  0.00  0.00    +0.000 OA
ATOM      3  N   UNL     1       1.918   7.444  19.939  0.00  0.00    +0.000 N 
ATOM      4  H   UNL     1       2.118   7.796  19.009  0.00  0.00    +0.000 HD
ENDROOT
BRANCH   1  10
ATOM      5  C   UNL     1       3.425   5.334  18.130  0.00  0.00    +0.000 A 
ATOM      6  C   UNL     1       3.620   4.354  17.135  0.00  0.00    +0.000 A 
ATOM      7  C   UNL     1       2.782   3.240  17.034  0.00  0.00    +0.000 A 
ATOM      8  C   UNL     1       1.736   3.087  17.928  0.00  0.00    +0.000 A 
ATOM      9  C   UNL     1       1.535   4.037  18.931  0.00  0.00    +0.000 A 
ATOM     10  C   UNL     1       2.374   5.166  19.056  0.00  0.00    +0.000 A 
BRANCH   5  11
ATOM     11  O   UNL     1       4.222   6.455  18.227  0.00  0.00    +0.000 OA
BRANCH  11  12
ATOM     12  C   UNL     1       5.468   6.413  17.521  0.00  0.00    +0.000 C 
BRANCH  12  13
ATOM     13  C   UNL     1       6.517   5.775  18.421  0.00  0.00    +0.000 C 
BRANCH  13  15
ATOM     14  C   UNL     1       7.682   7.833  17.584  0.00  0.00    +0.000 C 
ATOM     15  C   UNL     1       7.797   6.609  18.476  0.00  0.00    +0.000 C 
ENDBRANCH  13  15
ENDBRANCH  12  13
ENDBRANCH  11  12
ENDBRANCH   5  11
ENDBRANCH   1  10
BRANCH   3  16
ATOM     16  C   UNL     1       1.564   8.383  20.986  0.00  0.00    +0.000 C 
BRANCH  16  17
ATOM     17  C   UNL     1       0.824   9.558  20.423  0.00  0.00    +0.000 A 
ATOM     18  C   UNL     1       0.914  10.861  20.879  0.00  0.00    +0.000 A 
ATOM     19  S   UNL     1      -0.129  11.877  19.991  0.00  0.00    +0.000 S 
ATOM     20  C   UNL     1      -0.685  10.518  19.080  0.00  0.00    +0.000 A 
ATOM     21  N   UNL     1      -0.103   9.373  19.397  0.00  0.00    +0.000 NA
BRANCH  20  22
ATOM     22  C   UNL     1      -1.805  10.670  18.133  0.00  0.00    +0.000 A 
ATOM     23  C   UNL     1      -2.890  11.535  18.369  0.00  0.00    +0.000 A 
ATOM     24  C   UNL     1      -3.984  11.574  17.498  0.00  0.00    +0.000 A 
ATOM     25  C   UNL     1      -4.005  10.760  16.369  0.00  0.00    +0.000 A 
ATOM     26  C   UNL     1      -2.924   9.927  16.095  0.00  0.00    +0.000 A 
ATOM     27  C   UNL     1      -1.830   9.888  16.966  0.00  0.00    +0.000 A 
ENDBRANCH  20  22
ENDBRANCH  16  17
ENDBRANCH   3  16
TORSDOF 8
ENDMDL
MODEL 9
REMARK VINA RESULT:      -7.0      1.291      1.465
REMARK  Name = 
REMARK  9 active torsions:
REMARK  status: ('A' for Active; 'I' for Inactive)
REMARK    1  A    between atoms: C_1  and  C_2
REMARK    2  A    between atoms: C_2  and  C_3
REMARK    3  A    between atoms: C_3  and  C_4
REMARK    4  A    between atoms: C_4  and  O_5
REMARK    5  A    between atoms: O_5  and  C_6
REMARK    6  A    between atoms: C_11  and  C_12
REMARK    7  A    between atoms: N_14  and  C_15
REMARK    8  A    between atoms: C_15  and  C_16
REMARK    9  A    between atoms: C_19  and  C_20
REMARK                            x       y       z     vdW  Elec       q    Type
REMARK                         _______ _______ _______ _____ _____    ______ ____
ROOT
ATOM      1  C   UNL     1       2.334   5.894  18.597  0.00  0.00    +0.000 C 
ATOM      2  O   UNL     1       1.698   5.721  17.560  0.00  0.00    +0.000 OA
ATOM      3  N   UNL     1       2.781   7.142  18.961  0.00  0.00    +0.000 N 
ATOM      4  H   UNL     1       3.265   7.260  19.845  0.00  0.00    +0.000 HD
ENDROOT
BRANCH   1  10
ATOM      5  C   UNL     1       3.563   3.693  19.248  0.00  0.00    +0.000 A 
ATOM      6  C   UNL     1       3.718   2.669  20.206  0.00  0.00    +0.000 A 
ATOM      7  C   UNL     1       2.949   2.640  21.373  0.00  0.00    +0.000 A 
ATOM      8  C   UNL     1       2.014   3.634  21.602  0.00  0.00    +0.000 A 
ATOM      9  C   UNL     1       1.856   4.666  20.675  0.00  0.00    +0.000 A 
ATOM     10  C   UNL     1       2.627   4.720  19.493  0.00  0.00    +0.000 A 
BRANCH   5  11
ATOM     11  O   UNL     1       4.290   3.723  18.077  0.00  0.00    +0.000 OA
BRANCH  11  12
ATOM     12  C   UNL     1       5.608   4.279  18.160  0.00  0.00    +0.000 C 
BRANCH  12  13
ATOM     13  C   UNL     1       5.630   5.597  17.399  0.00  0.00    +0.000 C 
BRANCH  13  15
ATOM     14  C   UNL     1       6.571   4.237  15.515  0.00  0.00    +0.000 C 
ATOM     15  C   UNL     1       5.640   5.377  15.887  0.00  0.00    +0.000 C 
ENDBRANCH  13  15
ENDBRANCH  12  13
ENDBRANCH  11  12
ENDBRANCH   5  11
ENDBRANCH   1  10
BRANCH   3  16
ATOM     16  C   UNL     1       2.545   8.306  18.128  0.00  0.00    +0.000 C 
BRANCH  16  17
ATOM     17  C   UNL     1       1.350   9.073  18.608  0.00  0.00    +0.000 A 
ATOM     18  C   UNL     1       1.074   9.394  19.925  0.00  0.00    +0.000 A 
ATOM     19  S   UNL     1      -0.408  10.231  20.036  0.00  0.00    +0.000 S 
ATOM     20  C   UNL     1      -0.629  10.077  18.330  0.00  0.00    +0.000 A 
ATOM     21  N   UNL     1       0.362   9.463  17.703  0.00  0.00    +0.000 NA
BRANCH  20  22
ATOM     22  C   UNL     1      -1.896  10.503  17.705  0.00  0.00    +0.000 A 
ATOM     23  C   UNL     1      -2.835  11.314  18.368  0.00  0.00    +0.000 A 
ATOM     24  C   UNL     1      -4.071  11.611  17.783  0.00  0.00    +0.000 A 
ATOM     25  C   UNL     1      -4.382  11.114  16.521  0.00  0.00    +0.000 A 
ATOM     26  C   UNL     1      -3.450  10.344  15.831  0.00  0.00    +0.000 A 
ATOM     27  C   UNL     1      -2.214  10.048  16.415  0.00  0.00    +0.000 A 
ENDBRANCH  20  22
ENDBRANCH  16  17
ENDBRANCH   3  16
TORSDOF 8
ENDMDL
