MODEL 1
REMARK VINA RESULT:      -7.7      0.000      0.000
REMARK  Name = 
REMARK  5 active torsions:
REMARK  status: ('A' for Active; 'I' for Inactive)
REMARK    1  A    between atoms: C_1  and  C_2
REMARK    2  A    between atoms: C_4  and  C_5
REMARK    3  A    between atoms: C_8  and  C_9
REMARK    4  A    between atoms: C_9  and  N_10
REMARK    5  A    between atoms: C_11  and  C_13
REMARK                            x       y       z     vdW  Elec       q    Type
REMARK                         _______ _______ _______ _____ _____    ______ ____
ROOT
ATOM      1  C   UNL     1       2.356   8.976  17.921  0.00  0.00    +0.000 C 
ENDROOT
BRANCH   1   9
ATOM      2  C   UNL     1       2.327   2.800  21.682  0.00  0.00    +0.000 C 
ATOM      3  C   UNL     1       2.538   3.815  20.582  0.00  0.00    +0.000 A 
ATOM      4  C   UNL     1       3.179   3.316  19.323  0.00  0.00    +0.000 A 
ATOM      5  C   UNL     1       3.367   4.223  18.349  0.00  0.00    +0.000 A 
ATOM      6  C   UNL     1       3.994   3.887  17.032  0.00  0.00    +0.000 C 
ATOM      7  N   UNL     1       2.956   5.542  18.571  0.00  0.00    +0.000 N 
ATOM      8  N   UNL     1       3.040   6.607  17.740  0.00  0.00    +0.000 NA
ATOM      9  C   UNL     1       2.493   7.589  18.464  0.00  0.00    +0.000 A 
ATOM     10  N   UNL     1       2.060   7.215  19.715  0.00  0.00    +0.000 NA
ATOM     11  C   UNL     1       2.358   5.932  19.777  0.00  0.00    +0.000 A 
ATOM     12  N   UNL     1       2.153   5.040  20.794  0.00  0.00    +0.000 NA
ENDBRANCH   1   9
BRANCH   1  13
ATOM     13  N   UNL     1       0.972   9.339  17.703  0.00  0.00    +0.000 N 
ATOM     14  C   UNL     1       0.334  10.167  18.599  0.00  0.00    +0.000 C 
ATOM     15  O   UNL     1       0.882  10.619  19.600  0.00  0.00    +0.000 OA
ATOM     16  H   UNL     1       0.572   9.110  16.801  0.00  0.00    +0.000 HD
BRANCH  14  17
ATOM     17  C   UNL     1      -1.079  10.529  18.300  0.00  0.00    +0.000 A 
ATOM     18  C   UNL     1      -1.772  11.480  19.055  0.00  0.00    +0.000 A 
ATOM     19  C   UNL     1      -3.093  11.806  18.728  0.00  0.00    +0.000 A 
ATOM     20  C   UNL     1      -3.716  11.184  17.646  0.00  0.00    +0.000 A 
ATOM     21 CL   UNL     1      -5.343  11.583  17.254  0.00  0.00    +0.000 Cl
ATOM     22  C   UNL     1      -3.027  10.248  16.876  0.00  0.00    +0.000 A 
ATOM     23  C   UNL     1      -1.706   9.926  17.198  0.00  0.00    +0.000 A 
ENDBRANCH  14  17
ENDBRANCH   1  13
TORSDOF 3
ENDMDL
MODEL 2
REMARK VINA RESULT:      -7.7      0.144      1.043
REMARK  Name = 
REMARK  5 active torsions:
REMARK  status: ('A' for Active; 'I' for Inactive)
REMARK    1  A    between atoms: C_1  and  C_2
REMARK    2  A    between atoms: C_4  and  C_5
REMARK    3  A    between atoms: C_8  and  C_9
REMARK    4  A    between atoms: C_9  and  N_10
REMARK    5  A    between atoms: C_11  and  C_13
REMARK                            x       y       z     vdW  Elec       q    Type
REMARK                         _______ _______ _______ _____ _____    ______ ____
ROOT
ATOM      1  C   UNL     1       2.329   9.130  18.020  0.00  0.00    +0.000 C 
ENDROOT
BRANCH   1   9
ATOM      2  C   UNL     1       2.276   2.875  21.647  0.00  0.00    +0.000 C 
ATOM      3  C   UNL     1       2.508   3.917  20.577  0.00  0.00    +0.000 A 
ATOM      4  C   UNL     1       3.206   3.457  19.334  0.00  0.00    +0.000 A 
ATOM      5  C   UNL     1       3.413   4.388  18.386  0.00  0.00    +0.000 A 
ATOM      6  C   UNL     1       4.096   4.092  17.088  0.00  0.00    +0.000 C 
ATOM      7  N   UNL     1       2.969   5.694  18.620  0.00  0.00    +0.000 N 
ATOM      8  N   UNL     1       3.064   6.778  17.815  0.00  0.00    +0.000 NA
ATOM      9  C   UNL     1       2.471   7.734  18.538  0.00  0.00    +0.000 A 
ATOM     10  N   UNL     1       1.998   7.325  19.763  0.00  0.00    +0.000 NA
ATOM     11  C   UNL     1       2.318   6.047  19.811  0.00  0.00    +0.000 A 
ATOM     12  N   UNL     1       2.092   5.130  20.800  0.00  0.00    +0.000 NA
ENDBRANCH   1   9
BRANCH   1  13
ATOM     13  N   UNL     1       0.950   9.463  17.732  0.00  0.00    +0.000 N 
ATOM     14  C   UNL     1       0.229  10.221  18.629  0.00  0.00    +0.000 C 
ATOM     15  O   UNL     1       0.699  10.632  19.685  0.00  0.00    +0.000 OA
ATOM     16  H   UNL     1       0.615   9.273  16.795  0.00  0.00    +0.000 HD
BRANCH  14  17
ATOM     17  C   UNL     1      -1.173  10.557  18.258  0.00  0.00    +0.000 A 
ATOM     18  C   UNL     1      -1.816   9.949  17.175  0.00  0.00    +0.000 A 
ATOM     19  C   UNL     1      -3.141  10.280  16.872  0.00  0.00    +0.000 A 
ATOM     20  C   UNL     1      -3.822  11.214  17.654  0.00  0.00    +0.000 A 
ATOM     21 CL   UNL     1      -5.448  11.622  17.272  0.00  0.00    +0.000 Cl
ATOM     22  C   UNL     1      -3.195  11.812  18.746  0.00  0.00    +0.000 A 
ATOM     23  C   UNL     1      -1.873  11.478  19.053  0.00  0.00    +0.000 A 
ENDBRANCH  14  17
ENDBRANCH   1  13
TORSDOF 3
ENDMDL
MODEL 3
REMARK VINA RESULT:      -7.3      5.673      7.819
REMARK  Name = 
REMARK  5 active torsions:
REMARK  status: ('A' for Active; 'I' for Inactive)
REMARK    1  A    between atoms: C_1  and  C_2
REMARK    2  A    between atoms: C_4  and  C_5
REMARK    3  A    between atoms: C_8  and  C_9
REMARK    4  A    between atoms: C_9  and  N_10
REMARK    5  A    between atoms: C_11  and  C_13
REMARK                            x       y       z     vdW  Elec       q    Type
REMARK                         _______ _______ _______ _____ _____    ______ ____
ROOT
ATOM      1  C   UNL     1       7.739   5.631  18.487  0.00  0.00    +0.000 C 
ENDROOT
BRANCH   1   9
ATOM      2  C   UNL     1       1.185   3.283  20.443  0.00  0.00    +0.000 C 
ATOM      3  C   UNL     1       2.301   4.127  19.869  0.00  0.00    +0.000 A 
ATOM      4  C   UNL     1       1.902   5.423  19.232  0.00  0.00    +0.000 A 
ATOM      5  C   UNL     1       2.897   6.168  18.720  0.00  0.00    +0.000 A 
ATOM      6  C   UNL     1       2.666   7.486  18.050  0.00  0.00    +0.000 C 
ATOM      7  N   UNL     1       4.209   5.695  18.820  0.00  0.00    +0.000 N 
ATOM      8  N   UNL     1       5.354   6.272  18.386  0.00  0.00    +0.000 NA
ATOM      9  C   UNL     1       6.287   5.389  18.755  0.00  0.00    +0.000 A 
ATOM     10  N   UNL     1       5.808   4.275  19.404  0.00  0.00    +0.000 NA
ATOM     11  C   UNL     1       4.505   4.470  19.436  0.00  0.00    +0.000 A 
ATOM     12  N   UNL     1       3.520   3.682  19.966  0.00  0.00    +0.000 NA
ENDBRANCH   1   9
BRANCH   1  13
ATOM     13  N   UNL     1       8.144   6.969  18.862  0.00  0.00    +0.000 N 
ATOM     14  C   UNL     1       8.123   7.977  17.924  0.00  0.00    +0.000 C 
ATOM     15  O   UNL     1       7.779   7.799  16.759  0.00  0.00    +0.000 OA
ATOM     16  H   UNL     1       8.263   7.155  19.851  0.00  0.00    +0.000 HD
BRANCH  14  17
ATOM     17  C   UNL     1       8.519   9.337  18.381  0.00  0.00    +0.000 A 
ATOM     18  C   UNL     1       9.165   9.545  19.604  0.00  0.00    +0.000 A 
ATOM     19  C   UNL     1       9.538  10.838  19.987  0.00  0.00    +0.000 A 
ATOM     20  C   UNL     1       9.266  11.918  19.148  0.00  0.00    +0.000 A 
ATOM     21 CL   UNL     1       9.719  13.507  19.629  0.00  0.00    +0.000 Cl
ATOM     22  C   UNL     1       8.638  11.719  17.920  0.00  0.00    +0.000 A 
ATOM     23  C   UNL     1       8.271  10.428  17.532  0.00  0.00    +0.000 A 
ENDBRANCH  14  17
ENDBRANCH   1  13
TORSDOF 3
ENDMDL
MODEL 4
REMARK VINA RESULT:      -7.3      1.376      1.936
REMARK  Name = 
REMARK  5 active torsions:
REMARK  status: ('A' for Active; 'I' for Inactive)
REMARK    1  A    between atoms: C_1  and  C_2
REMARK    2  A    between atoms: C_4  and  C_5
REMARK    3  A    between atoms: C_8  and  C_9
REMARK    4  A    between atoms: C_9  and  N_10
REMARK    5  A    between atoms: C_11  and  C_13
REMARK                            x       y       z     vdW  Elec       q    Type
REMARK                         _______ _______ _______ _____ _____    ______ ____
ROOT
ATOM      1  C   UNL     1       2.575   9.311  18.133  0.00  0.00    +0.000 C 
ENDROOT
BRANCH   1   9
ATOM      2  C   UNL     1       2.745   2.084  17.980  0.00  0.00    +0.000 C 
ATOM      3  C   UNL     1       3.100   3.538  17.765  0.00  0.00    +0.000 A 
ATOM      4  C   UNL     1       4.334   3.815  16.962  0.00  0.00    +0.000 A 
ATOM      5  C   UNL     1       4.647   5.109  16.776  0.00  0.00    +0.000 A 
ATOM      6  C   UNL     1       5.846   5.554  15.999  0.00  0.00    +0.000 C 
ATOM      7  N   UNL     1       3.814   6.087  17.329  0.00  0.00    +0.000 N 
ATOM      8  N   UNL     1       3.931   7.434  17.266  0.00  0.00    +0.000 NA
ATOM      9  C   UNL     1       2.865   7.855  17.956  0.00  0.00    +0.000 A 
ATOM     10  N   UNL     1       2.068   6.853  18.459  0.00  0.00    +0.000 NA
ATOM     11  C   UNL     1       2.671   5.748  18.068  0.00  0.00    +0.000 A 
ATOM     12  N   UNL     1       2.321   4.443  18.282  0.00  0.00    +0.000 NA
ENDBRANCH   1   9
BRANCH   1  13
ATOM     13  N   UNL     1       1.211   9.640  17.775  0.00  0.00    +0.000 N 
ATOM     14  C   UNL     1       0.342  10.095  18.742  0.00  0.00    +0.000 C 
ATOM     15  O   UNL     1       0.664  10.233  19.918  0.00  0.00    +0.000 OA
ATOM     16  H   UNL     1       0.993   9.690  16.787  0.00  0.00    +0.000 HD
BRANCH  14  17
ATOM     17  C   UNL     1      -1.036  10.447  18.302  0.00  0.00    +0.000 A 
ATOM     18  C   UNL     1      -1.635   9.839  17.194  0.00  0.00    +0.000 A 
ATOM     19  C   UNL     1      -2.940  10.186  16.827  0.00  0.00    +0.000 A 
ATOM     20  C   UNL     1      -3.643  11.136  17.567  0.00  0.00    +0.000 A 
ATOM     21 CL   UNL     1      -5.244  11.563  17.105  0.00  0.00    +0.000 Cl
ATOM     22  C   UNL     1      -3.061  11.734  18.684  0.00  0.00    +0.000 A 
ATOM     23  C   UNL     1      -1.760  11.384  19.056  0.00  0.00    +0.000 A 
ENDBRANCH  14  17
ENDBRANCH   1  13
TORSDOF 3
ENDMDL
MODEL 5
REMARK VINA RESULT:      -7.3      5.725      7.849
REMARK  Name = 
REMARK  5 active torsions:
REMARK  status: ('A' for Active; 'I' for Inactive)
REMARK    1  A    between atoms: C_1  and  C_2
REMARK    2  A    between atoms: C_4  and  C_5
REMARK    3  A    between atoms: C_8  and  C_9
REMARK    4  A    between atoms: C_9  and  N_10
REMARK    5  A    between atoms: C_11  and  C_13
REMARK                            x       y       z     vdW  Elec       q    Type
REMARK                         _______ _______ _______ _____ _____    ______ ____
ROOT
ATOM      1  C   UNL     1       7.134   6.547  16.816  0.00  0.00    +0.000 C 
ENDROOT
BRANCH   1   9
ATOM      2  C   UNL     1       2.037   3.580  20.999  0.00  0.00    +0.000 C 
ATOM      3  C   UNL     1       2.763   4.512  20.056  0.00  0.00    +0.000 A 
ATOM      4  C   UNL     1       2.005   5.715  19.585  0.00  0.00    +0.000 A 
ATOM      5  C   UNL     1       2.654   6.538  18.744  0.00  0.00    +0.000 A 
ATOM      6  C   UNL     1       2.037   7.781  18.182  0.00  0.00    +0.000 C 
ATOM      7  N   UNL     1       3.967   6.225  18.378  0.00  0.00    +0.000 N 
ATOM      8  N   UNL     1       4.803   6.904  17.558  0.00  0.00    +0.000 NA
ATOM      9  C   UNL     1       5.912   6.157  17.584  0.00  0.00    +0.000 A 
ATOM     10  N   UNL     1       5.836   5.034  18.375  0.00  0.00    +0.000 NA
ATOM     11  C   UNL     1       4.613   5.080  18.865  0.00  0.00    +0.000 A 
ATOM     12  N   UNL     1       3.985   4.215  19.720  0.00  0.00    +0.000 NA
ENDBRANCH   1   9
BRANCH   1  13
ATOM     13  N   UNL     1       7.527   7.915  17.080  0.00  0.00    +0.000 N 
ATOM     14  C   UNL     1       8.244   8.212  18.217  0.00  0.00    +0.000 C 
ATOM     15  O   UNL     1       8.570   7.365  19.042  0.00  0.00    +0.000 OA
ATOM     16  H   UNL     1       7.410   8.582  16.326  0.00  0.00    +0.000 HD
BRANCH  14  17
ATOM     17  C   UNL     1       8.645   9.632  18.413  0.00  0.00    +0.000 A 
ATOM     18  C   UNL     1       8.231  10.643  17.539  0.00  0.00    +0.000 A 
ATOM     19  C   UNL     1       8.615  11.969  17.771  0.00  0.00    +0.000 A 
ATOM     20  C   UNL     1       9.409  12.281  18.875  0.00  0.00    +0.000 A 
ATOM     21 CL   UNL     1       9.884  13.911  19.150  0.00  0.00    +0.000 Cl
ATOM     22  C   UNL     1       9.812  11.283  19.761  0.00  0.00    +0.000 A 
ATOM     23  C   UNL     1       9.423   9.960  19.535  0.00  0.00    +0.000 A 
ENDBRANCH  14  17
ENDBRANCH   1  13
TORSDOF 3
ENDMDL
MODEL 6
REMARK VINA RESULT:      -7.2      1.432      1.693
REMARK  Name = 
REMARK  5 active torsions:
REMARK  status: ('A' for Active; 'I' for Inactive)
REMARK    1  A    between atoms: C_1  and  C_2
REMARK    2  A    between atoms: C_4  and  C_5
REMARK    3  A    between atoms: C_8  and  C_9
REMARK    4  A    between atoms: C_9  and  N_10
REMARK    5  A    between atoms: C_11  and  C_13
REMARK                            x       y       z     vdW  Elec       q    Type
REMARK                         _______ _______ _______ _____ _____    ______ ____
ROOT
ATOM      1  C   UNL     1       2.520   9.076  18.057  0.00  0.00    +0.000 C 
ENDROOT
BRANCH   1   9
ATOM      2  C   UNL     1       3.099   1.869  18.032  0.00  0.00    +0.000 C 
ATOM      3  C   UNL     1       3.364   3.336  17.781  0.00  0.00    +0.000 A 
ATOM      4  C   UNL     1       4.561   3.667  16.942  0.00  0.00    +0.000 A 
ATOM      5  C   UNL     1       4.794   4.972  16.724  0.00  0.00    +0.000 A 
ATOM      6  C   UNL     1       5.947   5.469  15.910  0.00  0.00    +0.000 C 
ATOM      7  N   UNL     1       3.921   5.913  17.281  0.00  0.00    +0.000 N 
ATOM      8  N   UNL     1       3.959   7.263  17.190  0.00  0.00    +0.000 NA
ATOM      9  C   UNL     1       2.888   7.635  17.899  0.00  0.00    +0.000 A 
ATOM     10  N   UNL     1       2.162   6.600  18.440  0.00  0.00    +0.000 NA
ATOM     11  C   UNL     1       2.818   5.524  18.054  0.00  0.00    +0.000 A 
ATOM     12  N   UNL     1       2.548   4.206  18.301  0.00  0.00    +0.000 NA
ENDBRANCH   1   9
BRANCH   1  13
ATOM     13  N   UNL     1       1.093   9.288  17.934  0.00  0.00    +0.000 N 
ATOM     14  C   UNL     1       0.519  10.411  18.487  0.00  0.00    +0.000 C 
ATOM     15  O   UNL     1       1.163  11.259  19.098  0.00  0.00    +0.000 OA
ATOM     16  H   UNL     1       0.591   8.687  17.291  0.00  0.00    +0.000 HD
BRANCH  14  17
ATOM     17  C   UNL     1      -0.947  10.587  18.296  0.00  0.00    +0.000 A 
ATOM     18  C   UNL     1      -1.674  11.543  19.013  0.00  0.00    +0.000 A 
ATOM     19  C   UNL     1      -3.048  11.688  18.790  0.00  0.00    +0.000 A 
ATOM     20  C   UNL     1      -3.690  10.882  17.850  0.00  0.00    +0.000 A 
ATOM     21 CL   UNL     1      -5.381  11.061  17.586  0.00  0.00    +0.000 Cl
ATOM     22  C   UNL     1      -2.970   9.939  17.118  0.00  0.00    +0.000 A 
ATOM     23  C   UNL     1      -1.597   9.797  17.336  0.00  0.00    +0.000 A 
ENDBRANCH  14  17
ENDBRANCH   1  13
TORSDOF 3
ENDMDL
MODEL 7
REMARK VINA RESULT:      -7.2      5.626      7.805
REMARK  Name = 
REMARK  5 active torsions:
REMARK  status: ('A' for Active; 'I' for Inactive)
REMARK    1  A    between atoms: C_1  and  C_2
REMARK    2  A    between atoms: C_4  and  C_5
REMARK    3  A    between atoms: C_8  and  C_9
REMARK    4  A    between atoms: C_9  and  N_10
REMARK    5  A    between atoms: C_11  and  C_13
REMARK                            x       y       z     vdW  Elec       q    Type
REMARK                         _______ _______ _______ _____ _____    ______ ____
ROOT
ATOM      1  C   UNL     1       7.732   5.569  18.616  0.00  0.00    +0.000 C 
ENDROOT
BRANCH   1   9
ATOM      2  C   UNL     1       1.117   3.171  20.286  0.00  0.00    +0.000 C 
ATOM      3  C   UNL     1       2.252   4.032  19.777  0.00  0.00    +0.000 A 
ATOM      4  C   UNL     1       1.874   5.352  19.177  0.00  0.00    +0.000 A 
ATOM      5  C   UNL     1       2.885   6.113  18.724  0.00  0.00    +0.000 A 
ATOM      6  C   UNL     1       2.678   7.455  18.096  0.00  0.00    +0.000 C 
ATOM      7  N   UNL     1       4.194   5.632  18.845  0.00  0.00    +0.000 N 
ATOM      8  N   UNL     1       5.352   6.222  18.467  0.00  0.00    +0.000 NA
ATOM      9  C   UNL     1       6.272   5.323  18.830  0.00  0.00    +0.000 A 
ATOM     10  N   UNL     1       5.771   4.187  19.423  0.00  0.00    +0.000 NA
ATOM     11  C   UNL     1       4.468   4.384  19.424  0.00  0.00    +0.000 A 
ATOM     12  N   UNL     1       3.466   3.580  19.894  0.00  0.00    +0.000 NA
ENDBRANCH   1   9
BRANCH   1  13
ATOM     13  N   UNL     1       8.098   6.940  18.901  0.00  0.00    +0.000 N 
ATOM     14  C   UNL     1       8.136   7.863  17.879  0.00  0.00    +0.000 C 
ATOM     15  O   UNL     1       7.878   7.581  16.713  0.00  0.00    +0.000 OA
ATOM     16  H   UNL     1       8.143   7.213  19.876  0.00  0.00    +0.000 HD
BRANCH  14  17
ATOM     17  C   UNL     1       8.486   9.264  18.244  0.00  0.00    +0.000 A 
ATOM     18  C   UNL     1       8.147  10.346  17.425  0.00  0.00    +0.000 A 
ATOM     19  C   UNL     1       8.479  11.648  17.814  0.00  0.00    +0.000 A 
ATOM     20  C   UNL     1       9.144  11.867  19.021  0.00  0.00    +0.000 A 
ATOM     21 CL   UNL     1       9.555  13.470  19.490  0.00  0.00    +0.000 Cl
ATOM     22  C   UNL     1       9.470  10.796  19.852  0.00  0.00    +0.000 A 
ATOM     23  C   UNL     1       9.134   9.495  19.468  0.00  0.00    +0.000 A 
ENDBRANCH  14  17
ENDBRANCH   1  13
TORSDOF 3
ENDMDL
MODEL 8
REMARK VINA RESULT:      -7.2      5.738      7.820
REMARK  Name = 
REMARK  5 active torsions:
REMARK  status: ('A' for Active; 'I' for Inactive)
REMARK    1  A    between atoms: C_1  and  C_2
REMARK    2  A    between atoms: C_4  and  C_5
REMARK    3  A    between atoms: C_8  and  C_9
REMARK    4  A    between atoms: C_9  and  N_10
REMARK    5  A    between atoms: C_11  and  C_13
REMARK                            x       y       z     vdW  Elec       q    Type
REMARK                         _______ _______ _______ _____ _____    ______ ____
ROOT
ATOM      1  C   UNL     1       7.169   6.639  16.780  0.00  0.00    +0.000 C 
ENDROOT
BRANCH   1   9
ATOM      2  C   UNL     1       2.142   3.500  20.923  0.00  0.00    +0.000 C 
ATOM      3  C   UNL     1       2.850   4.465  19.999  0.00  0.00    +0.000 A 
ATOM      4  C   UNL     1       2.073   5.671  19.567  0.00  0.00    +0.000 A 
ATOM      5  C   UNL     1       2.705   6.525  18.743  0.00  0.00    +0.000 A 
ATOM      6  C   UNL     1       2.069   7.774  18.219  0.00  0.00    +0.000 C 
ATOM      7  N   UNL     1       4.019   6.237  18.358  0.00  0.00    +0.000 N 
ATOM      8  N   UNL     1       4.840   6.948  17.550  0.00  0.00    +0.000 NA
ATOM      9  C   UNL     1       5.957   6.213  17.547  0.00  0.00    +0.000 A 
ATOM     10  N   UNL     1       5.901   5.069  18.308  0.00  0.00    +0.000 NA
ATOM     11  C   UNL     1       4.682   5.087  18.810  0.00  0.00    +0.000 A 
ATOM     12  N   UNL     1       4.072   4.193  19.646  0.00  0.00    +0.000 NA
ENDBRANCH   1   9
BRANCH   1  13
ATOM     13  N   UNL     1       7.551   8.002  17.082  0.00  0.00    +0.000 N 
ATOM     14  C   UNL     1       8.270   8.272  18.226  0.00  0.00    +0.000 C 
ATOM     15  O   UNL     1       8.606   7.403  19.025  0.00  0.00    +0.000 OA
ATOM     16  H   UNL     1       7.426   8.690  16.349  0.00  0.00    +0.000 HD
BRANCH  14  17
ATOM     17  C   UNL     1       8.661   9.688  18.462  0.00  0.00    +0.000 A 
ATOM     18  C   UNL     1       9.470  10.060  19.541  0.00  0.00    +0.000 A 
ATOM     19  C   UNL     1       9.830  11.401  19.715  0.00  0.00    +0.000 A 
ATOM     20  C   UNL     1       9.384  12.365  18.811  0.00  0.00    +0.000 A 
ATOM     21 CL   UNL     1       9.824  14.013  19.036  0.00  0.00    +0.000 Cl
ATOM     22  C   UNL     1       8.592  12.002  17.723  0.00  0.00    +0.000 A 
ATOM     23  C   UNL     1       8.237  10.662  17.544  0.00  0.00    +0.000 A 
ENDBRANCH  14  17
ENDBRANCH   1  13
TORSDOF 3
ENDMDL
MODEL 9
REMARK VINA RESULT:      -7.2      4.046      8.085
REMARK  Name = 
REMARK  5 active torsions:
REMARK  status: ('A' for Active; 'I' for Inactive)
REMARK    1  A    between atoms: C_1  and  C_2
REMARK    2  A    between atoms: C_4  and  C_5
REMARK    3  A    between atoms: C_8  and  C_9
REMARK    4  A    between atoms: C_9  and  N_10
REMARK    5  A    between atoms: C_11  and  C_13
REMARK                            x       y       z     vdW  Elec       q    Type
REMARK                         _______ _______ _______ _____ _____    ______ ____
ROOT
ATOM      1  C   UNL     1       1.929   6.758  20.682  0.00  0.00    +0.000 C 
ENDROOT
BRANCH   1   9
ATOM      2  C   UNL     1      -0.472  13.312  18.791  0.00  0.00    +0.000 C 
ATOM      3  C   UNL     1      -0.188  12.055  19.582  0.00  0.00    +0.000 A 
ATOM      4  C   UNL     1      -0.755  11.992  20.967  0.00  0.00    +0.000 A 
ATOM      5  C   UNL     1      -0.498  10.873  21.667  0.00  0.00    +0.000 A 
ATOM      6  C   UNL     1      -0.990  10.654  23.063  0.00  0.00    +0.000 C 
ATOM      7  N   UNL     1       0.262   9.865  21.066  0.00  0.00    +0.000 N 
ATOM      8  N   UNL     1       0.635   8.667  21.574  0.00  0.00    +0.000 NA
ATOM      9  C   UNL     1       1.328   8.124  20.568  0.00  0.00    +0.000 A 
ATOM     10  N   UNL     1       1.422   8.905  19.440  0.00  0.00    +0.000 NA
ATOM     11  C   UNL     1       0.756   9.996  19.760  0.00  0.00    +0.000 A 
ATOM     12  N   UNL     1       0.519  11.120  19.016  0.00  0.00    +0.000 NA
ENDBRANCH   1   9
BRANCH   1  13
ATOM     13  N   UNL     1       2.915   6.512  19.651  0.00  0.00    +0.000 N 
ATOM     14  C   UNL     1       2.719   5.489  18.750  0.00  0.00    +0.000 C 
ATOM     15  O   UNL     1       1.738   4.752  18.777  0.00  0.00    +0.000 OA
ATOM     16  H   UNL     1       3.632   7.216  19.520  0.00  0.00    +0.000 HD
BRANCH  14  17
ATOM     17  C   UNL     1       3.753   5.309  17.694  0.00  0.00    +0.000 A 
ATOM     18  C   UNL     1       4.116   4.042  17.225  0.00  0.00    +0.000 A 
ATOM     19  C   UNL     1       5.078   3.918  16.217  0.00  0.00    +0.000 A 
ATOM     20  C   UNL     1       5.673   5.059  15.679  0.00  0.00    +0.000 A 
ATOM     21 CL   UNL     1       6.862   4.900  14.445  0.00  0.00    +0.000 Cl
ATOM     22  C   UNL     1       5.305   6.327  16.127  0.00  0.00    +0.000 A 
ATOM     23  C   UNL     1       4.339   6.452  17.129  0.00  0.00    +0.000 A 
ENDBRANCH  14  17
ENDBRANCH   1  13
TORSDOF 3
ENDMDL
