MODEL 1
REMARK VINA RESULT:      -6.4      0.000      0.000
REMARK  Name = 
REMARK  8 active torsions:
REMARK  status: ('A' for Active; 'I' for Inactive)
REMARK    1  A    between atoms: C_1  and  O_2
REMARK    2  A    between atoms: O_2  and  C_3
REMARK    3  A    between atoms: C_8  and  C_9
REMARK    4  A    between atoms: C_14  and  O_15
REMARK    5  A    between atoms: O_15  and  C_16
REMARK    6  A    between atoms: C_17  and  C_18
REMARK    7  A    between atoms: C_19  and  C_20
REMARK    8  A    between atoms: N_24  and  C_25
REMARK                            x       y       z     vdW  Elec       q    Type
REMARK                         _______ _______ _______ _____ _____    ______ ____
ROOT
ATOM      1  C   UNL     1       2.020  11.215  18.481  0.00  0.00    +0.000 A 
ATOM      2  C   UNL     1       1.024  11.350  19.438  0.00  0.00    +0.000 A 
ATOM      3  C   UNL     1       0.537  10.232  20.116  0.00  0.00    +0.000 A 
ATOM      4  C   UNL     1       1.079   8.964  19.833  0.00  0.00    +0.000 A 
ATOM      5  S   UNL     1       0.660   7.504  20.606  0.00  0.00    +0.000 S 
ATOM      6  C   UNL     1       1.780   6.563  19.705  0.00  0.00    +0.000 A 
ATOM      7  C   UNL     1       2.448   7.373  18.784  0.00  0.00    +0.000 A 
ATOM      8  C   UNL     1       2.068   8.776  18.870  0.00  0.00    +0.000 A 
ATOM      9  C   UNL     1       2.535   9.939  18.191  0.00  0.00    +0.000 A 
ENDROOT
BRANCH   6  10
ATOM     10  C   UNL     1       1.959   5.119  20.059  0.00  0.00    +0.000 A 
ATOM     11  C   UNL     1       2.199   4.801  21.412  0.00  0.00    +0.000 A 
ATOM     12  C   UNL     1       2.393   3.490  21.850  0.00  0.00    +0.000 A 
ATOM     13  C   UNL     1       2.330   2.444  20.947  0.00  0.00    +0.000 A 
ATOM     14  C   UNL     1       2.045   2.711  19.612  0.00  0.00    +0.000 A 
ATOM     15  C   UNL     1       1.843   4.028  19.158  0.00  0.00    +0.000 A 
BRANCH  15  16
ATOM     16  O   UNL     1       1.572   4.273  17.832  0.00  0.00    +0.000 OA
ATOM     17  C   UNL     1       2.300   3.484  16.890  0.00  0.00    +0.000 C 
ENDBRANCH  15  16
ENDBRANCH   6  10
BRANCH   1  19
ATOM     18  C   UNL     1       2.239  13.566  18.193  0.00  0.00    +0.000 C 
ATOM     19  O   UNL     1       2.575  12.247  17.771  0.00  0.00    +0.000 OA
ENDBRANCH   1  19
BRANCH   7  20
ATOM     20  C   UNL     1       3.481   6.887  17.890  0.00  0.00    +0.000 C 
ATOM     21  C   UNL     1       4.343   6.391  17.214  0.00  0.00    +0.000 C 
BRANCH  21  22
ATOM     22  C   UNL     1       5.379   5.723  16.494  0.00  0.00    +0.000 A 
ATOM     23  C   UNL     1       5.456   5.492  15.134  0.00  0.00    +0.000 A 
ATOM     24  N   UNL     1       6.623   4.856  14.798  0.00  0.00    +0.000 NA
ATOM     25  C   UNL     1       7.267   4.697  15.932  0.00  0.00    +0.000 A 
ATOM     26  N   UNL     1       6.557   5.207  16.983  0.00  0.00    +0.000 N 
ATOM     27  C   UNL     1       7.030   5.250  18.341  0.00  0.00    +0.000 C 
ENDBRANCH  21  22
ENDBRANCH   7  20
TORSDOF 5
ENDMDL
MODEL 2
REMARK VINA RESULT:      -6.2      1.233      1.416
REMARK  Name = 
REMARK  8 active torsions:
REMARK  status: ('A' for Active; 'I' for Inactive)
REMARK    1  A    between atoms: C_1  and  O_2
REMARK    2  A    between atoms: O_2  and  C_3
REMARK    3  A    between atoms: C_8  and  C_9
REMARK    4  A    between atoms: C_14  and  O_15
REMARK    5  A    between atoms: O_15  and  C_16
REMARK    6  A    between atoms: C_17  and  C_18
REMARK    7  A    between atoms: C_19  and  C_20
REMARK    8  A    between atoms: N_24  and  C_25
REMARK                            x       y       z     vdW  Elec       q    Type
REMARK                         _______ _______ _______ _____ _____    ______ ____
ROOT
ATOM      1  C   UNL     1       2.014  11.099  18.434  0.00  0.00    +0.000 A 
ATOM      2  C   UNL     1       1.154  11.252  19.511  0.00  0.00    +0.000 A 
ATOM      3  C   UNL     1       0.756  10.146  20.262  0.00  0.00    +0.000 A 
ATOM      4  C   UNL     1       1.251   8.872  19.927  0.00  0.00    +0.000 A 
ATOM      5  S   UNL     1       0.932   7.423  20.768  0.00  0.00    +0.000 S 
ATOM      6  C   UNL     1       1.921   6.465  19.741  0.00  0.00    +0.000 A 
ATOM      7  C   UNL     1       2.466   7.260  18.729  0.00  0.00    +0.000 A 
ATOM      8  C   UNL     1       2.105   8.666  18.846  0.00  0.00    +0.000 A 
ATOM      9  C   UNL     1       2.483   9.817  18.095  0.00  0.00    +0.000 A 
ENDROOT
BRANCH   6  10
ATOM     10  C   UNL     1       2.140   5.024  20.088  0.00  0.00    +0.000 A 
ATOM     11  C   UNL     1       1.002   4.207  20.244  0.00  0.00    +0.000 A 
ATOM     12  C   UNL     1       1.091   2.855  20.580  0.00  0.00    +0.000 A 
ATOM     13  C   UNL     1       2.331   2.266  20.747  0.00  0.00    +0.000 A 
ATOM     14  C   UNL     1       3.480   3.026  20.553  0.00  0.00    +0.000 A 
ATOM     15  C   UNL     1       3.404   4.390  20.210  0.00  0.00    +0.000 A 
BRANCH  15  16
ATOM     16  O   UNL     1       4.552   5.127  20.031  0.00  0.00    +0.000 OA
ATOM     17  C   UNL     1       5.658   4.429  19.456  0.00  0.00    +0.000 C 
ENDBRANCH  15  16
ENDBRANCH   6  10
BRANCH   1  19
ATOM     18  C   UNL     1       2.403  13.433  18.190  0.00  0.00    +0.000 C 
ATOM     19  O   UNL     1       2.476  12.119  17.643  0.00  0.00    +0.000 OA
ENDBRANCH   1  19
BRANCH   7  20
ATOM     20  C   UNL     1       3.370   6.756  17.714  0.00  0.00    +0.000 C 
ATOM     21  C   UNL     1       4.168   6.276  16.954  0.00  0.00    +0.000 C 
BRANCH  21  22
ATOM     22  C   UNL     1       5.169   5.662  16.143  0.00  0.00    +0.000 A 
ATOM     23  C   UNL     1       4.989   4.809  15.071  0.00  0.00    +0.000 A 
ATOM     24  N   UNL     1       6.187   4.451  14.506  0.00  0.00    +0.000 NA
ATOM     25  C   UNL     1       7.100   5.078  15.213  0.00  0.00    +0.000 A 
ATOM     26  N   UNL     1       6.534   5.822  16.210  0.00  0.00    +0.000 N 
ATOM     27  C   UNL     1       7.268   6.677  17.104  0.00  0.00    +0.000 C 
ENDBRANCH  21  22
ENDBRANCH   7  20
TORSDOF 5
ENDMDL
MODEL 3
REMARK VINA RESULT:      -6.1      5.948      9.160
REMARK  Name = 
REMARK  8 active torsions:
REMARK  status: ('A' for Active; 'I' for Inactive)
REMARK    1  A    between atoms: C_1  and  O_2
REMARK    2  A    between atoms: O_2  and  C_3
REMARK    3  A    between atoms: C_8  and  C_9
REMARK    4  A    between atoms: C_14  and  O_15
REMARK    5  A    between atoms: O_15  and  C_16
REMARK    6  A    between atoms: C_17  and  C_18
REMARK    7  A    between atoms: C_19  and  C_20
REMARK    8  A    between atoms: N_24  and  C_25
REMARK                            x       y       z     vdW  Elec       q    Type
REMARK                         _______ _______ _______ _____ _____    ______ ____
ROOT
ATOM      1  C   UNL     1      -0.066  17.213  18.322  0.00  0.00    +0.000 A 
ATOM      2  C   UNL     1       1.302  17.300  18.109  0.00  0.00    +0.000 A 
ATOM      3  C   UNL     1       2.126  16.197  18.336  0.00  0.00    +0.000 A 
ATOM      4  C   UNL     1       1.552  14.987  18.769  0.00  0.00    +0.000 A 
ATOM      5  S   UNL     1       2.387  13.523  19.031  0.00  0.00    +0.000 S 
ATOM      6  C   UNL     1       0.973  12.651  19.466  0.00  0.00    +0.000 A 
ATOM      7  C   UNL     1      -0.136  13.502  19.443  0.00  0.00    +0.000 A 
ATOM      8  C   UNL     1       0.187  14.855  19.011  0.00  0.00    +0.000 A 
ATOM      9  C   UNL     1      -0.623  16.004  18.777  0.00  0.00    +0.000 A 
ENDROOT
BRANCH   6  10
ATOM     10  C   UNL     1       1.077  11.176  19.701  0.00  0.00    +0.000 A 
ATOM     11  C   UNL     1       1.485  10.367  18.621  0.00  0.00    +0.000 A 
ATOM     12  C   UNL     1       1.603   8.980  18.726  0.00  0.00    +0.000 A 
ATOM     13  C   UNL     1       1.340   8.355  19.931  0.00  0.00    +0.000 A 
ATOM     14  C   UNL     1       0.984   9.122  21.035  0.00  0.00    +0.000 A 
ATOM     15  C   UNL     1       0.866  10.523  20.943  0.00  0.00    +0.000 A 
BRANCH  15  16
ATOM     16  O   UNL     1       0.504  11.263  22.045  0.00  0.00    +0.000 OA
ATOM     17  C   UNL     1      -0.709  10.871  22.689  0.00  0.00    +0.000 C 
ENDBRANCH  15  16
ENDBRANCH   6  10
BRANCH   1  19
ATOM     18  C   UNL     1      -2.199  18.143  18.819  0.00  0.00    +0.000 C 
ATOM     19  O   UNL     1      -0.962  18.229  18.116  0.00  0.00    +0.000 OA
ENDBRANCH   1  19
BRANCH   7  20
ATOM     20  C   UNL     1      -1.487  13.065  19.734  0.00  0.00    +0.000 C 
ATOM     21  C   UNL     1      -2.641  12.809  19.954  0.00  0.00    +0.000 C 
BRANCH  21  22
ATOM     22  C   UNL     1      -4.033  12.617  20.208  0.00  0.00    +0.000 A 
ATOM     23  C   UNL     1      -5.026  12.302  19.302  0.00  0.00    +0.000 A 
ATOM     24  N   UNL     1      -6.242  12.154  19.921  0.00  0.00    +0.000 NA
ATOM     25  C   UNL     1      -6.007  12.368  21.196  0.00  0.00    +0.000 A 
ATOM     26  N   UNL     1      -4.687  12.649  21.418  0.00  0.00    +0.000 N 
ATOM     27  C   UNL     1      -4.107  12.857  22.718  0.00  0.00    +0.000 C 
ENDBRANCH  21  22
ENDBRANCH   7  20
TORSDOF 5
ENDMDL
MODEL 4
REMARK VINA RESULT:      -6.0      5.423      8.610
REMARK  Name = 
REMARK  8 active torsions:
REMARK  status: ('A' for Active; 'I' for Inactive)
REMARK    1  A    between atoms: C_1  and  O_2
REMARK    2  A    between atoms: O_2  and  C_3
REMARK    3  A    between atoms: C_8  and  C_9
REMARK    4  A    between atoms: C_14  and  O_15
REMARK    5  A    between atoms: O_15  and  C_16
REMARK    6  A    between atoms: C_17  and  C_18
REMARK    7  A    between atoms: C_19  and  C_20
REMARK    8  A    between atoms: N_24  and  C_25
REMARK                            x       y       z     vdW  Elec       q    Type
REMARK                         _______ _______ _______ _____ _____    ______ ____
ROOT
ATOM      1  C   UNL     1       0.073  17.047  18.302  0.00  0.00    +0.000 A 
ATOM      2  C   UNL     1       1.453  17.186  18.275  0.00  0.00    +0.000 A 
ATOM      3  C   UNL     1       2.280  16.095  18.541  0.00  0.00    +0.000 A 
ATOM      4  C   UNL     1       1.701  14.843  18.820  0.00  0.00    +0.000 A 
ATOM      5  S   UNL     1       2.547  13.390  19.099  0.00  0.00    +0.000 S 
ATOM      6  C   UNL     1       1.121  12.452  19.291  0.00  0.00    +0.000 A 
ATOM      7  C   UNL     1      -0.005  13.271  19.175  0.00  0.00    +0.000 A 
ATOM      8  C   UNL     1       0.321  14.657  18.873  0.00  0.00    +0.000 A 
ATOM      9  C   UNL     1      -0.494  15.796  18.605  0.00  0.00    +0.000 A 
ENDROOT
BRANCH   6  10
ATOM     10  C   UNL     1       1.249  10.968  19.447  0.00  0.00    +0.000 A 
ATOM     11  C   UNL     1       1.663  10.224  18.324  0.00  0.00    +0.000 A 
ATOM     12  C   UNL     1       1.802   8.835  18.355  0.00  0.00    +0.000 A 
ATOM     13  C   UNL     1       1.554   8.143  19.526  0.00  0.00    +0.000 A 
ATOM     14  C   UNL     1       1.192   8.845  20.671  0.00  0.00    +0.000 A 
ATOM     15  C   UNL     1       1.052  10.246  20.654  0.00  0.00    +0.000 A 
BRANCH  15  16
ATOM     16  O   UNL     1       0.685  10.922  21.794  0.00  0.00    +0.000 OA
ATOM     17  C   UNL     1      -0.618  10.629  22.301  0.00  0.00    +0.000 C 
ENDBRANCH  15  16
ENDBRANCH   6  10
BRANCH   1  19
ATOM     18  C   UNL     1      -1.959  18.129  18.903  0.00  0.00    +0.000 C 
ATOM     19  O   UNL     1      -0.825  18.049  18.043  0.00  0.00    +0.000 OA
ENDBRANCH   1  19
BRANCH   7  20
ATOM     20  C   UNL     1      -1.366  12.778  19.260  0.00  0.00    +0.000 C 
ATOM     21  C   UNL     1      -2.497  12.374  19.217  0.00  0.00    +0.000 C 
BRANCH  21  22
ATOM     22  C   UNL     1      -3.842  11.922  19.054  0.00  0.00    +0.000 A 
ATOM     23  C   UNL     1      -4.963  12.318  19.758  0.00  0.00    +0.000 A 
ATOM     24  N   UNL     1      -6.093  11.696  19.293  0.00  0.00    +0.000 NA
ATOM     25  C   UNL     1      -5.683  10.928  18.309  0.00  0.00    +0.000 A 
ATOM     26  N   UNL     1      -4.332  11.033  18.126  0.00  0.00    +0.000 N 
ATOM     27  C   UNL     1      -3.599  10.372  17.079  0.00  0.00    +0.000 C 
ENDBRANCH  21  22
ENDBRANCH   7  20
TORSDOF 5
ENDMDL
MODEL 5
REMARK VINA RESULT:      -6.0      7.417      9.892
REMARK  Name = 
REMARK  8 active torsions:
REMARK  status: ('A' for Active; 'I' for Inactive)
REMARK    1  A    between atoms: C_1  and  O_2
REMARK    2  A    between atoms: O_2  and  C_3
REMARK    3  A    between atoms: C_8  and  C_9
REMARK    4  A    between atoms: C_14  and  O_15
REMARK    5  A    between atoms: O_15  and  C_16
REMARK    6  A    between atoms: C_17  and  C_18
REMARK    7  A    between atoms: C_19  and  C_20
REMARK    8  A    between atoms: N_24  and  C_25
REMARK                            x       y       z     vdW  Elec       q    Type
REMARK                         _______ _______ _______ _____ _____    ______ ____
ROOT
ATOM      1  C   UNL     1      -4.686  12.966  23.555  0.00  0.00    +0.000 A 
ATOM      2  C   UNL     1      -4.003  13.708  24.508  0.00  0.00    +0.000 A 
ATOM      3  C   UNL     1      -2.697  14.136  24.270  0.00  0.00    +0.000 A 
ATOM      4  C   UNL     1      -2.081  13.822  23.044  0.00  0.00    +0.000 A 
ATOM      5  S   UNL     1      -0.526  14.315  22.552  0.00  0.00    +0.000 S 
ATOM      6  C   UNL     1      -0.637  13.558  21.014  0.00  0.00    +0.000 A 
ATOM      7  C   UNL     1      -1.862  12.895  20.899  0.00  0.00    +0.000 A 
ATOM      8  C   UNL     1      -2.720  13.067  22.063  0.00  0.00    +0.000 A 
ATOM      9  C   UNL     1      -4.050  12.639  22.343  0.00  0.00    +0.000 A 
ENDROOT
BRANCH   6  10
ATOM     10  C   UNL     1       0.466  13.769  20.023  0.00  0.00    +0.000 A 
ATOM     11  C   UNL     1       1.254  12.654  19.673  0.00  0.00    +0.000 A 
ATOM     12  C   UNL     1       2.315  12.741  18.770  0.00  0.00    +0.000 A 
ATOM     13  C   UNL     1       2.609  13.949  18.165  0.00  0.00    +0.000 A 
ATOM     14  C   UNL     1       1.823  15.063  18.445  0.00  0.00    +0.000 A 
ATOM     15  C   UNL     1       0.747  14.987  19.351  0.00  0.00    +0.000 A 
BRANCH  15  16
ATOM     16  O   UNL     1      -0.013  16.101  19.622  0.00  0.00    +0.000 OA
ATOM     17  C   UNL     1      -0.590  16.754  18.490  0.00  0.00    +0.000 C 
ENDBRANCH  15  16
ENDBRANCH   6  10
BRANCH   1  19
ATOM     18  C   UNL     1      -6.961  13.162  22.891  0.00  0.00    +0.000 C 
ATOM     19  O   UNL     1      -5.972  12.511  23.684  0.00  0.00    +0.000 OA
ENDBRANCH   1  19
BRANCH   7  20
ATOM     20  C   UNL     1      -2.277  12.180  19.708  0.00  0.00    +0.000 C 
ATOM     21  C   UNL     1      -2.566  11.666  18.661  0.00  0.00    +0.000 C 
BRANCH  21  22
ATOM     22  C   UNL     1      -2.867  11.149  17.364  0.00  0.00    +0.000 A 
ATOM     23  C   UNL     1      -2.091  10.318  16.580  0.00  0.00    +0.000 A 
ATOM     24  N   UNL     1      -2.729   9.993  15.409  0.00  0.00    +0.000 NA
ATOM     25  C   UNL     1      -3.888  10.607  15.467  0.00  0.00    +0.000 A 
ATOM     26  N   UNL     1      -4.018  11.315  16.630  0.00  0.00    +0.000 N 
ATOM     27  C   UNL     1      -5.204  12.033  17.017  0.00  0.00    +0.000 C 
ENDBRANCH  21  22
ENDBRANCH   7  20
TORSDOF 5
ENDMDL
MODEL 6
REMARK VINA RESULT:      -6.0      6.479      9.109
REMARK  Name = 
REMARK  8 active torsions:
REMARK  status: ('A' for Active; 'I' for Inactive)
REMARK    1  A    between atoms: C_1  and  O_2
REMARK    2  A    between atoms: O_2  and  C_3
REMARK    3  A    between atoms: C_8  and  C_9
REMARK    4  A    between atoms: C_14  and  O_15
REMARK    5  A    between atoms: O_15  and  C_16
REMARK    6  A    between atoms: C_17  and  C_18
REMARK    7  A    between atoms: C_19  and  C_20
REMARK    8  A    between atoms: N_24  and  C_25
REMARK                            x       y       z     vdW  Elec       q    Type
REMARK                         _______ _______ _______ _____ _____    ______ ____
ROOT
ATOM      1  C   UNL     1       0.317  16.787  18.248  0.00  0.00    +0.000 A 
ATOM      2  C   UNL     1       1.694  16.688  18.381  0.00  0.00    +0.000 A 
ATOM      3  C   UNL     1       2.265  15.614  19.065  0.00  0.00    +0.000 A 
ATOM      4  C   UNL     1       1.428  14.619  19.605  0.00  0.00    +0.000 A 
ATOM      5  S   UNL     1       1.945  13.207  20.408  0.00  0.00    +0.000 S 
ATOM      6  C   UNL     1       0.352  12.615  20.654  0.00  0.00    +0.000 A 
ATOM      7  C   UNL     1      -0.578  13.528  20.148  0.00  0.00    +0.000 A 
ATOM      8  C   UNL     1       0.040  14.682  19.510  0.00  0.00    +0.000 A 
ATOM      9  C   UNL     1      -0.509  15.798  18.813  0.00  0.00    +0.000 A 
ENDROOT
BRANCH   6  10
ATOM     10  C   UNL     1       0.171  11.251  21.247  0.00  0.00    +0.000 A 
ATOM     11  C   UNL     1      -0.500  11.158  22.483  0.00  0.00    +0.000 A 
ATOM     12  C   UNL     1      -0.711   9.939  23.130  0.00  0.00    +0.000 A 
ATOM     13  C   UNL     1      -0.276   8.763  22.546  0.00  0.00    +0.000 A 
ATOM     14  C   UNL     1       0.345   8.807  21.302  0.00  0.00    +0.000 A 
ATOM     15  C   UNL     1       0.560  10.030  20.637  0.00  0.00    +0.000 A 
BRANCH  15  16
ATOM     16  O   UNL     1       1.185  10.054  19.411  0.00  0.00    +0.000 OA
ATOM     17  C   UNL     1       0.336  10.261  18.282  0.00  0.00    +0.000 C 
ENDBRANCH  15  16
ENDBRANCH   6  10
BRANCH   1  19
ATOM     18  C   UNL     1       0.453  18.629  16.750  0.00  0.00    +0.000 C 
ATOM     19  O   UNL     1      -0.340  17.790  17.586  0.00  0.00    +0.000 OA
ENDBRANCH   1  19
BRANCH   7  20
ATOM     20  C   UNL     1      -2.011  13.310  20.174  0.00  0.00    +0.000 C 
ATOM     21  C   UNL     1      -3.176  13.018  20.197  0.00  0.00    +0.000 C 
BRANCH  21  22
ATOM     22  C   UNL     1      -4.530  12.563  20.206  0.00  0.00    +0.000 A 
ATOM     23  C   UNL     1      -5.226  11.950  19.182  0.00  0.00    +0.000 A 
ATOM     24  N   UNL     1      -6.498  11.613  19.572  0.00  0.00    +0.000 NA
ATOM     25  C   UNL     1      -6.589  12.005  20.823  0.00  0.00    +0.000 A 
ATOM     26  N   UNL     1      -5.425  12.581  21.249  0.00  0.00    +0.000 N 
ATOM     27  C   UNL     1      -5.191  13.043  22.592  0.00  0.00    +0.000 C 
ENDBRANCH  21  22
ENDBRANCH   7  20
TORSDOF 5
ENDMDL
MODEL 7
REMARK VINA RESULT:      -6.0      5.611      9.729
REMARK  Name = 
REMARK  8 active torsions:
REMARK  status: ('A' for Active; 'I' for Inactive)
REMARK    1  A    between atoms: C_1  and  O_2
REMARK    2  A    between atoms: O_2  and  C_3
REMARK    3  A    between atoms: C_8  and  C_9
REMARK    4  A    between atoms: C_14  and  O_15
REMARK    5  A    between atoms: O_15  and  C_16
REMARK    6  A    between atoms: C_17  and  C_18
REMARK    7  A    between atoms: C_19  and  C_20
REMARK    8  A    between atoms: N_24  and  C_25
REMARK                            x       y       z     vdW  Elec       q    Type
REMARK                         _______ _______ _______ _____ _____    ______ ____
ROOT
ATOM      1  C   UNL     1       1.290   9.364  19.439  0.00  0.00    +0.000 A 
ATOM      2  C   UNL     1       1.059   8.410  20.419  0.00  0.00    +0.000 A 
ATOM      3  C   UNL     1       0.389   8.749  21.594  0.00  0.00    +0.000 A 
ATOM      4  C   UNL     1      -0.069  10.069  21.770  0.00  0.00    +0.000 A 
ATOM      5  S   UNL     1      -0.962  10.648  23.101  0.00  0.00    +0.000 S 
ATOM      6  C   UNL     1      -1.103  12.240  22.472  0.00  0.00    +0.000 A 
ATOM      7  C   UNL     1      -0.428  12.330  21.251  0.00  0.00    +0.000 A 
ATOM      8  C   UNL     1       0.152  11.065  20.822  0.00  0.00    +0.000 A 
ATOM      9  C   UNL     1       0.848  10.685  19.637  0.00  0.00    +0.000 A 
ENDROOT
BRANCH   6  10
ATOM     10  C   UNL     1      -1.951  13.234  23.204  0.00  0.00    +0.000 A 
ATOM     11  C   UNL     1      -1.295  14.278  23.888  0.00  0.00    +0.000 A 
ATOM     12  C   UNL     1      -1.987  15.250  24.612  0.00  0.00    +0.000 A 
ATOM     13  C   UNL     1      -3.369  15.223  24.657  0.00  0.00    +0.000 A 
ATOM     14  C   UNL     1      -4.057  14.239  23.954  0.00  0.00    +0.000 A 
ATOM     15  C   UNL     1      -3.370  13.256  23.216  0.00  0.00    +0.000 A 
BRANCH  15  16
ATOM     16  O   UNL     1      -4.068  12.284  22.535  0.00  0.00    +0.000 OA
ATOM     17  C   UNL     1      -5.084  12.753  21.647  0.00  0.00    +0.000 C 
ENDBRANCH  15  16
ENDBRANCH   6  10
BRANCH   1  19
ATOM     18  C   UNL     1       2.481   7.832  18.063  0.00  0.00    +0.000 C 
ATOM     19  O   UNL     1       1.924   9.131  18.247  0.00  0.00    +0.000 OA
ENDBRANCH   1  19
BRANCH   7  20
ATOM     20  C   UNL     1      -0.381  13.536  20.449  0.00  0.00    +0.000 C 
ATOM     21  C   UNL     1      -0.236  14.550  19.820  0.00  0.00    +0.000 C 
BRANCH  21  22
ATOM     22  C   UNL     1       0.034  15.771  19.130  0.00  0.00    +0.000 A 
ATOM     23  C   UNL     1      -0.845  16.796  18.840  0.00  0.00    +0.000 A 
ATOM     24  N   UNL     1      -0.214  17.832  18.200  0.00  0.00    +0.000 NA
ATOM     25  C   UNL     1       1.042  17.460  18.099  0.00  0.00    +0.000 A 
ATOM     26  N   UNL     1       1.240  16.224  18.648  0.00  0.00    +0.000 N 
ATOM     27  C   UNL     1       2.521  15.577  18.755  0.00  0.00    +0.000 C 
ENDBRANCH  21  22
ENDBRANCH   7  20
TORSDOF 5
ENDMDL
MODEL 8
REMARK VINA RESULT:      -6.0      6.909     10.554
REMARK  Name = 
REMARK  8 active torsions:
REMARK  status: ('A' for Active; 'I' for Inactive)
REMARK    1  A    between atoms: C_1  and  O_2
REMARK    2  A    between atoms: O_2  and  C_3
REMARK    3  A    between atoms: C_8  and  C_9
REMARK    4  A    between atoms: C_14  and  O_15
REMARK    5  A    between atoms: O_15  and  C_16
REMARK    6  A    between atoms: C_17  and  C_18
REMARK    7  A    between atoms: C_19  and  C_20
REMARK    8  A    between atoms: N_24  and  C_25
REMARK                            x       y       z     vdW  Elec       q    Type
REMARK                         _______ _______ _______ _____ _____    ______ ____
ROOT
ATOM      1  C   UNL     1      -6.824  11.711  19.712  0.00  0.00    +0.000 A 
ATOM      2  C   UNL     1      -6.848  11.122  18.456  0.00  0.00    +0.000 A 
ATOM      3  C   UNL     1      -5.681  11.020  17.699  0.00  0.00    +0.000 A 
ATOM      4  C   UNL     1      -4.471  11.504  18.230  0.00  0.00    +0.000 A 
ATOM      5  S   UNL     1      -2.941  11.404  17.484  0.00  0.00    +0.000 S 
ATOM      6  C   UNL     1      -2.118  12.157  18.789  0.00  0.00    +0.000 A 
ATOM      7  C   UNL     1      -3.032  12.517  19.783  0.00  0.00    +0.000 A 
ATOM      8  C   UNL     1      -4.399  12.116  19.479  0.00  0.00    +0.000 A 
ATOM      9  C   UNL     1      -5.612  12.212  20.221  0.00  0.00    +0.000 A 
ENDROOT
BRANCH   6  10
ATOM     10  C   UNL     1      -0.623  12.239  18.750  0.00  0.00    +0.000 A 
ATOM     11  C   UNL     1      -0.043  13.491  18.459  0.00  0.00    +0.000 A 
ATOM     12  C   UNL     1       1.338  13.677  18.383  0.00  0.00    +0.000 A 
ATOM     13  C   UNL     1       2.191  12.615  18.623  0.00  0.00    +0.000 A 
ATOM     14  C   UNL     1       1.660  11.375  18.963  0.00  0.00    +0.000 A 
ATOM     15  C   UNL     1       0.269  11.176  19.046  0.00  0.00    +0.000 A 
BRANCH  15  16
ATOM     16  O   UNL     1      -0.238   9.939  19.375  0.00  0.00    +0.000 OA
ATOM     17  C   UNL     1      -0.231   9.612  20.765  0.00  0.00    +0.000 C 
ENDBRANCH  15  16
ENDBRANCH   6  10
BRANCH   1  19
ATOM     18  C   UNL     1      -7.635  11.980  21.932  0.00  0.00    +0.000 C 
ATOM     19  O   UNL     1      -7.908  11.847  20.539  0.00  0.00    +0.000 OA
ENDBRANCH   1  19
BRANCH   7  20
ATOM     20  C   UNL     1      -2.652  13.149  21.031  0.00  0.00    +0.000 C 
ATOM     21  C   UNL     1      -2.444  13.663  22.098  0.00  0.00    +0.000 C 
BRANCH  21  22
ATOM     22  C   UNL     1      -2.311  14.276  23.381  0.00  0.00    +0.000 A 
ATOM     23  C   UNL     1      -1.148  14.606  24.048  0.00  0.00    +0.000 A 
ATOM     24  N   UNL     1      -1.413  15.223  25.244  0.00  0.00    +0.000 NA
ATOM     25  C   UNL     1      -2.724  15.282  25.318  0.00  0.00    +0.000 A 
ATOM     26  N   UNL     1      -3.309  14.725  24.215  0.00  0.00    +0.000 N 
ATOM     27  C   UNL     1      -4.726  14.704  23.969  0.00  0.00    +0.000 C 
ENDBRANCH  21  22
ENDBRANCH   7  20
TORSDOF 5
ENDMDL
MODEL 9
REMARK VINA RESULT:      -5.9      5.577      9.878
REMARK  Name = 
REMARK  8 active torsions:
REMARK  status: ('A' for Active; 'I' for Inactive)
REMARK    1  A    between atoms: C_1  and  O_2
REMARK    2  A    between atoms: O_2  and  C_3
REMARK    3  A    between atoms: C_8  and  C_9
REMARK    4  A    between atoms: C_14  and  O_15
REMARK    5  A    between atoms: O_15  and  C_16
REMARK    6  A    between atoms: C_17  and  C_18
REMARK    7  A    between atoms: C_19  and  C_20
REMARK    8  A    between atoms: N_24  and  C_25
REMARK                            x       y       z     vdW  Elec       q    Type
REMARK                         _______ _______ _______ _____ _____    ______ ____
ROOT
ATOM      1  C   UNL     1       1.411   9.402  19.207  0.00  0.00    +0.000 A 
ATOM      2  C   UNL     1       1.274   8.415  20.172  0.00  0.00    +0.000 A 
ATOM      3  C   UNL     1       0.635   8.691  21.381  0.00  0.00    +0.000 A 
ATOM      4  C   UNL     1       0.113   9.979  21.606  0.00  0.00    +0.000 A 
ATOM      5  S   UNL     1      -0.754  10.478  22.986  0.00  0.00    +0.000 S 
ATOM      6  C   UNL     1      -1.008  12.073  22.402  0.00  0.00    +0.000 A 
ATOM      7  C   UNL     1      -0.390  12.227  21.157  0.00  0.00    +0.000 A 
ATOM      8  C   UNL     1       0.240  11.006  20.674  0.00  0.00    +0.000 A 
ATOM      9  C   UNL     1       0.906  10.691  19.454  0.00  0.00    +0.000 A 
ENDROOT
BRANCH   6  10
ATOM     10  C   UNL     1      -1.879  13.002  23.191  0.00  0.00    +0.000 A 
ATOM     11  C   UNL     1      -3.196  12.585  23.471  0.00  0.00    +0.000 A 
ATOM     12  C   UNL     1      -4.095  13.378  24.187  0.00  0.00    +0.000 A 
ATOM     13  C   UNL     1      -3.696  14.610  24.671  0.00  0.00    +0.000 A 
ATOM     14  C   UNL     1      -2.389  15.036  24.459  0.00  0.00    +0.000 A 
ATOM     15  C   UNL     1      -1.471  14.244  23.742  0.00  0.00    +0.000 A 
BRANCH  15  16
ATOM     16  O   UNL     1      -0.184  14.687  23.536  0.00  0.00    +0.000 OA
ATOM     17  C   UNL     1      -0.048  16.060  23.167  0.00  0.00    +0.000 C 
ENDBRANCH  15  16
ENDBRANCH   6  10
BRANCH   1  19
ATOM     18  C   UNL     1       2.815   8.067  17.826  0.00  0.00    +0.000 C 
ATOM     19  O   UNL     1       2.007   9.231  17.985  0.00  0.00    +0.000 OA
ENDBRANCH   1  19
BRANCH   7  20
ATOM     20  C   UNL     1      -0.443  13.451  20.383  0.00  0.00    +0.000 C 
ATOM     21  C   UNL     1      -0.418  14.511  19.818  0.00  0.00    +0.000 C 
BRANCH  21  22
ATOM     22  C   UNL     1      -0.334  15.814  19.239  0.00  0.00    +0.000 A 
ATOM     23  C   UNL     1      -1.309  16.792  19.203  0.00  0.00    +0.000 A 
ATOM     24  N   UNL     1      -0.851  17.935  18.598  0.00  0.00    +0.000 NA
ATOM     25  C   UNL     1       0.393  17.674  18.267  0.00  0.00    +0.000 A 
ATOM     26  N   UNL     1       0.750  16.407  18.636  0.00  0.00    +0.000 N 
ATOM     27  C   UNL     1       2.069  15.854  18.475  0.00  0.00    +0.000 C 
ENDBRANCH  21  22
ENDBRANCH   7  20
TORSDOF 5
ENDMDL
