MODEL 1
REMARK VINA RESULT:      -6.5      0.000      0.000
REMARK  Name = 
REMARK  6 active torsions:
REMARK  status: ('A' for Active; 'I' for Inactive)
REMARK    1  A    between atoms: C_1  and  O_2
REMARK    2  A    between atoms: O_2  and  C_3
REMARK    3  A    between atoms: C_7  and  C_8
REMARK    4  A    between atoms: C_10  and  S_11
REMARK    5  A    between atoms: S_11  and  C_12
REMARK    6  A    between atoms: C_13  and  C_14
REMARK                            x       y       z     vdW  Elec       q    Type
REMARK                         _______ _______ _______ _____ _____    ______ ____
ROOT
ATOM      1  C   UNL     1       4.607   3.955  18.507  0.00  0.00    +0.000 A 
ATOM      2  N   UNL     1       3.448   4.495  18.700  0.00  0.00    +0.000 NA
ATOM      3  C   UNL     1       2.655   4.037  19.734  0.00  0.00    +0.000 A 
ATOM      4  C   UNL     1       3.036   3.045  20.567  0.00  0.00    +0.000 A 
ATOM      5  C   UNL     1       4.360   2.437  20.333  0.00  0.00    +0.000 A 
ATOM      6  O   UNL     1       4.823   1.539  21.028  0.00  0.00    +0.000 OA
ATOM      7  N   UNL     1       5.071   2.931  19.284  0.00  0.00    +0.000 N 
ATOM      8  H   UNL     1       5.951   2.470  19.106  0.00  0.00    +0.000 HD
ENDROOT
BRANCH   1  13
ATOM      9  C   UNL     1       7.091   6.009  16.519  0.00  0.00    +0.000 A 
ATOM     10  C   UNL     1       7.093   5.299  15.314  0.00  0.00    +0.000 A 
ATOM     11  C   UNL     1       6.292   4.167  15.151  0.00  0.00    +0.000 A 
ATOM     12  C   UNL     1       5.485   3.733  16.199  0.00  0.00    +0.000 A 
ATOM     13  C   UNL     1       5.492   4.426  17.414  0.00  0.00    +0.000 A 
ATOM     14  C   UNL     1       6.290   5.568  17.571  0.00  0.00    +0.000 A 
BRANCH   9  16
ATOM     15  C   UNL     1       7.842   7.942  17.694  0.00  0.00    +0.000 C 
ATOM     16  O   UNL     1       7.893   7.116  16.536  0.00  0.00    +0.000 OA
ENDBRANCH   9  16
ENDBRANCH   1  13
BRANCH   3  17
ATOM     17  S   UNL     1       1.069   4.795  19.973  0.00  0.00    +0.000 S 
ATOM     18  C   UNL     1       1.523   6.404  20.666  0.00  0.00    +0.000 C 
ENDBRANCH   3  17
BRANCH   4  19
ATOM     19  C   UNL     1       2.267   2.527  21.640  0.00  0.00    +0.000 C 
ATOM     20  N   UNL     1       1.623   2.107  22.512  0.00  0.00    +0.000 NA
ENDBRANCH   4  19
TORSDOF 4
ENDMDL
MODEL 2
REMARK VINA RESULT:      -6.5      3.337      6.477
REMARK  Name = 
REMARK  6 active torsions:
REMARK  status: ('A' for Active; 'I' for Inactive)
REMARK    1  A    between atoms: C_1  and  O_2
REMARK    2  A    between atoms: O_2  and  C_3
REMARK    3  A    between atoms: C_7  and  C_8
REMARK    4  A    between atoms: C_10  and  S_11
REMARK    5  A    between atoms: S_11  and  C_12
REMARK    6  A    between atoms: C_13  and  C_14
REMARK                            x       y       z     vdW  Elec       q    Type
REMARK                         _______ _______ _______ _____ _____    ______ ____
ROOT
ATOM      1  C   UNL     1       2.946   6.917  18.128  0.00  0.00    +0.000 A 
ATOM      2  N   UNL     1       2.625   5.667  18.186  0.00  0.00    +0.000 NA
ATOM      3  C   UNL     1       3.406   4.740  17.523  0.00  0.00    +0.000 A 
ATOM      4  C   UNL     1       4.502   5.078  16.812  0.00  0.00    +0.000 A 
ATOM      5  C   UNL     1       4.854   6.510  16.754  0.00  0.00    +0.000 A 
ATOM      6  O   UNL     1       5.833   6.941  16.153  0.00  0.00    +0.000 OA
ATOM      7  N   UNL     1       4.025   7.360  17.417  0.00  0.00    +0.000 N 
ATOM      8  H   UNL     1       4.250   8.339  17.324  0.00  0.00    +0.000 HD
ENDROOT
BRANCH   1  13
ATOM      9  C   UNL     1       1.085   8.789  20.845  0.00  0.00    +0.000 A 
ATOM     10  C   UNL     1       0.575   9.860  20.105  0.00  0.00    +0.000 A 
ATOM     11  C   UNL     1       0.832   9.970  18.737  0.00  0.00    +0.000 A 
ATOM     12  C   UNL     1       1.609   9.006  18.099  0.00  0.00    +0.000 A 
ATOM     13  C   UNL     1       2.138   7.942  18.836  0.00  0.00    +0.000 A 
ATOM     14  C   UNL     1       1.871   7.830  20.208  0.00  0.00    +0.000 A 
BRANCH   9  16
ATOM     15  C   UNL     1      -0.372   9.594  22.551  0.00  0.00    +0.000 C 
ATOM     16  O   UNL     1       0.732   8.782  22.165  0.00  0.00    +0.000 OA
ENDBRANCH   9  16
ENDBRANCH   1  13
BRANCH   3  17
ATOM     17  S   UNL     1       2.940   3.030  17.618  0.00  0.00    +0.000 S 
ATOM     18  C   UNL     1       1.339   3.124  18.454  0.00  0.00    +0.000 C 
ENDBRANCH   3  17
BRANCH   4  19
ATOM     19  C   UNL     1       5.338   4.177  16.105  0.00  0.00    +0.000 C 
ATOM     20  N   UNL     1       6.037   3.445  15.533  0.00  0.00    +0.000 NA
ENDBRANCH   4  19
TORSDOF 4
ENDMDL
MODEL 3
REMARK VINA RESULT:      -6.4      1.593      2.404
REMARK  Name = 
REMARK  6 active torsions:
REMARK  status: ('A' for Active; 'I' for Inactive)
REMARK    1  A    between atoms: C_1  and  O_2
REMARK    2  A    between atoms: O_2  and  C_3
REMARK    3  A    between atoms: C_7  and  C_8
REMARK    4  A    between atoms: C_10  and  S_11
REMARK    5  A    between atoms: S_11  and  C_12
REMARK    6  A    between atoms: C_13  and  C_14
REMARK                            x       y       z     vdW  Elec       q    Type
REMARK                         _______ _______ _______ _____ _____    ______ ____
ROOT
ATOM      1  C   UNL     1       4.707   4.045  17.901  0.00  0.00    +0.000 A 
ATOM      2  N   UNL     1       3.647   4.735  18.167  0.00  0.00    +0.000 NA
ATOM      3  C   UNL     1       2.910   4.431  19.295  0.00  0.00    +0.000 A 
ATOM      4  C   UNL     1       3.248   3.438  20.146  0.00  0.00    +0.000 A 
ATOM      5  C   UNL     1       4.459   2.658  19.827  0.00  0.00    +0.000 A 
ATOM      6  O   UNL     1       4.876   1.742  20.528  0.00  0.00    +0.000 OA
ATOM      7  N   UNL     1       5.118   3.008  18.690  0.00  0.00    +0.000 N 
ATOM      8  H   UNL     1       5.913   2.431  18.459  0.00  0.00    +0.000 HD
ENDROOT
BRANCH   1  13
ATOM      9  C   UNL     1       6.007   4.097  14.343  0.00  0.00    +0.000 A 
ATOM     10  C   UNL     1       7.137   4.905  14.503  0.00  0.00    +0.000 A 
ATOM     11  C   UNL     1       7.472   5.424  15.755  0.00  0.00    +0.000 A 
ATOM     12  C   UNL     1       6.673   5.141  16.859  0.00  0.00    +0.000 A 
ATOM     13  C   UNL     1       5.530   4.349  16.704  0.00  0.00    +0.000 A 
ATOM     14  C   UNL     1       5.201   3.821  15.447  0.00  0.00    +0.000 A 
BRANCH   9  16
ATOM     15  C   UNL     1       6.860   3.826  12.134  0.00  0.00    +0.000 C 
ATOM     16  O   UNL     1       5.811   3.627  13.075  0.00  0.00    +0.000 OA
ENDBRANCH   9  16
ENDBRANCH   1  13
BRANCH   3  17
ATOM     17  S   UNL     1       1.459   5.393  19.634  0.00  0.00    +0.000 S 
ATOM     18  C   UNL     1       2.155   7.045  19.881  0.00  0.00    +0.000 C 
ENDBRANCH   3  17
BRANCH   4  19
ATOM     19  C   UNL     1       2.531   3.072  21.313  0.00  0.00    +0.000 C 
ATOM     20  N   UNL     1       1.953   2.782  22.279  0.00  0.00    +0.000 NA
ENDBRANCH   4  19
TORSDOF 4
ENDMDL
MODEL 4
REMARK VINA RESULT:      -6.4      3.750      6.519
REMARK  Name = 
REMARK  6 active torsions:
REMARK  status: ('A' for Active; 'I' for Inactive)
REMARK    1  A    between atoms: C_1  and  O_2
REMARK    2  A    between atoms: O_2  and  C_3
REMARK    3  A    between atoms: C_7  and  C_8
REMARK    4  A    between atoms: C_10  and  S_11
REMARK    5  A    between atoms: S_11  and  C_12
REMARK    6  A    between atoms: C_13  and  C_14
REMARK                            x       y       z     vdW  Elec       q    Type
REMARK                         _______ _______ _______ _____ _____    ______ ____
ROOT
ATOM      1  C   UNL     1       2.107   6.945  20.084  0.00  0.00    +0.000 A 
ATOM      2  N   UNL     1       2.805   6.738  19.015  0.00  0.00    +0.000 NA
ATOM      3  C   UNL     1       3.337   5.483  18.791  0.00  0.00    +0.000 A 
ATOM      4  C   UNL     1       3.161   4.449  19.640  0.00  0.00    +0.000 A 
ATOM      5  C   UNL     1       2.364   4.701  20.856  0.00  0.00    +0.000 A 
ATOM      6  O   UNL     1       2.122   3.840  21.696  0.00  0.00    +0.000 OA
ATOM      7  N   UNL     1       1.890   5.966  21.012  0.00  0.00    +0.000 N 
ATOM      8  H   UNL     1       1.392   6.135  21.874  0.00  0.00    +0.000 HD
ENDROOT
BRANCH   1  13
ATOM      9  C   UNL     1       0.522   9.884  21.873  0.00  0.00    +0.000 A 
ATOM     10  C   UNL     1       0.344  10.761  20.799  0.00  0.00    +0.000 A 
ATOM     11  C   UNL     1       0.732  10.399  19.508  0.00  0.00    +0.000 A 
ATOM     12  C   UNL     1       1.309   9.152  19.283  0.00  0.00    +0.000 A 
ATOM     13  C   UNL     1       1.509   8.275  20.354  0.00  0.00    +0.000 A 
ATOM     14  C   UNL     1       1.109   8.639  21.648  0.00  0.00    +0.000 A 
BRANCH   9  16
ATOM     15  C   UNL     1      -1.202  10.986  23.094  0.00  0.00    +0.000 C 
ATOM     16  O   UNL     1       0.069  10.346  23.076  0.00  0.00    +0.000 OA
ENDBRANCH   9  16
ENDBRANCH   1  13
BRANCH   3  17
ATOM     17  S   UNL     1       4.293   5.229  17.318  0.00  0.00    +0.000 S 
ATOM     18  C   UNL     1       5.947   5.730  17.854  0.00  0.00    +0.000 C 
ENDBRANCH   3  17
BRANCH   4  19
ATOM     19  C   UNL     1       3.687   3.143  19.471  0.00  0.00    +0.000 C 
ATOM     20  N   UNL     1       4.125   2.073  19.346  0.00  0.00    +0.000 NA
ENDBRANCH   4  19
TORSDOF 4
ENDMDL
MODEL 5
REMARK VINA RESULT:      -6.4      3.384      6.429
REMARK  Name = 
REMARK  6 active torsions:
REMARK  status: ('A' for Active; 'I' for Inactive)
REMARK    1  A    between atoms: C_1  and  O_2
REMARK    2  A    between atoms: O_2  and  C_3
REMARK    3  A    between atoms: C_7  and  C_8
REMARK    4  A    between atoms: C_10  and  S_11
REMARK    5  A    between atoms: S_11  and  C_12
REMARK    6  A    between atoms: C_13  and  C_14
REMARK                            x       y       z     vdW  Elec       q    Type
REMARK                         _______ _______ _______ _____ _____    ______ ____
ROOT
ATOM      1  C   UNL     1       3.051   6.727  18.183  0.00  0.00    +0.000 A 
ATOM      2  N   UNL     1       2.889   5.453  18.331  0.00  0.00    +0.000 NA
ATOM      3  C   UNL     1       3.691   4.585  17.615  0.00  0.00    +0.000 A 
ATOM      4  C   UNL     1       4.648   5.005  16.760  0.00  0.00    +0.000 A 
ATOM      5  C   UNL     1       4.819   6.463  16.601  0.00  0.00    +0.000 A 
ATOM      6  O   UNL     1       5.662   6.968  15.867  0.00  0.00    +0.000 OA
ATOM      7  N   UNL     1       3.979   7.249  17.327  0.00  0.00    +0.000 N 
ATOM      8  H   UNL     1       4.074   8.241  17.167  0.00  0.00    +0.000 HD
ENDROOT
BRANCH   1  13
ATOM      9  C   UNL     1       0.979   9.768  19.083  0.00  0.00    +0.000 A 
ATOM     10  C   UNL     1       0.703   9.492  20.425  0.00  0.00    +0.000 A 
ATOM     11  C   UNL     1       1.188   8.331  21.031  0.00  0.00    +0.000 A 
ATOM     12  C   UNL     1       1.952   7.433  20.291  0.00  0.00    +0.000 A 
ATOM     13  C   UNL     1       2.217   7.691  18.942  0.00  0.00    +0.000 A 
ATOM     14  C   UNL     1       1.736   8.863  18.340  0.00  0.00    +0.000 A 
BRANCH   9  16
ATOM     15  C   UNL     1      -0.926  11.015  18.376  0.00  0.00    +0.000 C 
ATOM     16  O   UNL     1       0.475  10.952  18.623  0.00  0.00    +0.000 OA
ENDBRANCH   9  16
ENDBRANCH   1  13
BRANCH   3  17
ATOM     17  S   UNL     1       3.445   2.842  17.835  0.00  0.00    +0.000 S 
ATOM     18  C   UNL     1       4.136   2.572  19.486  0.00  0.00    +0.000 C 
ENDBRANCH   3  17
BRANCH   4  19
ATOM     19  C   UNL     1       5.496   4.167  15.993  0.00  0.00    +0.000 C 
ATOM     20  N   UNL     1       6.181   3.482  15.351  0.00  0.00    +0.000 NA
ENDBRANCH   4  19
TORSDOF 4
ENDMDL
MODEL 6
REMARK VINA RESULT:      -6.4      3.527      5.913
REMARK  Name = 
REMARK  6 active torsions:
REMARK  status: ('A' for Active; 'I' for Inactive)
REMARK    1  A    between atoms: C_1  and  O_2
REMARK    2  A    between atoms: O_2  and  C_3
REMARK    3  A    between atoms: C_7  and  C_8
REMARK    4  A    between atoms: C_10  and  S_11
REMARK    5  A    between atoms: S_11  and  C_12
REMARK    6  A    between atoms: C_13  and  C_14
REMARK                            x       y       z     vdW  Elec       q    Type
REMARK                         _______ _______ _______ _____ _____    ______ ____
ROOT
ATOM      1  C   UNL     1       2.593   6.552  19.656  0.00  0.00    +0.000 A 
ATOM      2  N   UNL     1       3.581   6.252  18.878  0.00  0.00    +0.000 NA
ATOM      3  C   UNL     1       4.168   5.006  18.986  0.00  0.00    +0.000 A 
ATOM      4  C   UNL     1       3.755   4.074  19.871  0.00  0.00    +0.000 A 
ATOM      5  C   UNL     1       2.627   4.432  20.753  0.00  0.00    +0.000 A 
ATOM      6  O   UNL     1       2.152   3.669  21.587  0.00  0.00    +0.000 OA
ATOM      7  N   UNL     1       2.117   5.683  20.597  0.00  0.00    +0.000 N 
ATOM      8  H   UNL     1       1.382   5.931  21.243  0.00  0.00    +0.000 HD
ENDROOT
BRANCH   1  13
ATOM      9  C   UNL     1       0.643   9.673  20.553  0.00  0.00    +0.000 A 
ATOM     10  C   UNL     1       0.653  10.335  19.322  0.00  0.00    +0.000 A 
ATOM     11  C   UNL     1       1.284   9.770  18.212  0.00  0.00    +0.000 A 
ATOM     12  C   UNL     1       1.917   8.536  18.330  0.00  0.00    +0.000 A 
ATOM     13  C   UNL     1       1.929   7.876  19.563  0.00  0.00    +0.000 A 
ATOM     14  C   UNL     1       1.285   8.442  20.673  0.00  0.00    +0.000 A 
BRANCH   9  16
ATOM     15  C   UNL     1      -0.346   9.570  22.720  0.00  0.00    +0.000 C 
ATOM     16  O   UNL     1      -0.038  10.317  21.548  0.00  0.00    +0.000 OA
ENDBRANCH   9  16
ENDBRANCH   1  13
BRANCH   3  17
ATOM     17  S   UNL     1       5.524   4.622  17.908  0.00  0.00    +0.000 S 
ATOM     18  C   UNL     1       4.669   4.032  16.427  0.00  0.00    +0.000 C 
ENDBRANCH   3  17
BRANCH   4  19
ATOM     19  C   UNL     1       4.319   2.784  20.035  0.00  0.00    +0.000 C 
ATOM     20  N   UNL     1       4.796   1.731  20.164  0.00  0.00    +0.000 NA
ENDBRANCH   4  19
TORSDOF 4
ENDMDL
MODEL 7
REMARK VINA RESULT:      -6.4      2.232      3.091
REMARK  Name = 
REMARK  6 active torsions:
REMARK  status: ('A' for Active; 'I' for Inactive)
REMARK    1  A    between atoms: C_1  and  O_2
REMARK    2  A    between atoms: O_2  and  C_3
REMARK    3  A    between atoms: C_7  and  C_8
REMARK    4  A    between atoms: C_10  and  S_11
REMARK    5  A    between atoms: S_11  and  C_12
REMARK    6  A    between atoms: C_13  and  C_14
REMARK                            x       y       z     vdW  Elec       q    Type
REMARK                         _______ _______ _______ _____ _____    ______ ____
ROOT
ATOM      1  C   UNL     1       4.567   4.117  17.045  0.00  0.00    +0.000 A 
ATOM      2  N   UNL     1       4.045   5.118  17.675  0.00  0.00    +0.000 NA
ATOM      3  C   UNL     1       3.217   4.876  18.755  0.00  0.00    +0.000 A 
ATOM      4  C   UNL     1       2.925   3.633  19.191  0.00  0.00    +0.000 A 
ATOM      5  C   UNL     1       3.526   2.501  18.460  0.00  0.00    +0.000 A 
ATOM      6  O   UNL     1       3.348   1.327  18.768  0.00  0.00    +0.000 OA
ATOM      7  N   UNL     1       4.314   2.822  17.399  0.00  0.00    +0.000 N 
ATOM      8  H   UNL     1       4.675   2.035  16.879  0.00  0.00    +0.000 HD
ENDROOT
BRANCH   1  13
ATOM      9  C   UNL     1       6.113   3.903  13.593  0.00  0.00    +0.000 A 
ATOM     10  C   UNL     1       7.222   4.737  13.766  0.00  0.00    +0.000 A 
ATOM     11  C   UNL     1       7.465   5.358  14.992  0.00  0.00    +0.000 A 
ATOM     12  C   UNL     1       6.592   5.152  16.057  0.00  0.00    +0.000 A 
ATOM     13  C   UNL     1       5.469   4.336  15.888  0.00  0.00    +0.000 A 
ATOM     14  C   UNL     1       5.234   3.705  14.657  0.00  0.00    +0.000 A 
BRANCH   9  16
ATOM     15  C   UNL     1       4.713   3.266  11.772  0.00  0.00    +0.000 C 
ATOM     16  O   UNL     1       6.010   3.331  12.357  0.00  0.00    +0.000 OA
ENDBRANCH   9  16
ENDBRANCH   1  13
BRANCH   3  17
ATOM     17  S   UNL     1       2.513   6.269  19.599  0.00  0.00    +0.000 S 
ATOM     18  C   UNL     1       2.533   7.537  18.309  0.00  0.00    +0.000 C 
ENDBRANCH   3  17
BRANCH   4  19
ATOM     19  C   UNL     1       2.079   3.320  20.285  0.00  0.00    +0.000 C 
ATOM     20  N   UNL     1       1.388   3.048  21.180  0.00  0.00    +0.000 NA
ENDBRANCH   4  19
TORSDOF 4
ENDMDL
MODEL 8
REMARK VINA RESULT:      -6.3      3.444      5.403
REMARK  Name = 
REMARK  6 active torsions:
REMARK  status: ('A' for Active; 'I' for Inactive)
REMARK    1  A    between atoms: C_1  and  O_2
REMARK    2  A    between atoms: O_2  and  C_3
REMARK    3  A    between atoms: C_7  and  C_8
REMARK    4  A    between atoms: C_10  and  S_11
REMARK    5  A    between atoms: S_11  and  C_12
REMARK    6  A    between atoms: C_13  and  C_14
REMARK                            x       y       z     vdW  Elec       q    Type
REMARK                         _______ _______ _______ _____ _____    ______ ____
ROOT
ATOM      1  C   UNL     1       2.770   6.232  19.440  0.00  0.00    +0.000 A 
ATOM      2  N   UNL     1       2.001   5.255  19.795  0.00  0.00    +0.000 NA
ATOM      3  C   UNL     1       2.549   4.001  19.986  0.00  0.00    +0.000 A 
ATOM      4  C   UNL     1       3.864   3.742  19.822  0.00  0.00    +0.000 A 
ATOM      5  C   UNL     1       4.728   4.867  19.415  0.00  0.00    +0.000 A 
ATOM      6  O   UNL     1       5.939   4.762  19.248  0.00  0.00    +0.000 OA
ATOM      7  N   UNL     1       4.110   6.064  19.230  0.00  0.00    +0.000 N 
ATOM      8  H   UNL     1       4.706   6.809  18.902  0.00  0.00    +0.000 HD
ENDROOT
BRANCH   1  13
ATOM      9  C   UNL     1       0.965   9.510  20.022  0.00  0.00    +0.000 A 
ATOM     10  C   UNL     1       1.168  10.129  18.785  0.00  0.00    +0.000 A 
ATOM     11  C   UNL     1       1.881   9.485  17.772  0.00  0.00    +0.000 A 
ATOM     12  C   UNL     1       2.403   8.214  17.995  0.00  0.00    +0.000 A 
ATOM     13  C   UNL     1       2.222   7.595  19.236  0.00  0.00    +0.000 A 
ATOM     14  C   UNL     1       1.496   8.241  20.248  0.00  0.00    +0.000 A 
BRANCH   9  16
ATOM     15  C   UNL     1      -0.334  11.462  20.455  0.00  0.00    +0.000 C 
ATOM     16  O   UNL     1       0.222  10.234  20.912  0.00  0.00    +0.000 OA
ENDBRANCH   9  16
ENDBRANCH   1  13
BRANCH   3  17
ATOM     17  S   UNL     1       1.469   2.680  20.469  0.00  0.00    +0.000 S 
ATOM     18  C   UNL     1       0.725   2.207  18.889  0.00  0.00    +0.000 C 
ENDBRANCH   3  17
BRANCH   4  19
ATOM     19  C   UNL     1       4.484   2.479  19.995  0.00  0.00    +0.000 C 
ATOM     20  N   UNL     1       4.990   1.445  20.153  0.00  0.00    +0.000 NA
ENDBRANCH   4  19
TORSDOF 4
ENDMDL
MODEL 9
REMARK VINA RESULT:      -6.2      4.650      6.900
REMARK  Name = 
REMARK  6 active torsions:
REMARK  status: ('A' for Active; 'I' for Inactive)
REMARK    1  A    between atoms: C_1  and  O_2
REMARK    2  A    between atoms: O_2  and  C_3
REMARK    3  A    between atoms: C_7  and  C_8
REMARK    4  A    between atoms: C_10  and  S_11
REMARK    5  A    between atoms: S_11  and  C_12
REMARK    6  A    between atoms: C_13  and  C_14
REMARK                            x       y       z     vdW  Elec       q    Type
REMARK                         _______ _______ _______ _____ _____    ______ ____
ROOT
ATOM      1  C   UNL     1       1.631   8.137  20.232  0.00  0.00    +0.000 A 
ATOM      2  N   UNL     1       1.161   9.034  19.429  0.00  0.00    +0.000 NA
ATOM      3  C   UNL     1       0.607  10.185  19.955  0.00  0.00    +0.000 A 
ATOM      4  C   UNL     1       0.534  10.424  21.282  0.00  0.00    +0.000 A 
ATOM      5  C   UNL     1       1.074   9.389  22.186  0.00  0.00    +0.000 A 
ATOM      6  O   UNL     1       1.078   9.495  23.408  0.00  0.00    +0.000 OA
ATOM      7  N   UNL     1       1.585   8.279  21.590  0.00  0.00    +0.000 N 
ATOM      8  H   UNL     1       1.901   7.559  22.223  0.00  0.00    +0.000 HD
ENDROOT
BRANCH   1  13
ATOM      9  C   UNL     1       2.792   4.544  19.926  0.00  0.00    +0.000 A 
ATOM     10  C   UNL     1       3.455   4.601  18.697  0.00  0.00    +0.000 A 
ATOM     11  C   UNL     1       3.526   5.795  17.978  0.00  0.00    +0.000 A 
ATOM     12  C   UNL     1       2.926   6.945  18.484  0.00  0.00    +0.000 A 
ATOM     13  C   UNL     1       2.244   6.893  19.704  0.00  0.00    +0.000 A 
ATOM     14  C   UNL     1       2.183   5.693  20.429  0.00  0.00    +0.000 A 
BRANCH   9  16
ATOM     15  C   UNL     1       1.864   3.081  21.563  0.00  0.00    +0.000 C 
ATOM     16  O   UNL     1       2.826   3.325  20.543  0.00  0.00    +0.000 OA
ENDBRANCH   9  16
ENDBRANCH   1  13
BRANCH   3  17
ATOM     17  S   UNL     1      -0.033  11.398  18.830  0.00  0.00    +0.000 S 
ATOM     18  C   UNL     1      -1.514  10.576  18.196  0.00  0.00    +0.000 C 
ENDBRANCH   3  17
BRANCH   4  19
ATOM     19  C   UNL     1      -0.027  11.579  21.883  0.00  0.00    +0.000 C 
ATOM     20  N   UNL     1      -0.484  12.520  22.391  0.00  0.00    +0.000 NA
ENDBRANCH   4  19
TORSDOF 4
ENDMDL
