MODEL 1
REMARK VINA RESULT:      -7.8      0.000      0.000
REMARK  Name = 
REMARK  6 active torsions:
REMARK  status: ('A' for Active; 'I' for Inactive)
REMARK    1  A    between atoms: C_1  and  C_2
REMARK    2  A    between atoms: C_6  and  C_7
REMARK    3  A    between atoms: C_12  and  C_13
REMARK    4  A    between atoms: C_12  and  C_14
REMARK    5  A    between atoms: N_16  and  C_17
REMARK    6  A    between atoms: C_17  and  C_18
REMARK                            x       y       z     vdW  Elec       q    Type
REMARK                         _______ _______ _______ _____ _____    ______ ____
ROOT
ATOM      1  C   UNL     1       2.302   6.328  18.678  0.00  0.00    +0.000 C 
ATOM      2  O   UNL     1       2.175   6.554  17.469  0.00  0.00    +0.000 OA
ATOM      3  N   UNL     1       2.238   7.369  19.587  0.00  0.00    +0.000 N 
ATOM      4  H   UNL     1       2.462   7.219  20.558  0.00  0.00    +0.000 HD
ENDROOT
BRANCH   1  10
ATOM      5  C   UNL     1       4.446   4.071  17.648  0.00  0.00    +0.000 C 
ATOM      6  O   UNL     1       4.422   3.360  16.640  0.00  0.00    +0.000 OA
ATOM      7  N   UNL     1       3.442   3.905  18.595  0.00  0.00    +0.000 N 
ATOM      8  C   UNL     1       2.435   2.840  18.531  0.00  0.00    +0.000 C 
ATOM      9  C   UNL     1       1.390   3.862  18.948  0.00  0.00    +0.000 C 
ATOM     10  C   UNL     1       2.520   4.868  19.262  0.00  0.00    +0.000 C 
ATOM     11  C   UNL     1       2.751   4.903  20.784  0.00  0.00    +0.000 C 
BRANCH   5  17
ATOM     12  C   UNL     1       5.164   6.452  15.690  0.00  0.00    +0.000 C 
ATOM     13  C   UNL     1       5.839   6.125  16.988  0.00  0.00    +0.000 A 
ATOM     14  C   UNL     1       6.957   6.877  17.483  0.00  0.00    +0.000 A 
ATOM     15  C   UNL     1       7.429   6.397  18.679  0.00  0.00    +0.000 A 
ATOM     16  S   UNL     1       6.584   5.014  19.174  0.00  0.00    +0.000 S 
ATOM     17  C   UNL     1       5.508   5.069  17.842  0.00  0.00    +0.000 A 
ENDBRANCH   5  17
ENDBRANCH   1  10
BRANCH   3  18
ATOM     18  C   UNL     1       1.741   8.677  19.231  0.00  0.00    +0.000 C 
BRANCH  18  19
ATOM     19  C   UNL     1       0.977   9.283  20.384  0.00  0.00    +0.000 A 
ATOM     20  C   UNL     1       1.185   8.746  21.672  0.00  0.00    +0.000 A 
ATOM     21  C   UNL     1       0.500   9.258  22.768  0.00  0.00    +0.000 A 
ATOM     22  C   UNL     1      -0.396  10.311  22.592  0.00  0.00    +0.000 A 
ATOM     23  C   UNL     1      -0.603  10.881  21.330  0.00  0.00    +0.000 A 
ATOM     24  C   UNL     1      -1.505  11.945  21.167  0.00  0.00    +0.000 A 
ATOM     25  C   UNL     1      -1.719  12.530  19.920  0.00  0.00    +0.000 A 
ATOM     26  C   UNL     1      -1.035  12.058  18.811  0.00  0.00    +0.000 A 
ATOM     27  C   UNL     1      -0.136  10.996  18.954  0.00  0.00    +0.000 A 
ATOM     28  C   UNL     1       0.093  10.374  20.204  0.00  0.00    +0.000 A 
ENDBRANCH  18  19
ENDBRANCH   3  18
TORSDOF 4
ENDMDL
MODEL 2
REMARK VINA RESULT:      -7.2      1.936      4.061
REMARK  Name = 
REMARK  6 active torsions:
REMARK  status: ('A' for Active; 'I' for Inactive)
REMARK    1  A    between atoms: C_1  and  C_2
REMARK    2  A    between atoms: C_6  and  C_7
REMARK    3  A    between atoms: C_12  and  C_13
REMARK    4  A    between atoms: C_12  and  C_14
REMARK    5  A    between atoms: N_16  and  C_17
REMARK    6  A    between atoms: C_17  and  C_18
REMARK                            x       y       z     vdW  Elec       q    Type
REMARK                         _______ _______ _______ _____ _____    ______ ____
ROOT
ATOM      1  C   UNL     1       5.197   6.703  16.552  0.00  0.00    +0.000 C 
ATOM      2  O   UNL     1       4.874   6.929  15.381  0.00  0.00    +0.000 OA
ATOM      3  N   UNL     1       4.416   7.178  17.590  0.00  0.00    +0.000 N 
ATOM      4  H   UNL     1       4.730   7.109  18.545  0.00  0.00    +0.000 HD
ENDROOT
BRANCH   1  10
ATOM      5  C   UNL     1       5.487   4.516  18.978  0.00  0.00    +0.000 C 
ATOM      6  O   UNL     1       5.579   4.694  20.196  0.00  0.00    +0.000 OA
ATOM      7  N   UNL     1       6.501   5.004  18.163  0.00  0.00    +0.000 N 
ATOM      8  C   UNL     1       7.741   5.596  18.676  0.00  0.00    +0.000 C 
ATOM      9  C   UNL     1       7.621   6.670  17.607  0.00  0.00    +0.000 C 
ATOM     10  C   UNL     1       6.485   5.859  16.942  0.00  0.00    +0.000 C 
ATOM     11  C   UNL     1       7.052   5.109  15.723  0.00  0.00    +0.000 C 
BRANCH   5  17
ATOM     12  C   UNL     1       3.071   3.255  20.588  0.00  0.00    +0.000 C 
ATOM     13  C   UNL     1       3.259   3.244  19.100  0.00  0.00    +0.000 A 
ATOM     14  C   UNL     1       2.333   2.600  18.214  0.00  0.00    +0.000 A 
ATOM     15  C   UNL     1       2.705   2.699  16.896  0.00  0.00    +0.000 A 
ATOM     16  S   UNL     1       4.190   3.499  16.726  0.00  0.00    +0.000 S 
ATOM     17  C   UNL     1       4.333   3.807  18.405  0.00  0.00    +0.000 A 
ENDBRANCH   5  17
ENDBRANCH   1  10
BRANCH   3  18
ATOM     18  C   UNL     1       3.078   7.679  17.384  0.00  0.00    +0.000 C 
BRANCH  18  19
ATOM     19  C   UNL     1       2.354   7.813  18.702  0.00  0.00    +0.000 A 
ATOM     20  C   UNL     1       2.412   6.728  19.603  0.00  0.00    +0.000 A 
ATOM     21  C   UNL     1       1.755   6.792  20.826  0.00  0.00    +0.000 A 
ATOM     22  C   UNL     1       1.037   7.937  21.165  0.00  0.00    +0.000 A 
ATOM     23  C   UNL     1       0.983   9.038  20.303  0.00  0.00    +0.000 A 
ATOM     24  C   UNL     1       0.260  10.189  20.659  0.00  0.00    +0.000 A 
ATOM     25  C   UNL     1       0.200  11.297  19.816  0.00  0.00    +0.000 A 
ATOM     26  C   UNL     1       0.863  11.275  18.600  0.00  0.00    +0.000 A 
ATOM     27  C   UNL     1       1.584  10.136  18.227  0.00  0.00    +0.000 A 
ATOM     28  C   UNL     1       1.653   8.990  19.055  0.00  0.00    +0.000 A 
ENDBRANCH  18  19
ENDBRANCH   3  18
TORSDOF 4
ENDMDL
MODEL 3
REMARK VINA RESULT:      -7.2      1.279      1.676
REMARK  Name = 
REMARK  6 active torsions:
REMARK  status: ('A' for Active; 'I' for Inactive)
REMARK    1  A    between atoms: C_1  and  C_2
REMARK    2  A    between atoms: C_6  and  C_7
REMARK    3  A    between atoms: C_12  and  C_13
REMARK    4  A    between atoms: C_12  and  C_14
REMARK    5  A    between atoms: N_16  and  C_17
REMARK    6  A    between atoms: C_17  and  C_18
REMARK                            x       y       z     vdW  Elec       q    Type
REMARK                         _______ _______ _______ _____ _____    ______ ____
ROOT
ATOM      1  C   UNL     1       2.636   6.815  18.208  0.00  0.00    +0.000 C 
ATOM      2  O   UNL     1       3.310   7.032  17.195  0.00  0.00    +0.000 OA
ATOM      3  N   UNL     1       1.823   7.808  18.724  0.00  0.00    +0.000 N 
ATOM      4  H   UNL     1       1.365   7.689  19.614  0.00  0.00    +0.000 HD
ENDROOT
BRANCH   1  10
ATOM      5  C   UNL     1       4.526   4.213  17.569  0.00  0.00    +0.000 C 
ATOM      6  O   UNL     1       4.463   3.398  16.644  0.00  0.00    +0.000 OA
ATOM      7  N   UNL     1       3.463   4.278  18.462  0.00  0.00    +0.000 N 
ATOM      8  C   UNL     1       2.334   3.343  18.448  0.00  0.00    +0.000 C 
ATOM      9  C   UNL     1       1.406   4.524  18.685  0.00  0.00    +0.000 C 
ATOM     10  C   UNL     1       2.638   5.416  18.960  0.00  0.00    +0.000 C 
ATOM     11  C   UNL     1       2.795   5.599  20.481  0.00  0.00    +0.000 C 
BRANCH   5  17
ATOM     12  C   UNL     1       5.997   5.797  15.257  0.00  0.00    +0.000 C 
ATOM     13  C   UNL     1       6.357   5.797  16.713  0.00  0.00    +0.000 A 
ATOM     14  C   UNL     1       7.482   6.526  17.226  0.00  0.00    +0.000 A 
ATOM     15  C   UNL     1       7.637   6.374  18.581  0.00  0.00    +0.000 A 
ATOM     16  S   UNL     1       6.484   5.311  19.226  0.00  0.00    +0.000 S 
ATOM     17  C   UNL     1       5.695   5.091  17.721  0.00  0.00    +0.000 A 
ENDBRANCH   5  17
ENDBRANCH   1  10
BRANCH   3  18
ATOM     18  C   UNL     1       1.489   8.999  17.979  0.00  0.00    +0.000 C 
BRANCH  18  19
ATOM     19  C   UNL     1       0.593   9.899  18.795  0.00  0.00    +0.000 A 
ATOM     20  C   UNL     1       1.093  10.400  20.017  0.00  0.00    +0.000 A 
ATOM     21  C   UNL     1       0.308  11.225  20.814  0.00  0.00    +0.000 A 
ATOM     22  C   UNL     1      -0.980  11.560  20.402  0.00  0.00    +0.000 A 
ATOM     23  C   UNL     1      -1.494  11.098  19.184  0.00  0.00    +0.000 A 
ATOM     24  C   UNL     1      -2.792  11.448  18.778  0.00  0.00    +0.000 A 
ATOM     25  C   UNL     1      -3.317  11.004  17.566  0.00  0.00    +0.000 A 
ATOM     26  C   UNL     1      -2.552  10.199  16.737  0.00  0.00    +0.000 A 
ATOM     27  C   UNL     1      -1.258   9.838  17.127  0.00  0.00    +0.000 A 
ATOM     28  C   UNL     1      -0.703  10.262  18.357  0.00  0.00    +0.000 A 
ENDBRANCH  18  19
ENDBRANCH   3  18
TORSDOF 4
ENDMDL
MODEL 4
REMARK VINA RESULT:      -7.0      5.789     10.649
REMARK  Name = 
REMARK  6 active torsions:
REMARK  status: ('A' for Active; 'I' for Inactive)
REMARK    1  A    between atoms: C_1  and  C_2
REMARK    2  A    between atoms: C_6  and  C_7
REMARK    3  A    between atoms: C_12  and  C_13
REMARK    4  A    between atoms: C_12  and  C_14
REMARK    5  A    between atoms: N_16  and  C_17
REMARK    6  A    between atoms: C_17  and  C_18
REMARK                            x       y       z     vdW  Elec       q    Type
REMARK                         _______ _______ _______ _____ _____    ______ ____
ROOT
ATOM      1  C   UNL     1      -2.896  13.512  21.598  0.00  0.00    +0.000 C 
ATOM      2  O   UNL     1      -2.565  14.416  20.823  0.00  0.00    +0.000 OA
ATOM      3  N   UNL     1      -2.495  12.210  21.356  0.00  0.00    +0.000 N 
ATOM      4  H   UNL     1      -2.858  11.448  21.906  0.00  0.00    +0.000 HD
ENDROOT
BRANCH   1  10
ATOM      5  C   UNL     1      -6.071  14.318  21.746  0.00  0.00    +0.000 C 
ATOM      6  O   UNL     1      -6.626  15.393  21.502  0.00  0.00    +0.000 OA
ATOM      7  N   UNL     1      -5.168  14.268  22.802  0.00  0.00    +0.000 N 
ATOM      8  C   UNL     1      -4.940  15.382  23.727  0.00  0.00    +0.000 C 
ATOM      9  C   UNL     1      -3.450  15.088  23.647  0.00  0.00    +0.000 C 
ATOM     10  C   UNL     1      -3.766  13.771  22.901  0.00  0.00    +0.000 C 
ATOM     11  C   UNL     1      -3.655  12.597  23.890  0.00  0.00    +0.000 C 
BRANCH   5  17
ATOM     12  C   UNL     1      -7.846  11.847  22.618  0.00  0.00    +0.000 C 
ATOM     13  C   UNL     1      -7.137  12.023  21.309  0.00  0.00    +0.000 A 
ATOM     14  C   UNL     1      -7.167  11.024  20.278  0.00  0.00    +0.000 A 
ATOM     15  C   UNL     1      -6.440  11.384  19.171  0.00  0.00    +0.000 A 
ATOM     16  S   UNL     1      -5.671  12.879  19.389  0.00  0.00    +0.000 S 
ATOM     17  C   UNL     1      -6.358  13.123  20.939  0.00  0.00    +0.000 A 
ENDBRANCH   5  17
ENDBRANCH   1  10
BRANCH   3  18
ATOM     18  C   UNL     1      -1.462  11.885  20.401  0.00  0.00    +0.000 C 
BRANCH  18  19
ATOM     19  C   UNL     1      -0.586  10.774  20.929  0.00  0.00    +0.000 A 
ATOM     20  C   UNL     1      -0.631  10.495  22.312  0.00  0.00    +0.000 A 
ATOM     21  C   UNL     1       0.163   9.490  22.853  0.00  0.00    +0.000 A 
ATOM     22  C   UNL     1       1.005   8.753  22.024  0.00  0.00    +0.000 A 
ATOM     23  C   UNL     1       1.052   8.990  20.645  0.00  0.00    +0.000 A 
ATOM     24  C   UNL     1       1.901   8.235  19.819  0.00  0.00    +0.000 A 
ATOM     25  C   UNL     1       1.956   8.453  18.444  0.00  0.00    +0.000 A 
ATOM     26  C   UNL     1       1.161   9.431  17.868  0.00  0.00    +0.000 A 
ATOM     27  C   UNL     1       0.312  10.195  18.676  0.00  0.00    +0.000 A 
ATOM     28  C   UNL     1       0.244  10.007  20.077  0.00  0.00    +0.000 A 
ENDBRANCH  18  19
ENDBRANCH   3  18
TORSDOF 4
ENDMDL
MODEL 5
REMARK VINA RESULT:      -7.0      6.609      9.514
REMARK  Name = 
REMARK  6 active torsions:
REMARK  status: ('A' for Active; 'I' for Inactive)
REMARK    1  A    between atoms: C_1  and  C_2
REMARK    2  A    between atoms: C_6  and  C_7
REMARK    3  A    between atoms: C_12  and  C_13
REMARK    4  A    between atoms: C_12  and  C_14
REMARK    5  A    between atoms: N_16  and  C_17
REMARK    6  A    between atoms: C_17  and  C_18
REMARK                            x       y       z     vdW  Elec       q    Type
REMARK                         _______ _______ _______ _____ _____    ______ ____
ROOT
ATOM      1  C   UNL     1      -4.213  11.318  18.272  0.00  0.00    +0.000 C 
ATOM      2  O   UNL     1      -3.969  10.108  18.200  0.00  0.00    +0.000 OA
ATOM      3  N   UNL     1      -3.193  12.240  18.118  0.00  0.00    +0.000 N 
ATOM      4  H   UNL     1      -3.352  13.219  18.296  0.00  0.00    +0.000 HD
ENDROOT
BRANCH   1  10
ATOM      5  C   UNL     1      -5.416  12.563  21.056  0.00  0.00    +0.000 C 
ATOM      6  O   UNL     1      -5.767  11.991  22.092  0.00  0.00    +0.000 OA
ATOM      7  N   UNL     1      -6.116  12.294  19.886  0.00  0.00    +0.000 N 
ATOM      8  C   UNL     1      -7.332  11.475  19.838  0.00  0.00    +0.000 C 
ATOM      9  C   UNL     1      -6.792  10.822  18.576  0.00  0.00    +0.000 C 
ATOM     10  C   UNL     1      -5.674  11.888  18.521  0.00  0.00    +0.000 C 
ATOM     11  C   UNL     1      -6.045  12.951  17.471  0.00  0.00    +0.000 C 
BRANCH   5  17
ATOM     12  C   UNL     1      -2.524  12.017  22.218  0.00  0.00    +0.000 C 
ATOM     13  C   UNL     1      -3.005  13.281  21.570  0.00  0.00    +0.000 A 
ATOM     14  C   UNL     1      -2.170  14.441  21.433  0.00  0.00    +0.000 A 
ATOM     15  C   UNL     1      -2.816  15.488  20.825  0.00  0.00    +0.000 A 
ATOM     16  S   UNL     1      -4.432  15.110  20.481  0.00  0.00    +0.000 S 
ATOM     17  C   UNL     1      -4.287  13.504  21.061  0.00  0.00    +0.000 A 
ENDBRANCH   5  17
ENDBRANCH   1  10
BRANCH   3  18
ATOM     18  C   UNL     1      -1.900  11.880  17.585  0.00  0.00    +0.000 C 
BRANCH  18  19
ATOM     19  C   UNL     1      -0.905  11.680  18.703  0.00  0.00    +0.000 A 
ATOM     20  C   UNL     1      -0.822  10.401  19.294  0.00  0.00    +0.000 A 
ATOM     21  C   UNL     1       0.069  10.163  20.335  0.00  0.00    +0.000 A 
ATOM     22  C   UNL     1       0.886  11.194  20.794  0.00  0.00    +0.000 A 
ATOM     23  C   UNL     1       0.843  12.466  20.210  0.00  0.00    +0.000 A 
ATOM     24  C   UNL     1       1.677  13.494  20.679  0.00  0.00    +0.000 A 
ATOM     25  C   UNL     1       1.653  14.765  20.105  0.00  0.00    +0.000 A 
ATOM     26  C   UNL     1       0.793  15.029  19.052  0.00  0.00    +0.000 A 
ATOM     27  C   UNL     1      -0.047  14.017  18.575  0.00  0.00    +0.000 A 
ATOM     28  C   UNL     1      -0.055  12.722  19.144  0.00  0.00    +0.000 A 
ENDBRANCH  18  19
ENDBRANCH   3  18
TORSDOF 4
ENDMDL
MODEL 6
REMARK VINA RESULT:      -6.9      1.007      1.350
REMARK  Name = 
REMARK  6 active torsions:
REMARK  status: ('A' for Active; 'I' for Inactive)
REMARK    1  A    between atoms: C_1  and  C_2
REMARK    2  A    between atoms: C_6  and  C_7
REMARK    3  A    between atoms: C_12  and  C_13
REMARK    4  A    between atoms: C_12  and  C_14
REMARK    5  A    between atoms: N_16  and  C_17
REMARK    6  A    between atoms: C_17  and  C_18
REMARK                            x       y       z     vdW  Elec       q    Type
REMARK                         _______ _______ _______ _____ _____    ______ ____
ROOT
ATOM      1  C   UNL     1       2.605   6.805  18.293  0.00  0.00    +0.000 C 
ATOM      2  O   UNL     1       2.926   7.317  17.215  0.00  0.00    +0.000 OA
ATOM      3  N   UNL     1       2.125   7.598  19.320  0.00  0.00    +0.000 N 
ATOM      4  H   UNL     1       1.976   7.216  20.241  0.00  0.00    +0.000 HD
ENDROOT
BRANCH   1  10
ATOM      5  C   UNL     1       4.650   4.657  16.895  0.00  0.00    +0.000 C 
ATOM      6  O   UNL     1       4.634   4.174  15.760  0.00  0.00    +0.000 OA
ATOM      7  N   UNL     1       3.589   4.373  17.747  0.00  0.00    +0.000 N 
ATOM      8  C   UNL     1       2.521   3.423  17.423  0.00  0.00    +0.000 C 
ATOM      9  C   UNL     1       1.523   4.410  18.005  0.00  0.00    +0.000 C 
ATOM     10  C   UNL     1       2.698   5.243  18.566  0.00  0.00    +0.000 C 
ATOM     11  C   UNL     1       2.850   4.947  20.069  0.00  0.00    +0.000 C 
BRANCH   5  17
ATOM     12  C   UNL     1       6.307   4.353  19.574  0.00  0.00    +0.000 C 
ATOM     13  C   UNL     1       6.504   5.393  18.512  0.00  0.00    +0.000 A 
ATOM     14  C   UNL     1       7.492   6.428  18.624  0.00  0.00    +0.000 A 
ATOM     15  C   UNL     1       7.491   7.280  17.548  0.00  0.00    +0.000 A 
ATOM     16  S   UNL     1       6.268   6.885  16.442  0.00  0.00    +0.000 S 
ATOM     17  C   UNL     1       5.763   5.512  17.334  0.00  0.00    +0.000 A 
ENDBRANCH   5  17
ENDBRANCH   1  10
BRANCH   3  18
ATOM     18  C   UNL     1       1.700   8.962  19.110  0.00  0.00    +0.000 C 
BRANCH  18  19
ATOM     19  C   UNL     1       0.930   9.466  20.307  0.00  0.00    +0.000 A 
ATOM     20  C   UNL     1       1.172   8.855  21.556  0.00  0.00    +0.000 A 
ATOM     21  C   UNL     1       0.483   9.271  22.689  0.00  0.00    +0.000 A 
ATOM     22  C   UNL     1      -0.450  10.301  22.590  0.00  0.00    +0.000 A 
ATOM     23  C   UNL     1      -0.692  10.943  21.370  0.00  0.00    +0.000 A 
ATOM     24  C   UNL     1      -1.631  11.984  21.285  0.00  0.00    +0.000 A 
ATOM     25  C   UNL     1      -1.881  12.639  20.081  0.00  0.00    +0.000 A 
ATOM     26  C   UNL     1      -1.195  12.264  18.937  0.00  0.00    +0.000 A 
ATOM     27  C   UNL     1      -0.259  11.227  19.002  0.00  0.00    +0.000 A 
ATOM     28  C   UNL     1       0.006  10.534  20.207  0.00  0.00    +0.000 A 
ENDBRANCH  18  19
ENDBRANCH   3  18
TORSDOF 4
ENDMDL
MODEL 7
REMARK VINA RESULT:      -6.9      1.692      1.967
REMARK  Name = 
REMARK  6 active torsions:
REMARK  status: ('A' for Active; 'I' for Inactive)
REMARK    1  A    between atoms: C_1  and  C_2
REMARK    2  A    between atoms: C_6  and  C_7
REMARK    3  A    between atoms: C_12  and  C_13
REMARK    4  A    between atoms: C_12  and  C_14
REMARK    5  A    between atoms: N_16  and  C_17
REMARK    6  A    between atoms: C_17  and  C_18
REMARK                            x       y       z     vdW  Elec       q    Type
REMARK                         _______ _______ _______ _____ _____    ______ ____
ROOT
ATOM      1  C   UNL     1       2.862   6.966  17.954  0.00  0.00    +0.000 C 
ATOM      2  O   UNL     1       3.628   7.232  17.021  0.00  0.00    +0.000 OA
ATOM      3  N   UNL     1       2.145   7.975  18.572  0.00  0.00    +0.000 N 
ATOM      4  H   UNL     1       1.614   7.793  19.409  0.00  0.00    +0.000 HD
ENDROOT
BRANCH   1  10
ATOM      5  C   UNL     1       4.687   4.318  17.315  0.00  0.00    +0.000 C 
ATOM      6  O   UNL     1       4.761   3.638  16.287  0.00  0.00    +0.000 OA
ATOM      7  N   UNL     1       3.473   4.357  17.992  0.00  0.00    +0.000 N 
ATOM      8  C   UNL     1       2.317   3.530  17.632  0.00  0.00    +0.000 C 
ATOM      9  C   UNL     1       1.431   4.745  17.857  0.00  0.00    +0.000 C 
ATOM     10  C   UNL     1       2.634   5.486  18.484  0.00  0.00    +0.000 C 
ATOM     11  C   UNL     1       2.496   5.457  20.017  0.00  0.00    +0.000 C 
BRANCH   5  17
ATOM     12  C   UNL     1       6.768   5.925  15.554  0.00  0.00    +0.000 C 
ATOM     13  C   UNL     1       6.780   5.780  17.046  0.00  0.00    +0.000 A 
ATOM     14  C   UNL     1       7.807   6.358  17.866  0.00  0.00    +0.000 A 
ATOM     15  C   UNL     1       7.632   6.090  19.201  0.00  0.00    +0.000 A 
ATOM     16  S   UNL     1       6.284   5.096  19.466  0.00  0.00    +0.000 S 
ATOM     17  C   UNL     1       5.851   5.067  17.808  0.00  0.00    +0.000 A 
ENDBRANCH   5  17
ENDBRANCH   1  10
BRANCH   3  18
ATOM     18  C   UNL     1       2.019   9.295  18.000  0.00  0.00    +0.000 C 
BRANCH  18  19
ATOM     19  C   UNL     1       1.277  10.211  18.943  0.00  0.00    +0.000 A 
ATOM     20  C   UNL     1       0.352   9.632  19.838  0.00  0.00    +0.000 A 
ATOM     21  C   UNL     1      -0.367  10.429  20.721  0.00  0.00    +0.000 A 
ATOM     22  C   UNL     1      -0.170  11.808  20.724  0.00  0.00    +0.000 A 
ATOM     23  C   UNL     1       0.759  12.408  19.865  0.00  0.00    +0.000 A 
ATOM     24  C   UNL     1       0.953  13.799  19.883  0.00  0.00    +0.000 A 
ATOM     25  C   UNL     1       1.878  14.412  19.040  0.00  0.00    +0.000 A 
ATOM     26  C   UNL     1       2.628  13.644  18.163  0.00  0.00    +0.000 A 
ATOM     27  C   UNL     1       2.445  12.258  18.131  0.00  0.00    +0.000 A 
ATOM     28  C   UNL     1       1.504  11.608  18.964  0.00  0.00    +0.000 A 
ENDBRANCH  18  19
ENDBRANCH   3  18
TORSDOF 4
ENDMDL
MODEL 8
REMARK VINA RESULT:      -6.8      8.722     10.246
REMARK  Name = 
REMARK  6 active torsions:
REMARK  status: ('A' for Active; 'I' for Inactive)
REMARK    1  A    between atoms: C_1  and  C_2
REMARK    2  A    between atoms: C_6  and  C_7
REMARK    3  A    between atoms: C_12  and  C_13
REMARK    4  A    between atoms: C_12  and  C_14
REMARK    5  A    between atoms: N_16  and  C_17
REMARK    6  A    between atoms: C_17  and  C_18
REMARK                            x       y       z     vdW  Elec       q    Type
REMARK                         _______ _______ _______ _____ _____    ______ ____
ROOT
ATOM      1  C   UNL     1       9.606  12.842  20.980  0.00  0.00    +0.000 C 
ATOM      2  O   UNL     1      10.297  13.758  21.439  0.00  0.00    +0.000 OA
ATOM      3  N   UNL     1       8.329  12.627  21.467  0.00  0.00    +0.000 N 
ATOM      4  H   UNL     1       7.802  11.813  21.192  0.00  0.00    +0.000 HD
ENDROOT
BRANCH   1  10
ATOM      5  C   UNL     1       8.874  13.027  17.789  0.00  0.00    +0.000 C 
ATOM      6  O   UNL     1       7.831  12.731  17.199  0.00  0.00    +0.000 OA
ATOM      7  N   UNL     1       9.576  12.013  18.432  0.00  0.00    +0.000 N 
ATOM      8  C   UNL     1       9.222  10.593  18.334  0.00  0.00    +0.000 C 
ATOM      9  C   UNL     1       9.490  10.467  19.825  0.00  0.00    +0.000 C 
ATOM     10  C   UNL     1      10.109  11.883  19.818  0.00  0.00    +0.000 C 
ATOM     11  C   UNL     1      11.644  11.760  19.820  0.00  0.00    +0.000 C 
BRANCH   5  17
ATOM     12  C   UNL     1      11.742  14.025  16.899  0.00  0.00    +0.000 C 
ATOM     13  C   UNL     1      10.622  14.872  17.424  0.00  0.00    +0.000 A 
ATOM     14  C   UNL     1      10.754  16.288  17.617  0.00  0.00    +0.000 A 
ATOM     15  C   UNL     1       9.614  16.863  18.119  0.00  0.00    +0.000 A 
ATOM     16  S   UNL     1       8.414  15.704  18.424  0.00  0.00    +0.000 S 
ATOM     17  C   UNL     1       9.360  14.414  17.812  0.00  0.00    +0.000 A 
ENDBRANCH   5  17
ENDBRANCH   1  10
BRANCH   3  18
ATOM     18  C   UNL     1       7.640  13.598  22.284  0.00  0.00    +0.000 C 
BRANCH  18  19
ATOM     19  C   UNL     1       7.559  13.121  23.715  0.00  0.00    +0.000 A 
ATOM     20  C   UNL     1       6.854  11.927  23.976  0.00  0.00    +0.000 A 
ATOM     21  C   UNL     1       6.738  11.448  25.276  0.00  0.00    +0.000 A 
ATOM     22  C   UNL     1       7.324  12.151  26.326  0.00  0.00    +0.000 A 
ATOM     23  C   UNL     1       8.051  13.325  26.094  0.00  0.00    +0.000 A 
ATOM     24  C   UNL     1       8.642  14.021  27.161  0.00  0.00    +0.000 A 
ATOM     25  C   UNL     1       9.375  15.187  26.949  0.00  0.00    +0.000 A 
ATOM     26  C   UNL     1       9.529  15.680  25.663  0.00  0.00    +0.000 A 
ATOM     27  C   UNL     1       8.944  15.001  24.589  0.00  0.00    +0.000 A 
ATOM     28  C   UNL     1       8.184  13.823  24.774  0.00  0.00    +0.000 A 
ENDBRANCH  18  19
ENDBRANCH   3  18
TORSDOF 4
ENDMDL
MODEL 9
REMARK VINA RESULT:      -6.8      8.493     11.345
REMARK  Name = 
REMARK  6 active torsions:
REMARK  status: ('A' for Active; 'I' for Inactive)
REMARK    1  A    between atoms: C_1  and  C_2
REMARK    2  A    between atoms: C_6  and  C_7
REMARK    3  A    between atoms: C_12  and  C_13
REMARK    4  A    between atoms: C_12  and  C_14
REMARK    5  A    between atoms: N_16  and  C_17
REMARK    6  A    between atoms: C_17  and  C_18
REMARK                            x       y       z     vdW  Elec       q    Type
REMARK                         _______ _______ _______ _____ _____    ______ ____
ROOT
ATOM      1  C   UNL     1       6.260  15.177  18.911  0.00  0.00    +0.000 C 
ATOM      2  O   UNL     1       6.058  14.339  18.026  0.00  0.00    +0.000 OA
ATOM      3  N   UNL     1       7.478  15.829  18.983  0.00  0.00    +0.000 N 
ATOM      4  H   UNL     1       7.701  16.420  19.768  0.00  0.00    +0.000 HD
ENDROOT
BRANCH   1  10
ATOM      5  C   UNL     1       6.169  14.308  22.072  0.00  0.00    +0.000 C 
ATOM      6  O   UNL     1       5.880  13.224  22.585  0.00  0.00    +0.000 OA
ATOM      7  N   UNL     1       5.185  14.982  21.358  0.00  0.00    +0.000 N 
ATOM      8  C   UNL     1       3.786  14.547  21.296  0.00  0.00    +0.000 C 
ATOM      9  C   UNL     1       3.793  14.877  19.812  0.00  0.00    +0.000 C 
ATOM     10  C   UNL     1       5.162  15.572  19.989  0.00  0.00    +0.000 C 
ATOM     11  C   UNL     1       4.949  17.096  20.038  0.00  0.00    +0.000 C 
BRANCH   5  17
ATOM     12  C   UNL     1       8.898  12.765  21.637  0.00  0.00    +0.000 C 
ATOM     13  C   UNL     1       8.735  14.204  22.023  0.00  0.00    +0.000 A 
ATOM     14  C   UNL     1       9.856  15.063  22.280  0.00  0.00    +0.000 A 
ATOM     15  C   UNL     1       9.478  16.335  22.632  0.00  0.00    +0.000 A 
ATOM     16  S   UNL     1       7.792  16.483  22.722  0.00  0.00    +0.000 S 
ATOM     17  C   UNL     1       7.520  14.870  22.210  0.00  0.00    +0.000 A 
ENDBRANCH   5  17
ENDBRANCH   1  10
BRANCH   3  18
ATOM     18  C   UNL     1       8.435  15.800  17.903  0.00  0.00    +0.000 C 
BRANCH  18  19
ATOM     19  C   UNL     1       9.788  15.357  18.407  0.00  0.00    +0.000 A 
ATOM     20  C   UNL     1      10.667  16.345  18.899  0.00  0.00    +0.000 A 
ATOM     21  C   UNL     1      11.929  15.996  19.365  0.00  0.00    +0.000 A 
ATOM     22  C   UNL     1      12.326  14.661  19.348  0.00  0.00    +0.000 A 
ATOM     23  C   UNL     1      11.466  13.656  18.889  0.00  0.00    +0.000 A 
ATOM     24  C   UNL     1      11.877  12.313  18.883  0.00  0.00    +0.000 A 
ATOM     25  C   UNL     1      11.032  11.298  18.437  0.00  0.00    +0.000 A 
ATOM     26  C   UNL     1       9.759  11.609  17.987  0.00  0.00    +0.000 A 
ATOM     27  C   UNL     1       9.335  12.943  17.983  0.00  0.00    +0.000 A 
ATOM     28  C   UNL     1      10.174  13.995  18.417  0.00  0.00    +0.000 A 
ENDBRANCH  18  19
ENDBRANCH   3  18
TORSDOF 4
ENDMDL
