MODEL 1
REMARK VINA RESULT:      -8.4      0.000      0.000
REMARK  Name = 
REMARK  5 active torsions:
REMARK  status: ('A' for Active; 'I' for Inactive)
REMARK    1  A    between atoms: C_2  and  C_3
REMARK    2  A    between atoms: C_6  and  N_7
REMARK    3  A    between atoms: C_8  and  C_10
REMARK    4  A    between atoms: C_10  and  N_11
REMARK    5  A    between atoms: C_17  and  C_18
REMARK                            x       y       z     vdW  Elec       q    Type
REMARK                         _______ _______ _______ _____ _____    ______ ____
ROOT
ATOM      1  N   UNL     1       3.060   6.006  18.187  0.00  0.00    +0.000 N 
ATOM      2  C   UNL     1       2.647   4.803  18.664  0.00  0.00    +0.000 A 
ATOM      3  N   UNL     1       3.749   4.053  18.892  0.00  0.00    +0.000 N 
ATOM      4  C   UNL     1       4.892   4.792  18.629  0.00  0.00    +0.000 A 
ATOM      5  C   UNL     1       6.238   4.479  18.795  0.00  0.00    +0.000 A 
ATOM      6  C   UNL     1       7.154   5.487  18.483  0.00  0.00    +0.000 A 
ATOM      7  C   UNL     1       6.738   6.752  18.002  0.00  0.00    +0.000 A 
ATOM      8  C   UNL     1       5.369   7.042  17.809  0.00  0.00    +0.000 A 
ATOM      9  C   UNL     1       4.462   6.036  18.153  0.00  0.00    +0.000 A 
ATOM     10  C   UNL     1       3.725   2.665  19.376  0.00  0.00    +0.000 C 
ATOM     11  C   UNL     1       3.156   2.552  20.786  0.00  0.00    +0.000 C 
ATOM     12  C   UNL     1       1.630   2.570  20.820  0.00  0.00    +0.000 C 
ATOM     13  C   UNL     1       1.012   3.907  20.423  0.00  0.00    +0.000 C 
ATOM     14  C   UNL     1       1.263   4.302  18.976  0.00  0.00    +0.000 C 
ENDROOT
BRANCH   7  15
ATOM     15  C   UNL     1       7.772   7.826  17.717  0.00  0.00    +0.000 C 
ATOM     16  F   UNL     1       7.231   9.076  17.665  0.00  0.00    +0.000 F 
ATOM     17  F   UNL     1       8.747   7.876  18.655  0.00  0.00    +0.000 F 
ATOM     18  F   UNL     1       8.380   7.636  16.517  0.00  0.00    +0.000 F 
ENDBRANCH   7  15
BRANCH   1  19
ATOM     19  C   UNL     1       2.204   7.206  17.915  0.00  0.00    +0.000 C 
BRANCH  19  21
ATOM     20  N   UNL     1       1.218   9.250  18.892  0.00  0.00    +0.000 N 
ATOM     21  C   UNL     1       1.869   8.055  19.137  0.00  0.00    +0.000 C 
ATOM     22  O   UNL     1       2.179   7.642  20.258  0.00  0.00    +0.000 OA
ATOM     23  H   UNL     1       1.183   9.620  17.935  0.00  0.00    +0.000 HD
BRANCH  20  27
ATOM     24  C   UNL     1      -0.270  12.038  21.715  0.00  0.00    +0.000 A 
ATOM     25  C   UNL     1      -0.694  10.708  21.783  0.00  0.00    +0.000 A 
ATOM     26  C   UNL     1      -0.215   9.764  20.866  0.00  0.00    +0.000 A 
ATOM     27  C   UNL     1       0.712  10.135  19.877  0.00  0.00    +0.000 A 
ATOM     28  C   UNL     1       1.149  11.463  19.842  0.00  0.00    +0.000 A 
ATOM     29  C   UNL     1       0.664  12.412  20.755  0.00  0.00    +0.000 A 
BRANCH  24  31
ATOM     30  N   UNL     1      -1.203  13.745  23.402  0.00  0.00    +0.000 NA
ATOM     31  C   UNL     1      -0.796  12.995  22.635  0.00  0.00    +0.000 C 
ENDBRANCH  24  31
ENDBRANCH  20  27
ENDBRANCH  19  21
ENDBRANCH   1  19
TORSDOF 5
ENDMDL
MODEL 2
REMARK VINA RESULT:      -8.3      0.258      1.146
REMARK  Name = 
REMARK  5 active torsions:
REMARK  status: ('A' for Active; 'I' for Inactive)
REMARK    1  A    between atoms: C_2  and  C_3
REMARK    2  A    between atoms: C_6  and  N_7
REMARK    3  A    between atoms: C_8  and  C_10
REMARK    4  A    between atoms: C_10  and  N_11
REMARK    5  A    between atoms: C_17  and  C_18
REMARK                            x       y       z     vdW  Elec       q    Type
REMARK                         _______ _______ _______ _____ _____    ______ ____
ROOT
ATOM      1  N   UNL     1       3.115   5.936  18.105  0.00  0.00    +0.000 N 
ATOM      2  C   UNL     1       2.711   4.747  18.625  0.00  0.00    +0.000 A 
ATOM      3  N   UNL     1       3.821   4.039  18.938  0.00  0.00    +0.000 N 
ATOM      4  C   UNL     1       4.955   4.795  18.686  0.00  0.00    +0.000 A 
ATOM      5  C   UNL     1       6.300   4.526  18.926  0.00  0.00    +0.000 A 
ATOM      6  C   UNL     1       7.203   5.542  18.602  0.00  0.00    +0.000 A 
ATOM      7  C   UNL     1       6.778   6.770  18.040  0.00  0.00    +0.000 A 
ATOM      8  C   UNL     1       5.412   7.013  17.773  0.00  0.00    +0.000 A 
ATOM      9  C   UNL     1       4.516   6.002  18.130  0.00  0.00    +0.000 A 
ATOM     10  C   UNL     1       3.809   2.677  19.491  0.00  0.00    +0.000 C 
ATOM     11  C   UNL     1       3.181   2.620  20.879  0.00  0.00    +0.000 C 
ATOM     12  C   UNL     1       1.655   2.599  20.847  0.00  0.00    +0.000 C 
ATOM     13  C   UNL     1       1.022   3.897  20.356  0.00  0.00    +0.000 C 
ATOM     14  C   UNL     1       1.328   4.225  18.902  0.00  0.00    +0.000 C 
ENDROOT
BRANCH   7  15
ATOM     15  C   UNL     1       7.797   7.856  17.744  0.00  0.00    +0.000 C 
ATOM     16  F   UNL     1       8.429   7.671  16.551  0.00  0.00    +0.000 F 
ATOM     17  F   UNL     1       7.245   9.091  17.692  0.00  0.00    +0.000 F 
ATOM     18  F   UNL     1       8.779   7.895  18.682  0.00  0.00    +0.000 F 
ENDBRANCH   7  15
BRANCH   1  19
ATOM     19  C   UNL     1       2.243   7.097  17.735  0.00  0.00    +0.000 C 
BRANCH  19  21
ATOM     20  N   UNL     1       1.327   9.254  18.520  0.00  0.00    +0.000 N 
ATOM     21  C   UNL     1       1.921   8.056  18.875  0.00  0.00    +0.000 C 
ATOM     22  O   UNL     1       2.190   7.724  20.034  0.00  0.00    +0.000 OA
ATOM     23  H   UNL     1       1.327   9.545  17.535  0.00  0.00    +0.000 HD
BRANCH  20  27
ATOM     24  C   UNL     1      -0.164  12.053  21.329  0.00  0.00    +0.000 A 
ATOM     25  C   UNL     1       0.783  12.471  20.389  0.00  0.00    +0.000 A 
ATOM     26  C   UNL     1       1.290  11.567  19.447  0.00  0.00    +0.000 A 
ATOM     27  C   UNL     1       0.841  10.236  19.418  0.00  0.00    +0.000 A 
ATOM     28  C   UNL     1      -0.130   9.844  20.345  0.00  0.00    +0.000 A 
ATOM     29  C   UNL     1      -0.632  10.744  21.297  0.00  0.00    +0.000 A 
BRANCH  24  31
ATOM     30  N   UNL     1      -1.004  13.706  23.116  0.00  0.00    +0.000 NA
ATOM     31  C   UNL     1      -0.643  12.977  22.307  0.00  0.00    +0.000 C 
ENDBRANCH  24  31
ENDBRANCH  20  27
ENDBRANCH  19  21
ENDBRANCH   1  19
TORSDOF 5
ENDMDL
MODEL 3
REMARK VINA RESULT:      -8.3      0.992      1.030
REMARK  Name = 
REMARK  5 active torsions:
REMARK  status: ('A' for Active; 'I' for Inactive)
REMARK    1  A    between atoms: C_2  and  C_3
REMARK    2  A    between atoms: C_6  and  N_7
REMARK    3  A    between atoms: C_8  and  C_10
REMARK    4  A    between atoms: C_10  and  N_11
REMARK    5  A    between atoms: C_17  and  C_18
REMARK                            x       y       z     vdW  Elec       q    Type
REMARK                         _______ _______ _______ _____ _____    ______ ____
ROOT
ATOM      1  N   UNL     1       3.103   5.732  18.039  0.00  0.00    +0.000 N 
ATOM      2  C   UNL     1       2.699   4.593  18.659  0.00  0.00    +0.000 A 
ATOM      3  N   UNL     1       3.805   3.962  19.117  0.00  0.00    +0.000 N 
ATOM      4  C   UNL     1       4.932   4.726  18.856  0.00  0.00    +0.000 A 
ATOM      5  C   UNL     1       6.264   4.532  19.209  0.00  0.00    +0.000 A 
ATOM      6  C   UNL     1       7.159   5.538  18.833  0.00  0.00    +0.000 A 
ATOM      7  C   UNL     1       6.738   6.682  18.114  0.00  0.00    +0.000 A 
ATOM      8  C   UNL     1       5.386   6.847  17.737  0.00  0.00    +0.000 A 
ATOM      9  C   UNL     1       4.497   5.850  18.145  0.00  0.00    +0.000 A 
ATOM     10  C   UNL     1       3.794   2.668  19.814  0.00  0.00    +0.000 C 
ATOM     11  C   UNL     1       3.077   2.738  21.157  0.00  0.00    +0.000 C 
ATOM     12  C   UNL     1       1.557   2.661  21.032  0.00  0.00    +0.000 C 
ATOM     13  C   UNL     1       0.923   3.875  20.362  0.00  0.00    +0.000 C 
ATOM     14  C   UNL     1       1.316   4.056  18.904  0.00  0.00    +0.000 C 
ENDROOT
BRANCH   7  15
ATOM     15  C   UNL     1       7.744   7.765  17.767  0.00  0.00    +0.000 C 
ATOM     16  F   UNL     1       7.184   9.007  17.723  0.00  0.00    +0.000 F 
ATOM     17  F   UNL     1       8.760   7.841  18.658  0.00  0.00    +0.000 F 
ATOM     18  F   UNL     1       8.298   7.565  16.543  0.00  0.00    +0.000 F 
ENDBRANCH   7  15
BRANCH   1  19
ATOM     19  C   UNL     1       2.226   6.816  17.490  0.00  0.00    +0.000 C 
BRANCH  19  21
ATOM     20  N   UNL     1       1.384   9.103  17.897  0.00  0.00    +0.000 N 
ATOM     21  C   UNL     1       1.924   7.958  18.453  0.00  0.00    +0.000 C 
ATOM     22  O   UNL     1       2.161   7.807  19.656  0.00  0.00    +0.000 OA
ATOM     23  H   UNL     1       1.411   9.231  16.878  0.00  0.00    +0.000 HD
BRANCH  20  27
ATOM     24  C   UNL     1       0.102  12.597  19.922  0.00  0.00    +0.000 A 
ATOM     25  C   UNL     1      -0.700  11.453  19.963  0.00  0.00    +0.000 A 
ATOM     26  C   UNL     1      -0.299  10.283  19.306  0.00  0.00    +0.000 A 
ATOM     27  C   UNL     1       0.922  10.235  18.614  0.00  0.00    +0.000 A 
ATOM     28  C   UNL     1       1.728  11.379  18.609  0.00  0.00    +0.000 A 
ATOM     29  C   UNL     1       1.324  12.555  19.258  0.00  0.00    +0.000 A 
BRANCH  24  31
ATOM     30  N   UNL     1      -0.663  14.770  21.071  0.00  0.00    +0.000 NA
ATOM     31  C   UNL     1      -0.339  13.793  20.566  0.00  0.00    +0.000 C 
ENDBRANCH  24  31
ENDBRANCH  20  27
ENDBRANCH  19  21
ENDBRANCH   1  19
TORSDOF 5
ENDMDL
MODEL 4
REMARK VINA RESULT:      -8.0      0.883      1.075
REMARK  Name = 
REMARK  5 active torsions:
REMARK  status: ('A' for Active; 'I' for Inactive)
REMARK    1  A    between atoms: C_2  and  C_3
REMARK    2  A    between atoms: C_6  and  N_7
REMARK    3  A    between atoms: C_8  and  C_10
REMARK    4  A    between atoms: C_10  and  N_11
REMARK    5  A    between atoms: C_17  and  C_18
REMARK                            x       y       z     vdW  Elec       q    Type
REMARK                         _______ _______ _______ _____ _____    ______ ____
ROOT
ATOM      1  N   UNL     1       3.144   5.893  17.966  0.00  0.00    +0.000 N 
ATOM      2  C   UNL     1       2.716   4.741  18.546  0.00  0.00    +0.000 A 
ATOM      3  N   UNL     1       3.806   4.078  18.994  0.00  0.00    +0.000 N 
ATOM      4  C   UNL     1       4.948   4.831  18.769  0.00  0.00    +0.000 A 
ATOM      5  C   UNL     1       6.273   4.605  19.127  0.00  0.00    +0.000 A 
ATOM      6  C   UNL     1       7.187   5.608  18.792  0.00  0.00    +0.000 A 
ATOM      7  C   UNL     1       6.792   6.781  18.106  0.00  0.00    +0.000 A 
ATOM      8  C   UNL     1       5.447   6.979  17.722  0.00  0.00    +0.000 A 
ATOM      9  C   UNL     1       4.538   5.984  18.089  0.00  0.00    +0.000 A 
ATOM     10  C   UNL     1       3.768   2.763  19.649  0.00  0.00    +0.000 C 
ATOM     11  C   UNL     1       3.038   2.802  20.988  0.00  0.00    +0.000 C 
ATOM     12  C   UNL     1       1.519   2.754  20.845  0.00  0.00    +0.000 C 
ATOM     13  C   UNL     1       0.911   3.998  20.209  0.00  0.00    +0.000 C 
ATOM     14  C   UNL     1       1.321   4.219  18.760  0.00  0.00    +0.000 C 
ENDROOT
BRANCH   7  15
ATOM     15  C   UNL     1       7.818   7.858  17.803  0.00  0.00    +0.000 C 
ATOM     16  F   UNL     1       7.272   9.106  17.759  0.00  0.00    +0.000 F 
ATOM     17  F   UNL     1       8.808   7.911  18.725  0.00  0.00    +0.000 F 
ATOM     18  F   UNL     1       8.406   7.668  16.593  0.00  0.00    +0.000 F 
ENDBRANCH   7  15
BRANCH   1  19
ATOM     19  C   UNL     1       2.289   7.007  17.443  0.00  0.00    +0.000 C 
BRANCH  19  21
ATOM     20  N   UNL     1       1.130   9.113  18.015  0.00  0.00    +0.000 N 
ATOM     21  C   UNL     1       1.830   8.018  18.488  0.00  0.00    +0.000 C 
ATOM     22  O   UNL     1       2.090   7.813  19.677  0.00  0.00    +0.000 OA
ATOM     23  H   UNL     1       1.136   9.320  17.009  0.00  0.00    +0.000 HD
BRANCH  20  27
ATOM     24  C   UNL     1      -0.879  12.004  20.373  0.00  0.00    +0.000 A 
ATOM     25  C   UNL     1       0.481  11.769  20.596  0.00  0.00    +0.000 A 
ATOM     26  C   UNL     1       1.171  10.822  19.829  0.00  0.00    +0.000 A 
ATOM     27  C   UNL     1       0.514  10.110  18.811  0.00  0.00    +0.000 A 
ATOM     28  C   UNL     1      -0.839  10.381  18.580  0.00  0.00    +0.000 A 
ATOM     29  C   UNL     1      -1.535  11.322  19.354  0.00  0.00    +0.000 A 
BRANCH  24  31
ATOM     30  N   UNL     1      -2.116  13.692  21.873  0.00  0.00    +0.000 NA
ATOM     31  C   UNL     1      -1.575  12.947  21.189  0.00  0.00    +0.000 C 
ENDBRANCH  24  31
ENDBRANCH  20  27
ENDBRANCH  19  21
ENDBRANCH   1  19
TORSDOF 5
ENDMDL
MODEL 5
REMARK VINA RESULT:      -7.6      4.561      9.527
REMARK  Name = 
REMARK  5 active torsions:
REMARK  status: ('A' for Active; 'I' for Inactive)
REMARK    1  A    between atoms: C_2  and  C_3
REMARK    2  A    between atoms: C_6  and  N_7
REMARK    3  A    between atoms: C_8  and  C_10
REMARK    4  A    between atoms: C_10  and  N_11
REMARK    5  A    between atoms: C_17  and  C_18
REMARK                            x       y       z     vdW  Elec       q    Type
REMARK                         _______ _______ _______ _____ _____    ______ ____
ROOT
ATOM      1  N   UNL     1      -1.343  12.078  19.717  0.00  0.00    +0.000 N 
ATOM      2  C   UNL     1      -1.995  12.653  20.762  0.00  0.00    +0.000 A 
ATOM      3  N   UNL     1      -3.297  12.770  20.418  0.00  0.00    +0.000 N 
ATOM      4  C   UNL     1      -3.513  12.206  19.170  0.00  0.00    +0.000 A 
ATOM      5  C   UNL     1      -4.688  12.017  18.448  0.00  0.00    +0.000 A 
ATOM      6  C   UNL     1      -4.564  11.352  17.224  0.00  0.00    +0.000 A 
ATOM      7  C   UNL     1      -3.310  10.914  16.734  0.00  0.00    +0.000 A 
ATOM      8  C   UNL     1      -2.124  11.144  17.467  0.00  0.00    +0.000 A 
ATOM      9  C   UNL     1      -2.264  11.782  18.701  0.00  0.00    +0.000 A 
ATOM     10  C   UNL     1      -4.329  13.383  21.267  0.00  0.00    +0.000 C 
ATOM     11  C   UNL     1      -4.568  12.595  22.550  0.00  0.00    +0.000 C 
ATOM     12  C   UNL     1      -3.533  12.883  23.634  0.00  0.00    +0.000 C 
ATOM     13  C   UNL     1      -2.130  12.382  23.307  0.00  0.00    +0.000 C 
ATOM     14  C   UNL     1      -1.486  13.071  22.115  0.00  0.00    +0.000 C 
ENDROOT
BRANCH   7  15
ATOM     15  C   UNL     1      -3.237  10.161  15.418  0.00  0.00    +0.000 C 
ATOM     16  F   UNL     1      -2.476   9.034  15.500  0.00  0.00    +0.000 F 
ATOM     17  F   UNL     1      -4.453   9.764  14.975  0.00  0.00    +0.000 F 
ATOM     18  F   UNL     1      -2.679  10.915  14.436  0.00  0.00    +0.000 F 
ENDBRANCH   7  15
BRANCH   1  19
ATOM     19  C   UNL     1       0.087  11.633  19.685  0.00  0.00    +0.000 C 
BRANCH  19  21
ATOM     20  N   UNL     1       1.357   9.582  19.148  0.00  0.00    +0.000 N 
ATOM     21  C   UNL     1       0.305  10.134  19.856  0.00  0.00    +0.000 C 
ATOM     22  O   UNL     1      -0.443   9.500  20.607  0.00  0.00    +0.000 OA
ATOM     23  H   UNL     1       1.796  10.123  18.393  0.00  0.00    +0.000 HD
BRANCH  20  27
ATOM     24  C   UNL     1       2.843   5.617  19.307  0.00  0.00    +0.000 A 
ATOM     25  C   UNL     1       2.209   6.153  20.433  0.00  0.00    +0.000 A 
ATOM     26  C   UNL     1       1.705   7.459  20.406  0.00  0.00    +0.000 A 
ATOM     27  C   UNL     1       1.810   8.243  19.245  0.00  0.00    +0.000 A 
ATOM     28  C   UNL     1       2.419   7.680  18.118  0.00  0.00    +0.000 A 
ATOM     29  C   UNL     1       2.933   6.375  18.145  0.00  0.00    +0.000 A 
BRANCH  24  31
ATOM     30  N   UNL     1       3.794   3.226  19.382  0.00  0.00    +0.000 NA
ATOM     31  C   UNL     1       3.383   4.297  19.363  0.00  0.00    +0.000 C 
ENDBRANCH  24  31
ENDBRANCH  20  27
ENDBRANCH  19  21
ENDBRANCH   1  19
TORSDOF 5
ENDMDL
MODEL 6
REMARK VINA RESULT:      -7.5      4.514      9.537
REMARK  Name = 
REMARK  5 active torsions:
REMARK  status: ('A' for Active; 'I' for Inactive)
REMARK    1  A    between atoms: C_2  and  C_3
REMARK    2  A    between atoms: C_6  and  N_7
REMARK    3  A    between atoms: C_8  and  C_10
REMARK    4  A    between atoms: C_10  and  N_11
REMARK    5  A    between atoms: C_17  and  C_18
REMARK                            x       y       z     vdW  Elec       q    Type
REMARK                         _______ _______ _______ _____ _____    ______ ____
ROOT
ATOM      1  N   UNL     1      -1.314  12.757  19.738  0.00  0.00    +0.000 N 
ATOM      2  C   UNL     1      -1.925  13.205  20.866  0.00  0.00    +0.000 A 
ATOM      3  N   UNL     1      -3.256  13.026  20.709  0.00  0.00    +0.000 N 
ATOM      4  C   UNL     1      -3.513  12.393  19.502  0.00  0.00    +0.000 A 
ATOM      5  C   UNL     1      -4.706  11.932  18.952  0.00  0.00    +0.000 A 
ATOM      6  C   UNL     1      -4.609  11.276  17.722  0.00  0.00    +0.000 A 
ATOM      7  C   UNL     1      -3.369  11.107  17.060  0.00  0.00    +0.000 A 
ATOM      8  C   UNL     1      -2.173  11.611  17.618  0.00  0.00    +0.000 A 
ATOM      9  C   UNL     1      -2.279  12.238  18.862  0.00  0.00    +0.000 A 
ATOM     10  C   UNL     1      -4.270  13.424  21.696  0.00  0.00    +0.000 C 
ATOM     11  C   UNL     1      -4.152  12.640  22.998  0.00  0.00    +0.000 C 
ATOM     12  C   UNL     1      -3.066  13.178  23.926  0.00  0.00    +0.000 C 
ATOM     13  C   UNL     1      -1.646  12.984  23.404  0.00  0.00    +0.000 C 
ATOM     14  C   UNL     1      -1.339  13.763  22.134  0.00  0.00    +0.000 C 
ENDROOT
BRANCH   7  15
ATOM     15  C   UNL     1      -3.315  10.351  15.745  0.00  0.00    +0.000 C 
ATOM     16  F   UNL     1      -2.394  10.865  14.881  0.00  0.00    +0.000 F 
ATOM     17  F   UNL     1      -2.994   9.045  15.906  0.00  0.00    +0.000 F 
ATOM     18  F   UNL     1      -4.503  10.394  15.088  0.00  0.00    +0.000 F 
ENDBRANCH   7  15
BRANCH   1  19
ATOM     19  C   UNL     1       0.161  12.633  19.505  0.00  0.00    +0.000 C 
BRANCH  19  21
ATOM     20  N   UNL     1       0.884  10.343  18.922  0.00  0.00    +0.000 N 
ATOM     21  C   UNL     1       0.774  11.299  19.915  0.00  0.00    +0.000 C 
ATOM     22  O   UNL     1       1.143  11.142  21.083  0.00  0.00    +0.000 OA
ATOM     23  H   UNL     1       0.371  10.469  18.041  0.00  0.00    +0.000 HD
BRANCH  20  27
ATOM     24  C   UNL     1       2.658   6.528  19.425  0.00  0.00    +0.000 A 
ATOM     25  C   UNL     1       2.865   7.223  18.230  0.00  0.00    +0.000 A 
ATOM     26  C   UNL     1       2.294   8.487  18.038  0.00  0.00    +0.000 A 
ATOM     27  C   UNL     1       1.523   9.084  19.049  0.00  0.00    +0.000 A 
ATOM     28  C   UNL     1       1.352   8.389  20.251  0.00  0.00    +0.000 A 
ATOM     29  C   UNL     1       1.915   7.118  20.442  0.00  0.00    +0.000 A 
BRANCH  24  31
ATOM     30  N   UNL     1       3.693   4.187  19.700  0.00  0.00    +0.000 NA
ATOM     31  C   UNL     1       3.217   5.224  19.590  0.00  0.00    +0.000 C 
ENDBRANCH  24  31
ENDBRANCH  20  27
ENDBRANCH  19  21
ENDBRANCH   1  19
TORSDOF 5
ENDMDL
MODEL 7
REMARK VINA RESULT:      -7.5      4.661      9.483
REMARK  Name = 
REMARK  5 active torsions:
REMARK  status: ('A' for Active; 'I' for Inactive)
REMARK    1  A    between atoms: C_2  and  C_3
REMARK    2  A    between atoms: C_6  and  N_7
REMARK    3  A    between atoms: C_8  and  C_10
REMARK    4  A    between atoms: C_10  and  N_11
REMARK    5  A    between atoms: C_17  and  C_18
REMARK                            x       y       z     vdW  Elec       q    Type
REMARK                         _______ _______ _______ _____ _____    ______ ____
ROOT
ATOM      1  N   UNL     1      -0.998  11.315  19.033  0.00  0.00    +0.000 N 
ATOM      2  C   UNL     1      -2.027  10.892  18.252  0.00  0.00    +0.000 A 
ATOM      3  N   UNL     1      -3.167  11.412  18.761  0.00  0.00    +0.000 N 
ATOM      4  C   UNL     1      -2.877  12.236  19.837  0.00  0.00    +0.000 A 
ATOM      5  C   UNL     1      -3.703  13.043  20.614  0.00  0.00    +0.000 A 
ATOM      6  C   UNL     1      -3.075  13.805  21.602  0.00  0.00    +0.000 A 
ATOM      7  C   UNL     1      -1.677  13.746  21.817  0.00  0.00    +0.000 A 
ATOM      8  C   UNL     1      -0.858  12.896  21.039  0.00  0.00    +0.000 A 
ATOM      9  C   UNL     1      -1.494  12.162  20.035  0.00  0.00    +0.000 A 
ATOM     10  C   UNL     1      -4.511  11.154  18.221  0.00  0.00    +0.000 C 
ATOM     11  C   UNL     1      -4.688  11.714  16.814  0.00  0.00    +0.000 C 
ATOM     12  C   UNL     1      -4.101  10.812  15.731  0.00  0.00    +0.000 C 
ATOM     13  C   UNL     1      -2.580  10.714  15.756  0.00  0.00    +0.000 C 
ATOM     14  C   UNL     1      -2.020  10.051  17.005  0.00  0.00    +0.000 C 
ENDROOT
BRANCH   7  15
ATOM     15  C   UNL     1      -1.039  14.626  22.877  0.00  0.00    +0.000 C 
ATOM     16  F   UNL     1      -1.155  14.105  24.131  0.00  0.00    +0.000 F 
ATOM     17  F   UNL     1       0.285  14.819  22.669  0.00  0.00    +0.000 F 
ATOM     18  F   UNL     1      -1.620  15.853  22.930  0.00  0.00    +0.000 F 
ENDBRANCH   7  15
BRANCH   1  19
ATOM     19  C   UNL     1       0.464  11.101  18.786  0.00  0.00    +0.000 C 
BRANCH  19  21
ATOM     20  N   UNL     1       1.705   9.014  18.325  0.00  0.00    +0.000 N 
ATOM     21  C   UNL     1       1.013   9.760  19.262  0.00  0.00    +0.000 C 
ATOM     22  O   UNL     1       0.827   9.418  20.433  0.00  0.00    +0.000 OA
ATOM     23  H   UNL     1       1.639   9.263  17.331  0.00  0.00    +0.000 HD
BRANCH  20  27
ATOM     24  C   UNL     1       3.918   5.461  18.987  0.00  0.00    +0.000 A 
ATOM     25  C   UNL     1       2.903   5.808  19.884  0.00  0.00    +0.000 A 
ATOM     26  C   UNL     1       2.153   6.975  19.687  0.00  0.00    +0.000 A 
ATOM     27  C   UNL     1       2.395   7.802  18.577  0.00  0.00    +0.000 A 
ATOM     28  C   UNL     1       3.394   7.424  17.673  0.00  0.00    +0.000 A 
ATOM     29  C   UNL     1       4.152   6.261  17.873  0.00  0.00    +0.000 A 
BRANCH  24  31
ATOM     30  N   UNL     1       5.294   3.325  19.402  0.00  0.00    +0.000 NA
ATOM     31  C   UNL     1       4.697   4.288  19.222  0.00  0.00    +0.000 C 
ENDBRANCH  24  31
ENDBRANCH  20  27
ENDBRANCH  19  21
ENDBRANCH   1  19
TORSDOF 5
ENDMDL
MODEL 8
REMARK VINA RESULT:      -7.5      5.528      6.563
REMARK  Name = 
REMARK  5 active torsions:
REMARK  status: ('A' for Active; 'I' for Inactive)
REMARK    1  A    between atoms: C_2  and  C_3
REMARK    2  A    between atoms: C_6  and  N_7
REMARK    3  A    between atoms: C_8  and  C_10
REMARK    4  A    between atoms: C_10  and  N_11
REMARK    5  A    between atoms: C_17  and  C_18
REMARK                            x       y       z     vdW  Elec       q    Type
REMARK                         _______ _______ _______ _____ _____    ______ ____
ROOT
ATOM      1  N   UNL     1       6.434   5.411  17.346  0.00  0.00    +0.000 N 
ATOM      2  C   UNL     1       5.344   4.844  17.925  0.00  0.00    +0.000 A 
ATOM      3  N   UNL     1       4.605   4.280  16.942  0.00  0.00    +0.000 N 
ATOM      4  C   UNL     1       5.249   4.418  15.722  0.00  0.00    +0.000 A 
ATOM      5  C   UNL     1       4.922   3.932  14.460  0.00  0.00    +0.000 A 
ATOM      6  C   UNL     1       5.830   4.207  13.434  0.00  0.00    +0.000 A 
ATOM      7  C   UNL     1       7.010   4.956  13.660  0.00  0.00    +0.000 A 
ATOM      8  C   UNL     1       7.310   5.469  14.942  0.00  0.00    +0.000 A 
ATOM      9  C   UNL     1       6.410   5.162  15.965  0.00  0.00    +0.000 A 
ATOM     10  C   UNL     1       3.321   3.597  17.156  0.00  0.00    +0.000 C 
ATOM     11  C   UNL     1       3.468   2.334  17.996  0.00  0.00    +0.000 C 
ATOM     12  C   UNL     1       3.545   2.615  19.495  0.00  0.00    +0.000 C 
ATOM     13  C   UNL     1       4.816   3.337  19.930  0.00  0.00    +0.000 C 
ATOM     14  C   UNL     1       4.952   4.746  19.374  0.00  0.00    +0.000 C 
ENDROOT
BRANCH   7  15
ATOM     15  C   UNL     1       7.984   5.191  12.519  0.00  0.00    +0.000 C 
ATOM     16  F   UNL     1       7.734   6.349  11.846  0.00  0.00    +0.000 F 
ATOM     17  F   UNL     1       9.269   5.266  12.937  0.00  0.00    +0.000 F 
ATOM     18  F   UNL     1       7.920   4.201  11.591  0.00  0.00    +0.000 F 
ENDBRANCH   7  15
BRANCH   1  19
ATOM     19  C   UNL     1       7.600   6.039  18.047  0.00  0.00    +0.000 C 
BRANCH  19  21
ATOM     20  N   UNL     1       8.569   8.179  18.812  0.00  0.00    +0.000 N 
ATOM     21  C   UNL     1       7.658   7.561  17.975  0.00  0.00    +0.000 C 
ATOM     22  O   UNL     1       6.916   8.153  17.187  0.00  0.00    +0.000 OA
ATOM     23  H   UNL     1       8.995   7.645  19.579  0.00  0.00    +0.000 HD
BRANCH  20  27
ATOM     24  C   UNL     1       9.604  12.284  18.997  0.00  0.00    +0.000 A 
ATOM     25  C   UNL     1       9.084  11.766  17.807  0.00  0.00    +0.000 A 
ATOM     26  C   UNL     1       8.730  10.414  17.719  0.00  0.00    +0.000 A 
ATOM     27  C   UNL     1       8.872   9.564  18.829  0.00  0.00    +0.000 A 
ATOM     28  C   UNL     1       9.364  10.106  20.021  0.00  0.00    +0.000 A 
ATOM     29  C   UNL     1       9.729  11.458  20.108  0.00  0.00    +0.000 A 
BRANCH  24  31
ATOM     30  N   UNL     1      10.290  14.765  19.075  0.00  0.00    +0.000 NA
ATOM     31  C   UNL     1       9.994  13.656  19.058  0.00  0.00    +0.000 C 
ENDBRANCH  24  31
ENDBRANCH  20  27
ENDBRANCH  19  21
ENDBRANCH   1  19
TORSDOF 5
ENDMDL
MODEL 9
REMARK VINA RESULT:      -7.5      4.805      9.834
REMARK  Name = 
REMARK  5 active torsions:
REMARK  status: ('A' for Active; 'I' for Inactive)
REMARK    1  A    between atoms: C_2  and  C_3
REMARK    2  A    between atoms: C_6  and  N_7
REMARK    3  A    between atoms: C_8  and  C_10
REMARK    4  A    between atoms: C_10  and  N_11
REMARK    5  A    between atoms: C_17  and  C_18
REMARK                            x       y       z     vdW  Elec       q    Type
REMARK                         _______ _______ _______ _____ _____    ______ ____
ROOT
ATOM      1  N   UNL     1      -2.711  12.744  20.548  0.00  0.00    +0.000 N 
ATOM      2  C   UNL     1      -3.735  13.166  21.336  0.00  0.00    +0.000 A 
ATOM      3  N   UNL     1      -4.886  12.951  20.660  0.00  0.00    +0.000 N 
ATOM      4  C   UNL     1      -4.621  12.322  19.453  0.00  0.00    +0.000 A 
ATOM      5  C   UNL     1      -5.480  11.833  18.474  0.00  0.00    +0.000 A 
ATOM      6  C   UNL     1      -4.881  11.190  17.387  0.00  0.00    +0.000 A 
ATOM      7  C   UNL     1      -3.475  11.063  17.276  0.00  0.00    +0.000 A 
ATOM      8  C   UNL     1      -2.617  11.594  18.264  0.00  0.00    +0.000 A 
ATOM      9  C   UNL     1      -3.229  12.207  19.360  0.00  0.00    +0.000 A 
ATOM     10  C   UNL     1      -6.222  13.312  21.158  0.00  0.00    +0.000 C 
ATOM     11  C   UNL     1      -6.610  12.519  22.401  0.00  0.00    +0.000 C 
ATOM     12  C   UNL     1      -6.002  13.079  23.685  0.00  0.00    +0.000 C 
ATOM     13  C   UNL     1      -4.487  12.930  23.775  0.00  0.00    +0.000 C 
ATOM     14  C   UNL     1      -3.721  13.728  22.731  0.00  0.00    +0.000 C 
ENDROOT
BRANCH   7  15
ATOM     15  C   UNL     1      -2.878  10.320  16.094  0.00  0.00    +0.000 C 
ATOM     16  F   UNL     1      -2.549  11.150  15.064  0.00  0.00    +0.000 F 
ATOM     17  F   UNL     1      -1.745   9.651  16.416  0.00  0.00    +0.000 F 
ATOM     18  F   UNL     1      -3.746   9.413  15.577  0.00  0.00    +0.000 F 
ENDBRANCH   7  15
BRANCH   1  19
ATOM     19  C   UNL     1      -1.262  12.664  20.924  0.00  0.00    +0.000 C 
BRANCH  19  21
ATOM     20  N   UNL     1       0.058  10.946  19.735  0.00  0.00    +0.000 N 
ATOM     21  C   UNL     1      -0.656  11.266  20.876  0.00  0.00    +0.000 C 
ATOM     22  O   UNL     1      -0.818  10.508  21.837  0.00  0.00    +0.000 OA
ATOM     23  H   UNL     1      -0.027  11.541  18.902  0.00  0.00    +0.000 HD
BRANCH  20  27
ATOM     24  C   UNL     1       2.357   7.471  18.967  0.00  0.00    +0.000 A 
ATOM     25  C   UNL     1       1.892   7.706  20.265  0.00  0.00    +0.000 A 
ATOM     26  C   UNL     1       1.126   8.845  20.546  0.00  0.00    +0.000 A 
ATOM     27  C   UNL     1       0.798   9.755  19.527  0.00  0.00    +0.000 A 
ATOM     28  C   UNL     1       1.245   9.488  18.229  0.00  0.00    +0.000 A 
ATOM     29  C   UNL     1       2.020   8.353  17.947  0.00  0.00    +0.000 A 
BRANCH  24  31
ATOM     30  N   UNL     1       3.788   5.385  18.485  0.00  0.00    +0.000 NA
ATOM     31  C   UNL     1       3.167   6.324  18.706  0.00  0.00    +0.000 C 
ENDBRANCH  24  31
ENDBRANCH  20  27
ENDBRANCH  19  21
ENDBRANCH   1  19
TORSDOF 5
ENDMDL
