MODEL 1
REMARK VINA RESULT:      -8.2      0.000      0.000
REMARK  Name = 
REMARK  6 active torsions:
REMARK  status: ('A' for Active; 'I' for Inactive)
REMARK    1  A    between atoms: C_2  and  C_3
REMARK    2  A    between atoms: C_7  and  C_8
REMARK    3  A    between atoms: C_10  and  C_11
REMARK    4  A    between atoms: C_10  and  C_18
REMARK    5  A    between atoms: CA_25  and  C_26
REMARK    6  A    between atoms: C_26  and  O_27
REMARK                            x       y       z     vdW  Elec       q    Type
REMARK                         _______ _______ _______ _____ _____    ______ ____
ROOT
ATOM      1  C   UNL     1       1.293   8.822  19.245  0.00  0.00    +0.000 C 
ATOM      2  N   UNL     1       0.850   9.615  18.301  0.00  0.00    +0.000 NA
ATOM      3  C   UNL     1       0.029  10.703  18.991  0.00  0.00    +0.000 C 
ATOM      4  CA  UNL     1      -0.147  10.157  20.473  0.00  0.00    +0.000 C 
ATOM      5  N   UNL     1       0.834   9.083  20.507  0.00  0.00    +0.000 N 
ATOM      6  H   UNL     1       1.390   8.847  21.318  0.00  0.00    +0.000 HD
ENDROOT
BRANCH   3   7
ATOM      7  C   UNL     1      -1.384  10.787  18.350  0.00  0.00    +0.000 A 
ATOM      8  C   UNL     1      -1.708  10.049  17.194  0.00  0.00    +0.000 A 
ATOM      9  C   UNL     1      -2.986  10.110  16.632  0.00  0.00    +0.000 A 
ATOM     10  C   UNL     1      -3.956  10.912  17.218  0.00  0.00    +0.000 A 
ATOM     11  F   UNL     1      -5.187  10.953  16.691  0.00  0.00    +0.000 F 
ATOM     12  C   UNL     1      -3.673  11.653  18.356  0.00  0.00    +0.000 A 
ATOM     13  C   UNL     1      -2.399  11.582  18.926  0.00  0.00    +0.000 A 
ENDBRANCH   3   7
BRANCH   3  14
ATOM     14  C   UNL     1       0.870  12.009  18.853  0.00  0.00    +0.000 A 
ATOM     15  C   UNL     1       0.314  13.283  19.083  0.00  0.00    +0.000 A 
ATOM     16  C   UNL     1       1.041  14.455  18.865  0.00  0.00    +0.000 A 
ATOM     17  C   UNL     1       2.336  14.376  18.385  0.00  0.00    +0.000 A 
ATOM     18  F   UNL     1       3.020  15.501  18.145  0.00  0.00    +0.000 F 
ATOM     19  C   UNL     1       2.932  13.144  18.160  0.00  0.00    +0.000 A 
ATOM     20  C   UNL     1       2.208  11.970  18.396  0.00  0.00    +0.000 A 
ENDBRANCH   3  14
BRANCH   1  25
ATOM     21  C   UNL     1       3.951   6.723  17.591  0.00  0.00    +0.000 A 
ATOM     22  C   UNL     1       4.059   5.699  18.528  0.00  0.00    +0.000 A 
ATOM     23  C   UNL     1       3.240   5.747  19.646  0.00  0.00    +0.000 A 
ATOM     24  N   UNL     1       2.348   6.734  19.888  0.00  0.00    +0.000 NA
ATOM     25  C   UNL     1       2.260   7.717  18.955  0.00  0.00    +0.000 A 
ATOM     26  C   UNL     1       3.032   7.754  17.800  0.00  0.00    +0.000 A 
BRANCH  21  28
ATOM     27  N   UNL     1       5.425   6.748  15.450  0.00  0.00    +0.000 NA
ATOM     28  C   UNL     1       4.778   6.735  16.416  0.00  0.00    +0.000 C 
ENDBRANCH  21  28
ENDBRANCH   1  25
BRANCH   4  29
ATOM     29  C   UNL     1       0.023  11.164  21.613  0.00  0.00    +0.000 C 
BRANCH  29  30
ATOM     30  O   UNL     1       0.275  10.505  22.858  0.00  0.00    +0.000 OA
ATOM     31  H   UNL     1      -0.297   9.719  22.895  0.00  0.00    +0.000 HD
ENDBRANCH  29  30
ENDBRANCH   4  29
TORSDOF 6
ENDMDL
MODEL 2
REMARK VINA RESULT:      -8.1      0.140      1.272
REMARK  Name = 
REMARK  6 active torsions:
REMARK  status: ('A' for Active; 'I' for Inactive)
REMARK    1  A    between atoms: C_2  and  C_3
REMARK    2  A    between atoms: C_7  and  C_8
REMARK    3  A    between atoms: C_10  and  C_11
REMARK    4  A    between atoms: C_10  and  C_18
REMARK    5  A    between atoms: CA_25  and  C_26
REMARK    6  A    between atoms: C_26  and  O_27
REMARK                            x       y       z     vdW  Elec       q    Type
REMARK                         _______ _______ _______ _____ _____    ______ ____
ROOT
ATOM      1  C   UNL     1       1.295   8.872  19.240  0.00  0.00    +0.000 C 
ATOM      2  N   UNL     1       0.800   9.611  18.278  0.00  0.00    +0.000 NA
ATOM      3  C   UNL     1       0.014  10.736  18.950  0.00  0.00    +0.000 C 
ATOM      4  CA  UNL     1      -0.081  10.274  20.466  0.00  0.00    +0.000 C 
ATOM      5  N   UNL     1       0.903   9.204  20.509  0.00  0.00    +0.000 N 
ATOM      6  H   UNL     1       1.502   9.013  21.300  0.00  0.00    +0.000 HD
ENDROOT
BRANCH   3   7
ATOM      7  C   UNL     1      -1.431  10.785  18.381  0.00  0.00    +0.000 A 
ATOM      8  C   UNL     1      -2.429  11.577  18.983  0.00  0.00    +0.000 A 
ATOM      9  C   UNL     1      -3.721  11.637  18.456  0.00  0.00    +0.000 A 
ATOM     10  C   UNL     1      -4.034  10.901  17.321  0.00  0.00    +0.000 A 
ATOM     11  F   UNL     1      -5.267  10.974  16.804  0.00  0.00    +0.000 F 
ATOM     12  C   UNL     1      -3.078  10.109  16.702  0.00  0.00    +0.000 A 
ATOM     13  C   UNL     1      -1.781  10.060  17.221  0.00  0.00    +0.000 A 
ENDBRANCH   3   7
BRANCH   3  14
ATOM     14  C   UNL     1       0.843  12.033  18.695  0.00  0.00    +0.000 A 
ATOM     15  C   UNL     1       2.219  11.994  18.398  0.00  0.00    +0.000 A 
ATOM     16  C   UNL     1       2.979  13.158  18.266  0.00  0.00    +0.000 A 
ATOM     17  C   UNL     1       2.378  14.390  18.455  0.00  0.00    +0.000 A 
ATOM     18  F   UNL     1       3.114  15.504  18.361  0.00  0.00    +0.000 F 
ATOM     19  C   UNL     1       1.022  14.480  18.731  0.00  0.00    +0.000 A 
ATOM     20  C   UNL     1       0.259  13.312  18.846  0.00  0.00    +0.000 A 
ENDBRANCH   3  14
BRANCH   1  25
ATOM     21  C   UNL     1       3.949   6.739  17.623  0.00  0.00    +0.000 A 
ATOM     22  C   UNL     1       4.020   5.707  18.554  0.00  0.00    +0.000 A 
ATOM     23  C   UNL     1       3.179   5.760  19.655  0.00  0.00    +0.000 A 
ATOM     24  N   UNL     1       2.300   6.760  19.887  0.00  0.00    +0.000 NA
ATOM     25  C   UNL     1       2.248   7.752  18.960  0.00  0.00    +0.000 A 
ATOM     26  C   UNL     1       3.045   7.785  17.822  0.00  0.00    +0.000 A 
BRANCH  21  28
ATOM     27  N   UNL     1       5.506   6.732  15.542  0.00  0.00    +0.000 NA
ATOM     28  C   UNL     1       4.800   6.746  16.466  0.00  0.00    +0.000 C 
ENDBRANCH  21  28
ENDBRANCH   1  25
BRANCH   4  29
ATOM     29  C   UNL     1       0.146  11.343  21.538  0.00  0.00    +0.000 C 
BRANCH  29  30
ATOM     30  O   UNL     1      -0.021  10.805  22.854  0.00  0.00    +0.000 OA
ATOM     31  H   UNL     1      -0.904  10.400  22.896  0.00  0.00    +0.000 HD
ENDBRANCH  29  30
ENDBRANCH   4  29
TORSDOF 6
ENDMDL
MODEL 3
REMARK VINA RESULT:      -7.8      0.920      1.912
REMARK  Name = 
REMARK  6 active torsions:
REMARK  status: ('A' for Active; 'I' for Inactive)
REMARK    1  A    between atoms: C_2  and  C_3
REMARK    2  A    between atoms: C_7  and  C_8
REMARK    3  A    between atoms: C_10  and  C_11
REMARK    4  A    between atoms: C_10  and  C_18
REMARK    5  A    between atoms: CA_25  and  C_26
REMARK    6  A    between atoms: C_26  and  O_27
REMARK                            x       y       z     vdW  Elec       q    Type
REMARK                         _______ _______ _______ _____ _____    ______ ____
ROOT
ATOM      1  C   UNL     1       1.353   8.854  19.124  0.00  0.00    +0.000 C 
ATOM      2  N   UNL     1       0.856   9.666  18.223  0.00  0.00    +0.000 NA
ATOM      3  C   UNL     1       0.031  10.706  18.980  0.00  0.00    +0.000 C 
ATOM      4  CA  UNL     1      -0.077  10.106  20.446  0.00  0.00    +0.000 C 
ATOM      5  N   UNL     1       0.933   9.060  20.409  0.00  0.00    +0.000 N 
ATOM      6  H   UNL     1       1.524   8.812  21.191  0.00  0.00    +0.000 HD
ENDROOT
BRANCH   3   7
ATOM      7  C   UNL     1      -1.406  10.772  18.391  0.00  0.00    +0.000 A 
ATOM      8  C   UNL     1      -2.402  11.577  18.978  0.00  0.00    +0.000 A 
ATOM      9  C   UNL     1      -3.686  11.652  18.434  0.00  0.00    +0.000 A 
ATOM     10  C   UNL     1      -3.993  10.918  17.296  0.00  0.00    +0.000 A 
ATOM     11  F   UNL     1      -5.218  11.006  16.762  0.00  0.00    +0.000 F 
ATOM     12  C   UNL     1      -3.039  10.113  16.691  0.00  0.00    +0.000 A 
ATOM     13  C   UNL     1      -1.750  10.049  17.228  0.00  0.00    +0.000 A 
ENDBRANCH   3   7
BRANCH   3  14
ATOM     14  C   UNL     1       0.830  12.040  18.858  0.00  0.00    +0.000 A 
ATOM     15  C   UNL     1       0.224  13.295  19.064  0.00  0.00    +0.000 A 
ATOM     16  C   UNL     1       0.917  14.490  18.859  0.00  0.00    +0.000 A 
ATOM     17  C   UNL     1       2.228  14.453  18.419  0.00  0.00    +0.000 A 
ATOM     18  F   UNL     1       2.880  15.599  18.192  0.00  0.00    +0.000 F 
ATOM     19  C   UNL     1       2.872  13.241  18.219  0.00  0.00    +0.000 A 
ATOM     20  C   UNL     1       2.181  12.044  18.442  0.00  0.00    +0.000 A 
ENDBRANCH   3  14
BRANCH   1  25
ATOM     21  C   UNL     1       3.263   5.605  19.061  0.00  0.00    +0.000 A 
ATOM     22  C   UNL     1       4.119   5.856  17.992  0.00  0.00    +0.000 A 
ATOM     23  C   UNL     1       4.033   7.088  17.360  0.00  0.00    +0.000 A 
ATOM     24  N   UNL     1       3.159   8.058  17.712  0.00  0.00    +0.000 NA
ATOM     25  C   UNL     1       2.339   7.788  18.761  0.00  0.00    +0.000 A 
ATOM     26  C   UNL     1       2.354   6.587  19.461  0.00  0.00    +0.000 A 
BRANCH  21  28
ATOM     27  N   UNL     1       3.299   3.322  20.303  0.00  0.00    +0.000 NA
ATOM     28  C   UNL     1       3.298   4.345  19.750  0.00  0.00    +0.000 C 
ENDBRANCH  21  28
ENDBRANCH   1  25
BRANCH   4  29
ATOM     29  C   UNL     1       0.105  11.078  21.614  0.00  0.00    +0.000 C 
BRANCH  29  30
ATOM     30  O   UNL     1       0.397  10.382  22.831  0.00  0.00    +0.000 OA
ATOM     31  H   UNL     1      -0.450  10.188  23.268  0.00  0.00    +0.000 HD
ENDBRANCH  29  30
ENDBRANCH   4  29
TORSDOF 6
ENDMDL
MODEL 4
REMARK VINA RESULT:      -7.6      1.405      2.375
REMARK  Name = 
REMARK  6 active torsions:
REMARK  status: ('A' for Active; 'I' for Inactive)
REMARK    1  A    between atoms: C_2  and  C_3
REMARK    2  A    between atoms: C_7  and  C_8
REMARK    3  A    between atoms: C_10  and  C_11
REMARK    4  A    between atoms: C_10  and  C_18
REMARK    5  A    between atoms: CA_25  and  C_26
REMARK    6  A    between atoms: C_26  and  O_27
REMARK                            x       y       z     vdW  Elec       q    Type
REMARK                         _______ _______ _______ _____ _____    ______ ____
ROOT
ATOM      1  C   UNL     1       1.104   8.359  20.026  0.00  0.00    +0.000 C 
ATOM      2  N   UNL     1       0.935   9.174  19.015  0.00  0.00    +0.000 NA
ATOM      3  C   UNL     1       0.152  10.374  19.544  0.00  0.00    +0.000 C 
ATOM      4  CA  UNL     1      -0.346   9.895  20.975  0.00  0.00    +0.000 C 
ATOM      5  N   UNL     1       0.470   8.710  21.187  0.00  0.00    +0.000 N 
ATOM      6  H   UNL     1       0.843   8.429  22.084  0.00  0.00    +0.000 HD
ENDROOT
BRANCH   3   7
ATOM      7  C   UNL     1      -1.107  10.614  18.664  0.00  0.00    +0.000 A 
ATOM      8  C   UNL     1      -1.313   9.897  17.470  0.00  0.00    +0.000 A 
ATOM      9  C   UNL     1      -2.456  10.099  16.692  0.00  0.00    +0.000 A 
ATOM     10  C   UNL     1      -3.407  11.025  17.098  0.00  0.00    +0.000 A 
ATOM     11  F   UNL     1      -4.512  11.204  16.364  0.00  0.00    +0.000 F 
ATOM     12  C   UNL     1      -3.238  11.751  18.268  0.00  0.00    +0.000 A 
ATOM     13  C   UNL     1      -2.101  11.539  19.053  0.00  0.00    +0.000 A 
ENDBRANCH   3   7
BRANCH   3  14
ATOM     14  C   UNL     1       1.162  11.562  19.549  0.00  0.00    +0.000 A 
ATOM     15  C   UNL     1       1.307  12.416  20.660  0.00  0.00    +0.000 A 
ATOM     16  C   UNL     1       2.140  13.535  20.626  0.00  0.00    +0.000 A 
ATOM     17  C   UNL     1       2.829  13.839  19.465  0.00  0.00    +0.000 A 
ATOM     18  F   UNL     1       3.601  14.931  19.422  0.00  0.00    +0.000 F 
ATOM     19  C   UNL     1       2.731  13.019  18.350  0.00  0.00    +0.000 A 
ATOM     20  C   UNL     1       1.909  11.887  18.392  0.00  0.00    +0.000 A 
ENDBRANCH   3  14
BRANCH   1  25
ATOM     21  C   UNL     1       2.505   4.901  20.562  0.00  0.00    +0.000 A 
ATOM     22  C   UNL     1       3.516   4.906  19.605  0.00  0.00    +0.000 A 
ATOM     23  C   UNL     1       3.692   6.053  18.846  0.00  0.00    +0.000 A 
ATOM     24  N   UNL     1       2.934   7.166  18.971  0.00  0.00    +0.000 NA
ATOM     25  C   UNL     1       1.959   7.135  19.916  0.00  0.00    +0.000 A 
ATOM     26  C   UNL     1       1.708   6.036  20.729  0.00  0.00    +0.000 A 
BRANCH  21  28
ATOM     27  N   UNL     1       2.083   2.813  22.052  0.00  0.00    +0.000 NA
ATOM     28  C   UNL     1       2.266   3.739  21.373  0.00  0.00    +0.000 C 
ENDBRANCH  21  28
ENDBRANCH   1  25
BRANCH   4  29
ATOM     29  C   UNL     1      -0.251  10.905  22.121  0.00  0.00    +0.000 C 
BRANCH  29  30
ATOM     30  O   UNL     1       0.074  10.260  23.357  0.00  0.00    +0.000 OA
ATOM     31  H   UNL     1       0.492   9.409  23.144  0.00  0.00    +0.000 HD
ENDBRANCH  29  30
ENDBRANCH   4  29
TORSDOF 6
ENDMDL
MODEL 5
REMARK VINA RESULT:      -7.6      1.548      2.067
REMARK  Name = 
REMARK  6 active torsions:
REMARK  status: ('A' for Active; 'I' for Inactive)
REMARK    1  A    between atoms: C_2  and  C_3
REMARK    2  A    between atoms: C_7  and  C_8
REMARK    3  A    between atoms: C_10  and  C_11
REMARK    4  A    between atoms: C_10  and  C_18
REMARK    5  A    between atoms: CA_25  and  C_26
REMARK    6  A    between atoms: C_26  and  O_27
REMARK                            x       y       z     vdW  Elec       q    Type
REMARK                         _______ _______ _______ _____ _____    ______ ____
ROOT
ATOM      1  C   UNL     1       1.816   8.301  18.821  0.00  0.00    +0.000 C 
ATOM      2  N   UNL     1       1.344   9.304  18.122  0.00  0.00    +0.000 NA
ATOM      3  C   UNL     1       0.616  10.219  19.105  0.00  0.00    +0.000 C 
ATOM      4  CA  UNL     1       0.517   9.346  20.428  0.00  0.00    +0.000 C 
ATOM      5  N   UNL     1       1.453   8.271  20.140  0.00  0.00    +0.000 N 
ATOM      6  H   UNL     1       2.052   7.838  20.830  0.00  0.00    +0.000 HD
ENDROOT
BRANCH   3   7
ATOM      7  C   UNL     1      -0.831  10.486  18.607  0.00  0.00    +0.000 A 
ATOM      8  C   UNL     1      -1.660  11.435  19.238  0.00  0.00    +0.000 A 
ATOM      9  C   UNL     1      -2.953  11.689  18.774  0.00  0.00    +0.000 A 
ATOM     10  C   UNL     1      -3.436  10.994  17.674  0.00  0.00    +0.000 A 
ATOM     11  F   UNL     1      -4.668  11.252  17.217  0.00  0.00    +0.000 F 
ATOM     12  C   UNL     1      -2.650  10.051  17.028  0.00  0.00    +0.000 A 
ATOM     13  C   UNL     1      -1.351   9.807  17.483  0.00  0.00    +0.000 A 
ENDBRANCH   3   7
BRANCH   3  14
ATOM     14  C   UNL     1       1.499  11.501  19.212  0.00  0.00    +0.000 A 
ATOM     15  C   UNL     1       1.479  12.329  20.352  0.00  0.00    +0.000 A 
ATOM     16  C   UNL     1       2.195  13.526  20.406  0.00  0.00    +0.000 A 
ATOM     17  C   UNL     1       2.929  13.933  19.306  0.00  0.00    +0.000 A 
ATOM     18  F   UNL     1       3.588  15.097  19.347  0.00  0.00    +0.000 F 
ATOM     19  C   UNL     1       2.993  13.144  18.168  0.00  0.00    +0.000 A 
ATOM     20  C   UNL     1       2.288  11.935  18.122  0.00  0.00    +0.000 A 
ENDBRANCH   3  14
BRANCH   1  25
ATOM     21  C   UNL     1       3.218   5.006  17.644  0.00  0.00    +0.000 A 
ATOM     22  C   UNL     1       4.372   5.455  17.008  0.00  0.00    +0.000 A 
ATOM     23  C   UNL     1       4.634   6.817  17.015  0.00  0.00    +0.000 A 
ATOM     24  N   UNL     1       3.832   7.739  17.593  0.00  0.00    +0.000 NA
ATOM     25  C   UNL     1       2.715   7.272  18.211  0.00  0.00    +0.000 A 
ATOM     26  C   UNL     1       2.369   5.927  18.263  0.00  0.00    +0.000 A 
BRANCH  21  28
ATOM     27  N   UNL     1       2.630   2.474  17.655  0.00  0.00    +0.000 NA
ATOM     28  C   UNL     1       2.886   3.608  17.664  0.00  0.00    +0.000 C 
ENDBRANCH  21  28
ENDBRANCH   1  25
BRANCH   4  29
ATOM     29  C   UNL     1       0.803  10.054  21.755  0.00  0.00    +0.000 C 
BRANCH  29  30
ATOM     30  O   UNL     1       1.776   9.342  22.526  0.00  0.00    +0.000 OA
ATOM     31  H   UNL     1       1.893   9.819  23.364  0.00  0.00    +0.000 HD
ENDBRANCH  29  30
ENDBRANCH   4  29
TORSDOF 6
ENDMDL
MODEL 6
REMARK VINA RESULT:      -7.4      3.010      6.854
REMARK  Name = 
REMARK  6 active torsions:
REMARK  status: ('A' for Active; 'I' for Inactive)
REMARK    1  A    between atoms: C_2  and  C_3
REMARK    2  A    between atoms: C_7  and  C_8
REMARK    3  A    between atoms: C_10  and  C_11
REMARK    4  A    between atoms: C_10  and  C_18
REMARK    5  A    between atoms: CA_25  and  C_26
REMARK    6  A    between atoms: C_26  and  O_27
REMARK                            x       y       z     vdW  Elec       q    Type
REMARK                         _______ _______ _______ _____ _____    ______ ____
ROOT
ATOM      1  C   UNL     1       1.651  12.796  19.311  0.00  0.00    +0.000 C 
ATOM      2  N   UNL     1       1.366  11.784  18.528  0.00  0.00    +0.000 NA
ATOM      3  C   UNL     1       0.644  10.752  19.392  0.00  0.00    +0.000 C 
ATOM      4  CA  UNL     1       0.877  11.273  20.874  0.00  0.00    +0.000 C 
ATOM      5  N   UNL     1       1.359  12.625  20.636  0.00  0.00    +0.000 N 
ATOM      6  H   UNL     1       1.140  13.418  21.222  0.00  0.00    +0.000 HD
ENDROOT
BRANCH   3   7
ATOM      7  C   UNL     1       1.344   9.371  19.263  0.00  0.00    +0.000 A 
ATOM      8  C   UNL     1       1.332   8.442  20.322  0.00  0.00    +0.000 A 
ATOM      9  C   UNL     1       1.943   7.192  20.195  0.00  0.00    +0.000 A 
ATOM     10  C   UNL     1       2.578   6.856  19.007  0.00  0.00    +0.000 A 
ATOM     11  F   UNL     1       3.146   5.650  18.878  0.00  0.00    +0.000 F 
ATOM     12  C   UNL     1       2.612   7.745  17.943  0.00  0.00    +0.000 A 
ATOM     13  C   UNL     1       1.988   8.990  18.065  0.00  0.00    +0.000 A 
ENDBRANCH   3   7
BRANCH   3  14
ATOM     14  C   UNL     1      -0.837  10.763  18.902  0.00  0.00    +0.000 A 
ATOM     15  C   UNL     1      -1.324   9.821  17.975  0.00  0.00    +0.000 A 
ATOM     16  C   UNL     1      -2.622   9.892  17.465  0.00  0.00    +0.000 A 
ATOM     17  C   UNL     1      -3.454  10.926  17.856  0.00  0.00    +0.000 A 
ATOM     18  F   UNL     1      -4.686  11.011  17.342  0.00  0.00    +0.000 F 
ATOM     19  C   UNL     1      -3.025  11.867  18.780  0.00  0.00    +0.000 A 
ATOM     20  C   UNL     1      -1.729  11.784  19.304  0.00  0.00    +0.000 A 
ENDBRANCH   3  14
BRANCH   1  25
ATOM     21  C   UNL     1       2.082  16.399  18.293  0.00  0.00    +0.000 A 
ATOM     22  C   UNL     1       3.400  16.362  17.846  0.00  0.00    +0.000 A 
ATOM     23  C   UNL     1       4.071  15.148  17.889  0.00  0.00    +0.000 A 
ATOM     24  N   UNL     1       3.526  14.000  18.349  0.00  0.00    +0.000 NA
ATOM     25  C   UNL     1       2.237  14.064  18.774  0.00  0.00    +0.000 A 
ATOM     26  C   UNL     1       1.481  15.230  18.764  0.00  0.00    +0.000 A 
BRANCH  21  28
ATOM     27  N   UNL     1       0.743  18.627  18.246  0.00  0.00    +0.000 NA
ATOM     28  C   UNL     1       1.338  17.628  18.281  0.00  0.00    +0.000 C 
ENDBRANCH  21  28
ENDBRANCH   1  25
BRANCH   4  29
ATOM     29  C   UNL     1      -0.317  11.220  21.830  0.00  0.00    +0.000 C 
BRANCH  29  30
ATOM     30  O   UNL     1       0.014  10.532  23.040  0.00  0.00    +0.000 OA
ATOM     31  H   UNL     1       0.880  10.108  22.910  0.00  0.00    +0.000 HD
ENDBRANCH  29  30
ENDBRANCH   4  29
TORSDOF 6
ENDMDL
MODEL 7
REMARK VINA RESULT:      -7.3      1.261      1.984
REMARK  Name = 
REMARK  6 active torsions:
REMARK  status: ('A' for Active; 'I' for Inactive)
REMARK    1  A    between atoms: C_2  and  C_3
REMARK    2  A    between atoms: C_7  and  C_8
REMARK    3  A    between atoms: C_10  and  C_11
REMARK    4  A    between atoms: C_10  and  C_18
REMARK    5  A    between atoms: CA_25  and  C_26
REMARK    6  A    between atoms: C_26  and  O_27
REMARK                            x       y       z     vdW  Elec       q    Type
REMARK                         _______ _______ _______ _____ _____    ______ ____
ROOT
ATOM      1  C   UNL     1       1.630   8.508  19.155  0.00  0.00    +0.000 C 
ATOM      2  N   UNL     1       1.205   9.441  18.340  0.00  0.00    +0.000 NA
ATOM      3  C   UNL     1       0.363  10.403  19.176  0.00  0.00    +0.000 C 
ATOM      4  CA  UNL     1       0.155   9.627  20.546  0.00  0.00    +0.000 C 
ATOM      5  N   UNL     1       1.141   8.563  20.432  0.00  0.00    +0.000 N 
ATOM      6  H   UNL     1       1.680   8.201  21.207  0.00  0.00    +0.000 HD
ENDROOT
BRANCH   3   7
ATOM      7  C   UNL     1      -1.035  10.587  18.523  0.00  0.00    +0.000 A 
ATOM      8  C   UNL     1      -1.423   9.832  17.398  0.00  0.00    +0.000 A 
ATOM      9  C   UNL     1      -2.689   9.983  16.827  0.00  0.00    +0.000 A 
ATOM     10  C   UNL     1      -3.583  10.894  17.371  0.00  0.00    +0.000 A 
ATOM     11  F   UNL     1      -4.804  11.024  16.835  0.00  0.00    +0.000 F 
ATOM     12  C   UNL     1      -3.236  11.656  18.477  0.00  0.00    +0.000 A 
ATOM     13  C   UNL     1      -1.975  11.495  19.057  0.00  0.00    +0.000 A 
ENDBRANCH   3   7
BRANCH   3  14
ATOM     14  C   UNL     1       1.199  11.716  19.269  0.00  0.00    +0.000 A 
ATOM     15  C   UNL     1       2.073  12.120  18.240  0.00  0.00    +0.000 A 
ATOM     16  C   UNL     1       2.892  13.244  18.367  0.00  0.00    +0.000 A 
ATOM     17  C   UNL     1       2.872  13.974  19.541  0.00  0.00    +0.000 A 
ATOM     18  F   UNL     1       3.682  15.031  19.675  0.00  0.00    +0.000 F 
ATOM     19  C   UNL     1       2.016  13.626  20.576  0.00  0.00    +0.000 A 
ATOM     20  C   UNL     1       1.182  12.509  20.440  0.00  0.00    +0.000 A 
ENDBRANCH   3  14
BRANCH   1  25
ATOM     21  C   UNL     1       3.551   5.276  18.884  0.00  0.00    +0.000 A 
ATOM     22  C   UNL     1       4.375   5.582  17.805  0.00  0.00    +0.000 A 
ATOM     23  C   UNL     1       4.265   6.842  17.234  0.00  0.00    +0.000 A 
ATOM     24  N   UNL     1       3.398   7.789  17.656  0.00  0.00    +0.000 NA
ATOM     25  C   UNL     1       2.610   7.465  18.715  0.00  0.00    +0.000 A 
ATOM     26  C   UNL     1       2.650   6.233  19.357  0.00  0.00    +0.000 A 
BRANCH  21  28
ATOM     27  N   UNL     1       3.689   2.942  20.021  0.00  0.00    +0.000 NA
ATOM     28  C   UNL     1       3.612   3.985  19.512  0.00  0.00    +0.000 C 
ENDBRANCH  21  28
ENDBRANCH   1  25
BRANCH   4  29
ATOM     29  C   UNL     1       0.293  10.439  21.836  0.00  0.00    +0.000 C 
BRANCH  29  30
ATOM     30  O   UNL     1       0.933   9.677  22.865  0.00  0.00    +0.000 OA
ATOM     31  H   UNL     1       1.581  10.257  23.300  0.00  0.00    +0.000 HD
ENDBRANCH  29  30
ENDBRANCH   4  29
TORSDOF 6
ENDMDL
MODEL 8
REMARK VINA RESULT:      -7.3      1.152      2.086
REMARK  Name = 
REMARK  6 active torsions:
REMARK  status: ('A' for Active; 'I' for Inactive)
REMARK    1  A    between atoms: C_2  and  C_3
REMARK    2  A    between atoms: C_7  and  C_8
REMARK    3  A    between atoms: C_10  and  C_11
REMARK    4  A    between atoms: C_10  and  C_18
REMARK    5  A    between atoms: CA_25  and  C_26
REMARK    6  A    between atoms: C_26  and  O_27
REMARK                            x       y       z     vdW  Elec       q    Type
REMARK                         _______ _______ _______ _____ _____    ______ ____
ROOT
ATOM      1  C   UNL     1       0.992   9.390  19.320  0.00  0.00    +0.000 C 
ATOM      2  N   UNL     1       0.518  10.147  18.361  0.00  0.00    +0.000 NA
ATOM      3  C   UNL     1      -0.252  11.280  19.038  0.00  0.00    +0.000 C 
ATOM      4  CA  UNL     1      -0.367  10.807  20.549  0.00  0.00    +0.000 C 
ATOM      5  N   UNL     1       0.598   9.718  20.588  0.00  0.00    +0.000 N 
ATOM      6  H   UNL     1       1.187   9.509  21.382  0.00  0.00    +0.000 HD
ENDROOT
BRANCH   3   7
ATOM      7  C   UNL     1      -1.692  11.361  18.459  0.00  0.00    +0.000 A 
ATOM      8  C   UNL     1      -1.986  10.903  17.159  0.00  0.00    +0.000 A 
ATOM      9  C   UNL     1      -3.285  10.957  16.650  0.00  0.00    +0.000 A 
ATOM     10  C   UNL     1      -4.309  11.471  17.433  0.00  0.00    +0.000 A 
ATOM     11  F   UNL     1      -5.559  11.503  16.953  0.00  0.00    +0.000 F 
ATOM     12  C   UNL     1      -4.058  11.933  18.717  0.00  0.00    +0.000 A 
ATOM     13  C   UNL     1      -2.760  11.867  19.232  0.00  0.00    +0.000 A 
ENDBRANCH   3   7
BRANCH   3  14
ATOM     14  C   UNL     1       0.602  12.564  18.800  0.00  0.00    +0.000 A 
ATOM     15  C   UNL     1       1.991  12.505  18.571  0.00  0.00    +0.000 A 
ATOM     16  C   UNL     1       2.769  13.659  18.455  0.00  0.00    +0.000 A 
ATOM     17  C   UNL     1       2.173  14.900  18.592  0.00  0.00    +0.000 A 
ATOM     18  F   UNL     1       2.925  16.005  18.514  0.00  0.00    +0.000 F 
ATOM     19  C   UNL     1       0.806  15.009  18.801  0.00  0.00    +0.000 A 
ATOM     20  C   UNL     1       0.025  13.851  18.899  0.00  0.00    +0.000 A 
ENDBRANCH   3  14
BRANCH   1  25
ATOM     21  C   UNL     1       2.757   6.065  19.504  0.00  0.00    +0.000 A 
ATOM     22  C   UNL     1       3.611   6.192  18.412  0.00  0.00    +0.000 A 
ATOM     23  C   UNL     1       3.572   7.372  17.684  0.00  0.00    +0.000 A 
ATOM     24  N   UNL     1       2.745   8.404  17.963  0.00  0.00    +0.000 NA
ATOM     25  C   UNL     1       1.926   8.256  19.037  0.00  0.00    +0.000 A 
ATOM     26  C   UNL     1       1.896   7.115  19.831  0.00  0.00    +0.000 A 
BRANCH  21  28
ATOM     27  N   UNL     1       2.760   3.897  20.939  0.00  0.00    +0.000 NA
ATOM     28  C   UNL     1       2.745   4.864  20.292  0.00  0.00    +0.000 C 
ENDBRANCH  21  28
ENDBRANCH   1  25
BRANCH   4  29
ATOM     29  C   UNL     1      -0.127  11.862  21.632  0.00  0.00    +0.000 C 
BRANCH  29  30
ATOM     30  O   UNL     1      -0.179  11.285  22.941  0.00  0.00    +0.000 OA
ATOM     31  H   UNL     1       0.731  11.243  23.280  0.00  0.00    +0.000 HD
ENDBRANCH  29  30
ENDBRANCH   4  29
TORSDOF 6
ENDMDL
MODEL 9
REMARK VINA RESULT:      -7.3      2.989      6.335
REMARK  Name = 
REMARK  6 active torsions:
REMARK  status: ('A' for Active; 'I' for Inactive)
REMARK    1  A    between atoms: C_2  and  C_3
REMARK    2  A    between atoms: C_7  and  C_8
REMARK    3  A    between atoms: C_10  and  C_11
REMARK    4  A    between atoms: C_10  and  C_18
REMARK    5  A    between atoms: CA_25  and  C_26
REMARK    6  A    between atoms: C_26  and  O_27
REMARK                            x       y       z     vdW  Elec       q    Type
REMARK                         _______ _______ _______ _____ _____    ______ ____
ROOT
ATOM      1  C   UNL     1       1.734  12.756  19.409  0.00  0.00    +0.000 C 
ATOM      2  N   UNL     1       1.480  11.757  18.600  0.00  0.00    +0.000 NA
ATOM      3  C   UNL     1       0.626  10.763  19.386  0.00  0.00    +0.000 C 
ATOM      4  CA  UNL     1       0.735  11.277  20.884  0.00  0.00    +0.000 C 
ATOM      5  N   UNL     1       1.303  12.604  20.698  0.00  0.00    +0.000 N 
ATOM      6  H   UNL     1       1.065  13.408  21.261  0.00  0.00    +0.000 HD
ENDROOT
BRANCH   3   7
ATOM      7  C   UNL     1       1.268   9.350  19.325  0.00  0.00    +0.000 A 
ATOM      8  C   UNL     1       1.927   8.894  18.166  0.00  0.00    +0.000 A 
ATOM      9  C   UNL     1       2.523   7.631  18.122  0.00  0.00    +0.000 A 
ATOM     10  C   UNL     1       2.465   6.806  19.236  0.00  0.00    +0.000 A 
ATOM     11  F   UNL     1       3.054   5.603  19.200  0.00  0.00    +0.000 F 
ATOM     12  C   UNL     1       1.823   7.219  20.394  0.00  0.00    +0.000 A 
ATOM     13  C   UNL     1       1.239   8.488  20.444  0.00  0.00    +0.000 A 
ENDBRANCH   3   7
BRANCH   3  14
ATOM     14  C   UNL     1      -0.796  10.844  18.751  0.00  0.00    +0.000 A 
ATOM     15  C   UNL     1      -1.750  11.791  19.172  0.00  0.00    +0.000 A 
ATOM     16  C   UNL     1      -3.054  11.799  18.671  0.00  0.00    +0.000 A 
ATOM     17  C   UNL     1      -3.437  10.838  17.753  0.00  0.00    +0.000 A 
ATOM     18  F   UNL     1      -4.696  10.825  17.299  0.00  0.00    +0.000 F 
ATOM     19  C   UNL     1      -2.529   9.895  17.295  0.00  0.00    +0.000 A 
ATOM     20  C   UNL     1      -1.218   9.900  17.786  0.00  0.00    +0.000 A 
ENDBRANCH   3  14
BRANCH   1  25
ATOM     21  C   UNL     1       4.393  15.130  18.185  0.00  0.00    +0.000 A 
ATOM     22  C   UNL     1       3.621  16.274  18.002  0.00  0.00    +0.000 A 
ATOM     23  C   UNL     1       2.270  16.206  18.306  0.00  0.00    +0.000 A 
ATOM     24  N   UNL     1       1.652  15.093  18.761  0.00  0.00    +0.000 NA
ATOM     25  C   UNL     1       2.431  13.993  18.935  0.00  0.00    +0.000 A 
ATOM     26  C   UNL     1       3.794  13.964  18.665  0.00  0.00    +0.000 A 
BRANCH  21  28
ATOM     27  N   UNL     1       6.939  15.152  17.656  0.00  0.00    +0.000 NA
ATOM     28  C   UNL     1       5.797  15.135  17.880  0.00  0.00    +0.000 C 
ENDBRANCH  21  28
ENDBRANCH   1  25
BRANCH   4  29
ATOM     29  C   UNL     1      -0.550  11.284  21.716  0.00  0.00    +0.000 C 
BRANCH  29  30
ATOM     30  O   UNL     1      -0.300  10.874  23.064  0.00  0.00    +0.000 OA
ATOM     31  H   UNL     1       0.238  10.065  23.031  0.00  0.00    +0.000 HD
ENDBRANCH  29  30
ENDBRANCH   4  29
TORSDOF 6
ENDMDL
