MODEL 1
REMARK VINA RESULT:      -8.5      0.000      0.000
REMARK  Name = 
REMARK  5 active torsions:
REMARK  status: ('A' for Active; 'I' for Inactive)
REMARK    1  A    between atoms: C_1  and  O_2
REMARK    2  A    between atoms: O_2  and  C_3
REMARK    3  A    between atoms: C_14  and  N_15
REMARK    4  A    between atoms: N_15  and  C_16
REMARK    5  A    between atoms: C_21  and  N_22
REMARK                            x       y       z     vdW  Elec       q    Type
REMARK                         _______ _______ _______ _____ _____    ______ ____
ROOT
ATOM      1  C   UNL     1      -3.915  12.815  20.319  0.00  0.00    +0.000 A 
ATOM      2  C   UNL     1      -4.000  12.795  21.710  0.00  0.00    +0.000 A 
ATOM      3  C   UNL     1      -2.931  12.338  22.484  0.00  0.00    +0.000 A 
ATOM      4  C   UNL     1      -1.751  11.887  21.872  0.00  0.00    +0.000 A 
ATOM      5  C   UNL     1      -1.670  11.901  20.479  0.00  0.00    +0.000 A 
ATOM      6  C   UNL     1      -2.743  12.374  19.708  0.00  0.00    +0.000 A 
ATOM      7  C   UNL     1      -0.452  11.506  19.744  0.00  0.00    +0.000 C 
ATOM      8  O   UNL     1      -0.101  12.230  18.812  0.00  0.00    +0.000 OA
ATOM      9  C   UNL     1       0.297  10.243  20.010  0.00  0.00    +0.000 A 
ATOM     10  C   UNL     1       1.039   9.762  18.915  0.00  0.00    +0.000 A 
ATOM     11  C   UNL     1       1.765   8.571  18.989  0.00  0.00    +0.000 A 
ATOM     12  C   UNL     1       1.774   7.820  20.161  0.00  0.00    +0.000 A 
ATOM     13  C   UNL     1       1.029   8.295  21.248  0.00  0.00    +0.000 A 
ATOM     14  C   UNL     1       0.308   9.516  21.211  0.00  0.00    +0.000 A 
ATOM     15  C   UNL     1      -0.381   9.913  22.496  0.00  0.00    +0.000 C 
ATOM     16  C   UNL     1      -0.601  11.406  22.705  0.00  0.00    +0.000 C 
ENDROOT
BRANCH   1  18
ATOM     17  C   UNL     1      -6.209  12.512  19.804  0.00  0.00    +0.000 C 
ATOM     18  O   UNL     1      -5.022  13.287  19.670  0.00  0.00    +0.000 OA
ENDBRANCH   1  18
BRANCH  12  19
ATOM     19  N   UNL     1       2.440   6.583  20.167  0.00  0.00    +0.000 N 
ATOM     20  H   UNL     1       3.290   6.565  20.717  0.00  0.00    +0.000 HD
BRANCH  19  21
ATOM     21  C   UNL     1       2.048   5.312  19.690  0.00  0.00    +0.000 A 
ATOM     22  C   UNL     1       1.246   4.505  20.518  0.00  0.00    +0.000 A 
ATOM     23  C   UNL     1       0.801   3.253  20.088  0.00  0.00    +0.000 A 
ATOM     24  C   UNL     1       1.136   2.799  18.818  0.00  0.00    +0.000 A 
ATOM     25  C   UNL     1       1.927   3.586  17.982  0.00  0.00    +0.000 A 
ATOM     26  C   UNL     1       2.379   4.846  18.396  0.00  0.00    +0.000 A 
BRANCH  26  27
ATOM     27  N   UNL     1       3.370   5.479  17.619  0.00  0.00    +0.000 N 
ATOM     28  H   UNL     1       3.680   4.939  16.821  0.00  0.00    +0.000 HD
ATOM     29  H   UNL     1       3.130   6.441  17.386  0.00  0.00    +0.000 HD
ENDBRANCH  26  27
ENDBRANCH  19  21
ENDBRANCH  12  19
TORSDOF 4
ENDMDL
MODEL 2
REMARK VINA RESULT:      -8.2      1.336      1.986
REMARK  Name = 
REMARK  5 active torsions:
REMARK  status: ('A' for Active; 'I' for Inactive)
REMARK    1  A    between atoms: C_1  and  O_2
REMARK    2  A    between atoms: O_2  and  C_3
REMARK    3  A    between atoms: C_14  and  N_15
REMARK    4  A    between atoms: N_15  and  C_16
REMARK    5  A    between atoms: C_21  and  N_22
REMARK                            x       y       z     vdW  Elec       q    Type
REMARK                         _______ _______ _______ _____ _____    ______ ____
ROOT
ATOM      1  C   UNL     1      -2.249  12.294  21.246  0.00  0.00    +0.000 A 
ATOM      2  C   UNL     1      -2.131  11.811  22.548  0.00  0.00    +0.000 A 
ATOM      3  C   UNL     1      -1.044  11.017  22.919  0.00  0.00    +0.000 A 
ATOM      4  C   UNL     1      -0.051  10.688  21.984  0.00  0.00    +0.000 A 
ATOM      5  C   UNL     1      -0.173  11.166  20.679  0.00  0.00    +0.000 A 
ATOM      6  C   UNL     1      -1.261  11.975  20.316  0.00  0.00    +0.000 A 
ATOM      7  C   UNL     1       0.848  10.928  19.640  0.00  0.00    +0.000 C 
ATOM      8  O   UNL     1       1.166  11.887  18.937  0.00  0.00    +0.000 OA
ATOM      9  C   UNL     1       1.423   9.583  19.344  0.00  0.00    +0.000 A 
ATOM     10  C   UNL     1       1.914   9.433  18.033  0.00  0.00    +0.000 A 
ATOM     11  C   UNL     1       2.450   8.224  17.586  0.00  0.00    +0.000 A 
ATOM     12  C   UNL     1       2.514   7.122  18.434  0.00  0.00    +0.000 A 
ATOM     13  C   UNL     1       2.019   7.270  19.737  0.00  0.00    +0.000 A 
ATOM     14  C   UNL     1       1.498   8.494  20.226  0.00  0.00    +0.000 A 
ATOM     15  C   UNL     1       1.075   8.497  21.677  0.00  0.00    +0.000 C 
ATOM     16  C   UNL     1       1.121   9.844  22.387  0.00  0.00    +0.000 C 
ENDROOT
BRANCH   1  18
ATOM     17  C   UNL     1      -4.498  12.793  21.804  0.00  0.00    +0.000 C 
ATOM     18  O   UNL     1      -3.352  13.063  21.003  0.00  0.00    +0.000 OA
ENDBRANCH   1  18
BRANCH  12  19
ATOM     19  N   UNL     1       2.974   5.899  17.921  0.00  0.00    +0.000 N 
ATOM     20  H   UNL     1       3.700   5.982  17.219  0.00  0.00    +0.000 HD
BRANCH  19  21
ATOM     21  C   UNL     1       2.735   4.567  18.331  0.00  0.00    +0.000 A 
ATOM     22  C   UNL     1       1.435   4.047  18.192  0.00  0.00    +0.000 A 
ATOM     23  C   UNL     1       1.147   2.729  18.549  0.00  0.00    +0.000 A 
ATOM     24  C   UNL     1       2.157   1.907  19.035  0.00  0.00    +0.000 A 
ATOM     25  C   UNL     1       3.451   2.403  19.177  0.00  0.00    +0.000 A 
ATOM     26  C   UNL     1       3.760   3.722  18.819  0.00  0.00    +0.000 A 
BRANCH  26  27
ATOM     27  N   UNL     1       5.010   4.239  19.216  0.00  0.00    +0.000 N 
ATOM     28  H   UNL     1       5.770   3.573  19.161  0.00  0.00    +0.000 HD
ATOM     29  H   UNL     1       5.223   5.131  18.774  0.00  0.00    +0.000 HD
ENDBRANCH  26  27
ENDBRANCH  19  21
ENDBRANCH  12  19
TORSDOF 4
ENDMDL
MODEL 3
REMARK VINA RESULT:      -8.2      2.973      4.653
REMARK  Name = 
REMARK  5 active torsions:
REMARK  status: ('A' for Active; 'I' for Inactive)
REMARK    1  A    between atoms: C_1  and  O_2
REMARK    2  A    between atoms: O_2  and  C_3
REMARK    3  A    between atoms: C_14  and  N_15
REMARK    4  A    between atoms: N_15  and  C_16
REMARK    5  A    between atoms: C_21  and  N_22
REMARK                            x       y       z     vdW  Elec       q    Type
REMARK                         _______ _______ _______ _____ _____    ______ ____
ROOT
ATOM      1  C   UNL     1       0.499  12.370  21.186  0.00  0.00    +0.000 A 
ATOM      2  C   UNL     1       0.582  12.846  19.879  0.00  0.00    +0.000 A 
ATOM      3  C   UNL     1       0.671  11.962  18.801  0.00  0.00    +0.000 A 
ATOM      4  C   UNL     1       0.680  10.575  19.018  0.00  0.00    +0.000 A 
ATOM      5  C   UNL     1       0.604  10.100  20.327  0.00  0.00    +0.000 A 
ATOM      6  C   UNL     1       0.502  10.994  21.405  0.00  0.00    +0.000 A 
ATOM      7  C   UNL     1       0.544   8.662  20.655  0.00  0.00    +0.000 C 
ATOM      8  O   UNL     1      -0.279   8.314  21.502  0.00  0.00    +0.000 OA
ATOM      9  C   UNL     1       1.486   7.650  20.093  0.00  0.00    +0.000 A 
ATOM     10  C   UNL     1       1.659   6.505  20.893  0.00  0.00    +0.000 A 
ATOM     11  C   UNL     1       2.535   5.481  20.527  0.00  0.00    +0.000 A 
ATOM     12  C   UNL     1       3.269   5.567  19.348  0.00  0.00    +0.000 A 
ATOM     13  C   UNL     1       3.103   6.710  18.555  0.00  0.00    +0.000 A 
ATOM     14  C   UNL     1       2.197   7.750  18.887  0.00  0.00    +0.000 A 
ATOM     15  C   UNL     1       2.089   8.875  17.884  0.00  0.00    +0.000 C 
ATOM     16  C   UNL     1       0.765   9.627  17.860  0.00  0.00    +0.000 C 
ENDROOT
BRANCH   1  18
ATOM     17  C   UNL     1       0.417  14.682  21.706  0.00  0.00    +0.000 C 
ATOM     18  O   UNL     1       0.413  13.330  22.156  0.00  0.00    +0.000 OA
ENDBRANCH   1  18
BRANCH  12  19
ATOM     19  N   UNL     1       4.207   4.562  19.060  0.00  0.00    +0.000 N 
ATOM     20  H   UNL     1       4.076   3.702  19.578  0.00  0.00    +0.000 HD
BRANCH  19  21
ATOM     21  C   UNL     1       5.194   4.470  18.051  0.00  0.00    +0.000 A 
ATOM     22  C   UNL     1       4.814   3.981  16.787  0.00  0.00    +0.000 A 
ATOM     23  C   UNL     1       5.737   3.898  15.743  0.00  0.00    +0.000 A 
ATOM     24  C   UNL     1       7.047   4.317  15.942  0.00  0.00    +0.000 A 
ATOM     25  C   UNL     1       7.441   4.806  17.187  0.00  0.00    +0.000 A 
ATOM     26  C   UNL     1       6.527   4.901  18.245  0.00  0.00    +0.000 A 
BRANCH  26  27
ATOM     27  N   UNL     1       7.034   5.161  19.534  0.00  0.00    +0.000 N 
ATOM     28  H   UNL     1       8.043   5.111  19.600  0.00  0.00    +0.000 HD
ATOM     29  H   UNL     1       6.645   6.008  19.945  0.00  0.00    +0.000 HD
ENDBRANCH  26  27
ENDBRANCH  19  21
ENDBRANCH  12  19
TORSDOF 4
ENDMDL
MODEL 4
REMARK VINA RESULT:      -8.0      0.808      1.419
REMARK  Name = 
REMARK  5 active torsions:
REMARK  status: ('A' for Active; 'I' for Inactive)
REMARK    1  A    between atoms: C_1  and  O_2
REMARK    2  A    between atoms: O_2  and  C_3
REMARK    3  A    between atoms: C_14  and  N_15
REMARK    4  A    between atoms: N_15  and  C_16
REMARK    5  A    between atoms: C_21  and  N_22
REMARK                            x       y       z     vdW  Elec       q    Type
REMARK                         _______ _______ _______ _____ _____    ______ ____
ROOT
ATOM      1  C   UNL     1      -3.872  12.744  20.292  0.00  0.00    +0.000 A 
ATOM      2  C   UNL     1      -3.955  12.741  21.683  0.00  0.00    +0.000 A 
ATOM      3  C   UNL     1      -2.886  12.291  22.461  0.00  0.00    +0.000 A 
ATOM      4  C   UNL     1      -1.708  11.830  21.853  0.00  0.00    +0.000 A 
ATOM      5  C   UNL     1      -1.628  11.828  20.460  0.00  0.00    +0.000 A 
ATOM      6  C   UNL     1      -2.702  12.294  19.684  0.00  0.00    +0.000 A 
ATOM      7  C   UNL     1      -0.412  11.422  19.728  0.00  0.00    +0.000 C 
ATOM      8  O   UNL     1      -0.062  12.134  18.787  0.00  0.00    +0.000 OA
ATOM      9  C   UNL     1       0.334  10.161  20.008  0.00  0.00    +0.000 A 
ATOM     10  C   UNL     1       1.074   9.665  18.917  0.00  0.00    +0.000 A 
ATOM     11  C   UNL     1       1.798   8.474  19.004  0.00  0.00    +0.000 A 
ATOM     12  C   UNL     1       1.807   7.737  20.185  0.00  0.00    +0.000 A 
ATOM     13  C   UNL     1       1.065   8.226  21.268  0.00  0.00    +0.000 A 
ATOM     14  C   UNL     1       0.346   9.448  21.217  0.00  0.00    +0.000 A 
ATOM     15  C   UNL     1      -0.340   9.862  22.498  0.00  0.00    +0.000 C 
ATOM     16  C   UNL     1      -0.557  11.358  22.689  0.00  0.00    +0.000 C 
ENDROOT
BRANCH   1  18
ATOM     17  C   UNL     1      -5.743  12.245  18.924  0.00  0.00    +0.000 C 
ATOM     18  O   UNL     1      -4.979  13.210  19.640  0.00  0.00    +0.000 OA
ENDBRANCH   1  18
BRANCH  12  19
ATOM     19  N   UNL     1       2.471   6.499  20.204  0.00  0.00    +0.000 N 
ATOM     20  H   UNL     1       2.922   6.277  21.084  0.00  0.00    +0.000 HD
BRANCH  19  21
ATOM     21  C   UNL     1       2.475   5.430  19.281  0.00  0.00    +0.000 A 
ATOM     22  C   UNL     1       3.339   5.506  18.173  0.00  0.00    +0.000 A 
ATOM     23  C   UNL     1       3.410   4.465  17.245  0.00  0.00    +0.000 A 
ATOM     24  C   UNL     1       2.632   3.327  17.420  0.00  0.00    +0.000 A 
ATOM     25  C   UNL     1       1.772   3.232  18.513  0.00  0.00    +0.000 A 
ATOM     26  C   UNL     1       1.691   4.265  19.457  0.00  0.00    +0.000 A 
BRANCH  26  27
ATOM     27  N   UNL     1       0.635   4.226  20.390  0.00  0.00    +0.000 N 
ATOM     28  H   UNL     1       0.911   4.451  21.338  0.00  0.00    +0.000 HD
ATOM     29  H   UNL     1      -0.184   4.742  20.075  0.00  0.00    +0.000 HD
ENDBRANCH  26  27
ENDBRANCH  19  21
ENDBRANCH  12  19
TORSDOF 4
ENDMDL
MODEL 5
REMARK VINA RESULT:      -8.0      8.085     10.597
REMARK  Name = 
REMARK  5 active torsions:
REMARK  status: ('A' for Active; 'I' for Inactive)
REMARK    1  A    between atoms: C_1  and  O_2
REMARK    2  A    between atoms: O_2  and  C_3
REMARK    3  A    between atoms: C_14  and  N_15
REMARK    4  A    between atoms: N_15  and  C_16
REMARK    5  A    between atoms: C_21  and  N_22
REMARK                            x       y       z     vdW  Elec       q    Type
REMARK                         _______ _______ _______ _____ _____    ______ ____
ROOT
ATOM      1  C   UNL     1       3.617   3.079  19.005  0.00  0.00    +0.000 A 
ATOM      2  C   UNL     1       2.829   3.383  17.896  0.00  0.00    +0.000 A 
ATOM      3  C   UNL     1       3.299   4.240  16.899  0.00  0.00    +0.000 A 
ATOM      4  C   UNL     1       4.576   4.814  16.999  0.00  0.00    +0.000 A 
ATOM      5  C   UNL     1       5.362   4.515  18.112  0.00  0.00    +0.000 A 
ATOM      6  C   UNL     1       4.888   3.641  19.104  0.00  0.00    +0.000 A 
ATOM      7  C   UNL     1       6.740   5.017  18.279  0.00  0.00    +0.000 C 
ATOM      8  O   UNL     1       7.587   4.211  18.665  0.00  0.00    +0.000 OA
ATOM      9  C   UNL     1       7.121   6.449  18.102  0.00  0.00    +0.000 A 
ATOM     10  C   UNL     1       8.270   6.841  18.815  0.00  0.00    +0.000 A 
ATOM     11  C   UNL     1       8.737   8.156  18.786  0.00  0.00    +0.000 A 
ATOM     12  C   UNL     1       8.071   9.126  18.042  0.00  0.00    +0.000 A 
ATOM     13  C   UNL     1       6.923   8.738  17.338  0.00  0.00    +0.000 A 
ATOM     14  C   UNL     1       6.444   7.403  17.326  0.00  0.00    +0.000 A 
ATOM     15  C   UNL     1       5.236   7.145  16.456  0.00  0.00    +0.000 C 
ATOM     16  C   UNL     1       5.084   5.726  15.923  0.00  0.00    +0.000 C 
ENDROOT
BRANCH   1  18
ATOM     17  C   UNL     1       1.700   2.496  20.273  0.00  0.00    +0.000 C 
ATOM     18  O   UNL     1       3.051   2.226  19.910  0.00  0.00    +0.000 OA
ENDBRANCH   1  18
BRANCH  12  19
ATOM     19  N   UNL     1       8.517  10.456  18.111  0.00  0.00    +0.000 N 
ATOM     20  H   UNL     1       7.809  11.149  17.901  0.00  0.00    +0.000 HD
BRANCH  19  21
ATOM     21  C   UNL     1       9.725  11.010  18.592  0.00  0.00    +0.000 A 
ATOM     22  C   UNL     1      10.731  11.332  17.662  0.00  0.00    +0.000 A 
ATOM     23  C   UNL     1      11.932  11.912  18.074  0.00  0.00    +0.000 A 
ATOM     24  C   UNL     1      12.138  12.194  19.419  0.00  0.00    +0.000 A 
ATOM     25  C   UNL     1      11.152  11.885  20.355  0.00  0.00    +0.000 A 
ATOM     26  C   UNL     1       9.939  11.307  19.959  0.00  0.00    +0.000 A 
BRANCH  26  27
ATOM     27  N   UNL     1       9.094  10.791  20.962  0.00  0.00    +0.000 N 
ATOM     28  H   UNL     1       9.148  11.285  21.844  0.00  0.00    +0.000 HD
ATOM     29  H   UNL     1       8.140  10.650  20.637  0.00  0.00    +0.000 HD
ENDBRANCH  26  27
ENDBRANCH  19  21
ENDBRANCH  12  19
TORSDOF 4
ENDMDL
MODEL 6
REMARK VINA RESULT:      -7.8      3.330      8.242
REMARK  Name = 
REMARK  5 active torsions:
REMARK  status: ('A' for Active; 'I' for Inactive)
REMARK    1  A    between atoms: C_1  and  O_2
REMARK    2  A    between atoms: O_2  and  C_3
REMARK    3  A    between atoms: C_14  and  N_15
REMARK    4  A    between atoms: N_15  and  C_16
REMARK    5  A    between atoms: C_21  and  N_22
REMARK                            x       y       z     vdW  Elec       q    Type
REMARK                         _______ _______ _______ _____ _____    ______ ____
ROOT
ATOM      1  C   UNL     1       2.235   5.694  20.244  0.00  0.00    +0.000 A 
ATOM      2  C   UNL     1       2.641   5.772  18.913  0.00  0.00    +0.000 A 
ATOM      3  C   UNL     1       2.538   6.971  18.204  0.00  0.00    +0.000 A 
ATOM      4  C   UNL     1       2.021   8.120  18.822  0.00  0.00    +0.000 A 
ATOM      5  C   UNL     1       1.609   8.040  20.153  0.00  0.00    +0.000 A 
ATOM      6  C   UNL     1       1.727   6.834  20.863  0.00  0.00    +0.000 A 
ATOM      7  C   UNL     1       1.110   9.205  20.909  0.00  0.00    +0.000 C 
ATOM      8  O   UNL     1       1.536   9.353  22.054  0.00  0.00    +0.000 OA
ATOM      9  C   UNL     1       0.060  10.132  20.394  0.00  0.00    +0.000 A 
ATOM     10  C   UNL     1      -0.673  10.799  21.394  0.00  0.00    +0.000 A 
ATOM     11  C   UNL     1      -1.715  11.672  21.079  0.00  0.00    +0.000 A 
ATOM     12  C   UNL     1      -2.062  11.909  19.752  0.00  0.00    +0.000 A 
ATOM     13  C   UNL     1      -1.338  11.239  18.757  0.00  0.00    +0.000 A 
ATOM     14  C   UNL     1      -0.255  10.372  19.047  0.00  0.00    +0.000 A 
ATOM     15  C   UNL     1       0.462   9.790  17.851  0.00  0.00    +0.000 C 
ATOM     16  C   UNL     1       1.922   9.410  18.064  0.00  0.00    +0.000 C 
ENDROOT
BRANCH   1  18
ATOM     17  C   UNL     1       2.250   3.338  19.979  0.00  0.00    +0.000 C 
ATOM     18  O   UNL     1       2.387   4.470  20.833  0.00  0.00    +0.000 OA
ENDBRANCH   1  18
BRANCH  12  19
ATOM     19  N   UNL     1      -3.175  12.721  19.479  0.00  0.00    +0.000 N 
ATOM     20  H   UNL     1      -2.947  13.660  19.176  0.00  0.00    +0.000 HD
BRANCH  19  21
ATOM     21  C   UNL     1      -4.551  12.413  19.378  0.00  0.00    +0.000 A 
ATOM     22  C   UNL     1      -5.318  12.387  20.558  0.00  0.00    +0.000 A 
ATOM     23  C   UNL     1      -6.688  12.121  20.517  0.00  0.00    +0.000 A 
ATOM     24  C   UNL     1      -7.314  11.895  19.297  0.00  0.00    +0.000 A 
ATOM     25  C   UNL     1      -6.570  11.920  18.118  0.00  0.00    +0.000 A 
ATOM     26  C   UNL     1      -5.196  12.189  18.139  0.00  0.00    +0.000 A 
BRANCH  26  27
ATOM     27  N   UNL     1      -4.458  11.955  16.961  0.00  0.00    +0.000 N 
ATOM     28  H   UNL     1      -3.751  12.653  16.768  0.00  0.00    +0.000 HD
ATOM     29  H   UNL     1      -4.109  11.000  16.901  0.00  0.00    +0.000 HD
ENDBRANCH  26  27
ENDBRANCH  19  21
ENDBRANCH  12  19
TORSDOF 4
ENDMDL
MODEL 7
REMARK VINA RESULT:      -7.8      3.360      8.302
REMARK  Name = 
REMARK  5 active torsions:
REMARK  status: ('A' for Active; 'I' for Inactive)
REMARK    1  A    between atoms: C_1  and  O_2
REMARK    2  A    between atoms: O_2  and  C_3
REMARK    3  A    between atoms: C_14  and  N_15
REMARK    4  A    between atoms: N_15  and  C_16
REMARK    5  A    between atoms: C_21  and  N_22
REMARK                            x       y       z     vdW  Elec       q    Type
REMARK                         _______ _______ _______ _____ _____    ______ ____
ROOT
ATOM      1  C   UNL     1       2.309   5.452  20.174  0.00  0.00    +0.000 A 
ATOM      2  C   UNL     1       2.743   5.540  18.852  0.00  0.00    +0.000 A 
ATOM      3  C   UNL     1       2.672   6.748  18.156  0.00  0.00    +0.000 A 
ATOM      4  C   UNL     1       2.159   7.898  18.777  0.00  0.00    +0.000 A 
ATOM      5  C   UNL     1       1.719   7.808  20.098  0.00  0.00    +0.000 A 
ATOM      6  C   UNL     1       1.805   6.593  20.796  0.00  0.00    +0.000 A 
ATOM      7  C   UNL     1       1.222   8.971  20.858  0.00  0.00    +0.000 C 
ATOM      8  O   UNL     1       1.627   9.100  22.013  0.00  0.00    +0.000 OA
ATOM      9  C   UNL     1       0.196   9.919  20.333  0.00  0.00    +0.000 A 
ATOM     10  C   UNL     1      -0.547  10.585  21.326  0.00  0.00    +0.000 A 
ATOM     11  C   UNL     1      -1.570  11.477  21.001  0.00  0.00    +0.000 A 
ATOM     12  C   UNL     1      -1.887  11.735  19.670  0.00  0.00    +0.000 A 
ATOM     13  C   UNL     1      -1.153  11.067  18.681  0.00  0.00    +0.000 A 
ATOM     14  C   UNL     1      -0.088  10.180  18.983  0.00  0.00    +0.000 A 
ATOM     15  C   UNL     1       0.645   9.601  17.795  0.00  0.00    +0.000 C 
ATOM     16  C   UNL     1       2.094   9.198  18.032  0.00  0.00    +0.000 C 
ENDROOT
BRANCH   1  18
ATOM     17  C   UNL     1       1.248   3.429  20.808  0.00  0.00    +0.000 C 
ATOM     18  O   UNL     1       2.432   4.219  20.751  0.00  0.00    +0.000 OA
ENDBRANCH   1  18
BRANCH  12  19
ATOM     19  N   UNL     1      -2.982  12.566  19.384  0.00  0.00    +0.000 N 
ATOM     20  H   UNL     1      -2.734  13.487  19.041  0.00  0.00    +0.000 HD
BRANCH  19  21
ATOM     21  C   UNL     1      -4.367  12.293  19.319  0.00  0.00    +0.000 A 
ATOM     22  C   UNL     1      -4.900  11.819  18.106  0.00  0.00    +0.000 A 
ATOM     23  C   UNL     1      -6.254  11.501  17.991  0.00  0.00    +0.000 A 
ATOM     24  C   UNL     1      -7.092  11.636  19.092  0.00  0.00    +0.000 A 
ATOM     25  C   UNL     1      -6.582  12.102  20.303  0.00  0.00    +0.000 A 
ATOM     26  C   UNL     1      -5.224  12.421  20.437  0.00  0.00    +0.000 A 
BRANCH  26  27
ATOM     27  N   UNL     1      -4.821  13.117  21.595  0.00  0.00    +0.000 N 
ATOM     28  H   UNL     1      -4.476  12.521  22.338  0.00  0.00    +0.000 HD
ATOM     29  H   UNL     1      -4.204  13.899  21.386  0.00  0.00    +0.000 HD
ENDBRANCH  26  27
ENDBRANCH  19  21
ENDBRANCH  12  19
TORSDOF 4
ENDMDL
MODEL 8
REMARK VINA RESULT:      -7.7      2.724      4.383
REMARK  Name = 
REMARK  5 active torsions:
REMARK  status: ('A' for Active; 'I' for Inactive)
REMARK    1  A    between atoms: C_1  and  O_2
REMARK    2  A    between atoms: O_2  and  C_3
REMARK    3  A    between atoms: C_14  and  N_15
REMARK    4  A    between atoms: N_15  and  C_16
REMARK    5  A    between atoms: C_21  and  N_22
REMARK                            x       y       z     vdW  Elec       q    Type
REMARK                         _______ _______ _______ _____ _____    ______ ____
ROOT
ATOM      1  C   UNL     1       0.259  12.533  21.329  0.00  0.00    +0.000 A 
ATOM      2  C   UNL     1       0.385  13.009  20.025  0.00  0.00    +0.000 A 
ATOM      3  C   UNL     1       0.510  12.126  18.951  0.00  0.00    +0.000 A 
ATOM      4  C   UNL     1       0.514  10.739  19.168  0.00  0.00    +0.000 A 
ATOM      5  C   UNL     1       0.395  10.263  20.474  0.00  0.00    +0.000 A 
ATOM      6  C   UNL     1       0.256  11.157  21.547  0.00  0.00    +0.000 A 
ATOM      7  C   UNL     1       0.327   8.825  20.799  0.00  0.00    +0.000 C 
ATOM      8  O   UNL     1      -0.524   8.476  21.618  0.00  0.00    +0.000 OA
ATOM      9  C   UNL     1       1.288   7.815  20.268  0.00  0.00    +0.000 A 
ATOM     10  C   UNL     1       1.436   6.669  21.073  0.00  0.00    +0.000 A 
ATOM     11  C   UNL     1       2.325   5.647  20.736  0.00  0.00    +0.000 A 
ATOM     12  C   UNL     1       3.098   5.734  19.582  0.00  0.00    +0.000 A 
ATOM     13  C   UNL     1       2.956   6.878  18.784  0.00  0.00    +0.000 A 
ATOM     14  C   UNL     1       2.039   7.916  19.086  0.00  0.00    +0.000 A 
ATOM     15  C   UNL     1       1.962   9.041  18.080  0.00  0.00    +0.000 C 
ATOM     16  C   UNL     1       0.638   9.791  18.012  0.00  0.00    +0.000 C 
ENDROOT
BRANCH   1  18
ATOM     17  C   UNL     1      -1.104  13.539  22.988  0.00  0.00    +0.000 C 
ATOM     18  O   UNL     1       0.139  13.493  22.295  0.00  0.00    +0.000 OA
ENDBRANCH   1  18
BRANCH  12  19
ATOM     19  N   UNL     1       4.047   4.731  19.325  0.00  0.00    +0.000 N 
ATOM     20  H   UNL     1       3.812   3.822  19.706  0.00  0.00    +0.000 HD
BRANCH  19  21
ATOM     21  C   UNL     1       5.182   4.715  18.483  0.00  0.00    +0.000 A 
ATOM     22  C   UNL     1       6.396   5.218  18.987  0.00  0.00    +0.000 A 
ATOM     23  C   UNL     1       7.557   5.199  18.213  0.00  0.00    +0.000 A 
ATOM     24  C   UNL     1       7.526   4.662  16.932  0.00  0.00    +0.000 A 
ATOM     25  C   UNL     1       6.334   4.157  16.416  0.00  0.00    +0.000 A 
ATOM     26  C   UNL     1       5.159   4.164  17.181  0.00  0.00    +0.000 A 
BRANCH  26  27
ATOM     27  N   UNL     1       3.944   3.877  16.526  0.00  0.00    +0.000 N 
ATOM     28  H   UNL     1       3.718   4.515  15.773  0.00  0.00    +0.000 HD
ATOM     29  H   UNL     1       3.864   2.897  16.262  0.00  0.00    +0.000 HD
ENDBRANCH  26  27
ENDBRANCH  19  21
ENDBRANCH  12  19
TORSDOF 4
ENDMDL
MODEL 9
REMARK VINA RESULT:      -7.7      3.678      8.489
REMARK  Name = 
REMARK  5 active torsions:
REMARK  status: ('A' for Active; 'I' for Inactive)
REMARK    1  A    between atoms: C_1  and  O_2
REMARK    2  A    between atoms: O_2  and  C_3
REMARK    3  A    between atoms: C_14  and  N_15
REMARK    4  A    between atoms: N_15  and  C_16
REMARK    5  A    between atoms: C_21  and  N_22
REMARK                            x       y       z     vdW  Elec       q    Type
REMARK                         _______ _______ _______ _____ _____    ______ ____
ROOT
ATOM      1  C   UNL     1       2.069   7.081  19.527  0.00  0.00    +0.000 A 
ATOM      2  C   UNL     1       2.222   7.646  18.262  0.00  0.00    +0.000 A 
ATOM      3  C   UNL     1       1.908   8.988  18.037  0.00  0.00    +0.000 A 
ATOM      4  C   UNL     1       1.429   9.792  19.084  0.00  0.00    +0.000 A 
ATOM      5  C   UNL     1       1.270   9.224  20.348  0.00  0.00    +0.000 A 
ATOM      6  C   UNL     1       1.599   7.877  20.570  0.00  0.00    +0.000 A 
ATOM      7  C   UNL     1       0.833   9.999  21.525  0.00  0.00    +0.000 C 
ATOM      8  O   UNL     1       1.446   9.814  22.577  0.00  0.00    +0.000 OA
ATOM      9  C   UNL     1      -0.357  10.900  21.522  0.00  0.00    +0.000 A 
ATOM     10  C   UNL     1      -0.944  11.098  22.786  0.00  0.00    +0.000 A 
ATOM     11  C   UNL     1      -2.086  11.884  22.948  0.00  0.00    +0.000 A 
ATOM     12  C   UNL     1      -2.682  12.500  21.852  0.00  0.00    +0.000 A 
ATOM     13  C   UNL     1      -2.103  12.296  20.592  0.00  0.00    +0.000 A 
ATOM     14  C   UNL     1      -0.925  11.529  20.403  0.00  0.00    +0.000 A 
ATOM     15  C   UNL     1      -0.395  11.473  18.989  0.00  0.00    +0.000 C 
ATOM     16  C   UNL     1       1.103  11.235  18.843  0.00  0.00    +0.000 C 
ENDROOT
BRANCH   1  18
ATOM     17  C   UNL     1       1.803   5.028  20.684  0.00  0.00    +0.000 C 
ATOM     18  O   UNL     1       2.412   5.761  19.625  0.00  0.00    +0.000 OA
ENDBRANCH   1  18
BRANCH  12  19
ATOM     19  N   UNL     1      -3.881  13.206  22.041  0.00  0.00    +0.000 N 
ATOM     20  H   UNL     1      -3.773  14.211  22.099  0.00  0.00    +0.000 HD
BRANCH  19  21
ATOM     21  C   UNL     1      -5.229  12.784  21.988  0.00  0.00    +0.000 A 
ATOM     22  C   UNL     1      -5.688  12.154  20.816  0.00  0.00    +0.000 A 
ATOM     23  C   UNL     1      -6.999  11.687  20.717  0.00  0.00    +0.000 A 
ATOM     24  C   UNL     1      -7.866  11.827  21.795  0.00  0.00    +0.000 A 
ATOM     25  C   UNL     1      -7.429  12.445  22.965  0.00  0.00    +0.000 A 
ATOM     26  C   UNL     1      -6.115  12.916  23.083  0.00  0.00    +0.000 A 
BRANCH  26  27
ATOM     27  N   UNL     1      -5.807  13.747  24.179  0.00  0.00    +0.000 N 
ATOM     28  H   UNL     1      -5.221  13.310  24.880  0.00  0.00    +0.000 HD
ATOM     29  H   UNL     1      -5.474  14.666  23.892  0.00  0.00    +0.000 HD
ENDBRANCH  26  27
ENDBRANCH  19  21
ENDBRANCH  12  19
TORSDOF 4
ENDMDL
