MODEL 1
REMARK VINA RESULT:      -7.2      0.000      0.000
REMARK  Name = 
REMARK  3 active torsions:
REMARK  status: ('A' for Active; 'I' for Inactive)
REMARK    1  A    between atoms: C_1  and  C_2
REMARK    2  A    between atoms: C_4  and  C_5
REMARK    3  A    between atoms: C_11  and  C_12
REMARK                            x       y       z     vdW  Elec       q    Type
REMARK                         _______ _______ _______ _____ _____    ______ ____
ROOT
ATOM      1  C   UNL     1       3.158   3.692  17.542  0.00  0.00    +0.000 C 
ATOM      2  O   UNL     1       2.538   3.005  16.729  0.00  0.00    +0.000 OA
ATOM      3  N   UNL     1       4.409   4.227  17.235  0.00  0.00    +0.000 N 
ATOM      4  C   UNL     1       5.312   4.906  18.171  0.00  0.00    +0.000 C 
ATOM      5  C   UNL     1       6.782   4.523  17.916  0.00  0.00    +0.000 C 
ATOM      6  N   UNL     1       7.196   4.709  16.523  0.00  0.00    +0.000 NA
ATOM      7  C   UNL     1       6.295   3.967  15.612  0.00  0.00    +0.000 C 
ATOM      8  C   UNL     1       4.804   4.329  15.829  0.00  0.00    +0.000 C 
ATOM      9  H   UNL     1       8.145   4.359  16.393  0.00  0.00    +0.000 HD
ENDROOT
BRANCH   1  13
ATOM     10  C   UNL     1       1.521   2.655  22.123  0.00  0.00    +0.000 C 
ATOM     11  C   UNL     1       1.882   3.460  20.927  0.00  0.00    +0.000 A 
ATOM     12  N   UNL     1       2.393   2.954  19.829  0.00  0.00    +0.000 NA
ATOM     13  C   UNL     1       2.585   3.951  18.872  0.00  0.00    +0.000 A 
ATOM     14  C   UNL     1       2.254   5.220  19.316  0.00  0.00    +0.000 A 
ATOM     15  S   UNL     1       1.631   5.157  20.910  0.00  0.00    +0.000 S 
ENDBRANCH   1  13
BRANCH   7  16
ATOM     16  C   UNL     1       6.718   4.218  14.177  0.00  0.00    +0.000 A 
ATOM     17  C   UNL     1       7.627   5.239  13.869  0.00  0.00    +0.000 A 
ATOM     18  C   UNL     1       7.984   5.491  12.542  0.00  0.00    +0.000 A 
ATOM     19  C   UNL     1       7.445   4.718  11.515  0.00  0.00    +0.000 A 
ATOM     20  C   UNL     1       6.549   3.693  11.808  0.00  0.00    +0.000 A 
ATOM     21  C   UNL     1       6.184   3.447  13.129  0.00  0.00    +0.000 A 
ENDBRANCH   7  16
TORSDOF 2
ENDMDL
MODEL 2
REMARK VINA RESULT:      -7.2      0.036      1.081
REMARK  Name = 
REMARK  3 active torsions:
REMARK  status: ('A' for Active; 'I' for Inactive)
REMARK    1  A    between atoms: C_1  and  C_2
REMARK    2  A    between atoms: C_4  and  C_5
REMARK    3  A    between atoms: C_11  and  C_12
REMARK                            x       y       z     vdW  Elec       q    Type
REMARK                         _______ _______ _______ _____ _____    ______ ____
ROOT
ATOM      1  C   UNL     1       3.141   3.708  17.540  0.00  0.00    +0.000 C 
ATOM      2  O   UNL     1       2.518   3.028  16.722  0.00  0.00    +0.000 OA
ATOM      3  N   UNL     1       4.391   4.246  17.232  0.00  0.00    +0.000 N 
ATOM      4  C   UNL     1       5.297   4.917  18.172  0.00  0.00    +0.000 C 
ATOM      5  C   UNL     1       6.766   4.536  17.909  0.00  0.00    +0.000 C 
ATOM      6  N   UNL     1       7.176   4.734  16.517  0.00  0.00    +0.000 NA
ATOM      7  C   UNL     1       6.272   4.000  15.602  0.00  0.00    +0.000 C 
ATOM      8  C   UNL     1       4.781   4.360  15.827  0.00  0.00    +0.000 C 
ATOM      9  H   UNL     1       8.124   4.385  16.381  0.00  0.00    +0.000 HD
ENDROOT
BRANCH   1  13
ATOM     10  C   UNL     1       1.535   2.635  22.123  0.00  0.00    +0.000 C 
ATOM     11  C   UNL     1       1.883   3.449  20.929  0.00  0.00    +0.000 A 
ATOM     12  N   UNL     1       2.393   2.952  19.826  0.00  0.00    +0.000 NA
ATOM     13  C   UNL     1       2.572   3.956  18.873  0.00  0.00    +0.000 A 
ATOM     14  C   UNL     1       2.232   5.220  19.325  0.00  0.00    +0.000 A 
ATOM     15  S   UNL     1       1.617   5.144  20.922  0.00  0.00    +0.000 S 
ENDBRANCH   1  13
BRANCH   7  16
ATOM     16  C   UNL     1       6.690   4.263  14.168  0.00  0.00    +0.000 A 
ATOM     17  C   UNL     1       6.188   3.477  13.122  0.00  0.00    +0.000 A 
ATOM     18  C   UNL     1       6.605   3.699  11.808  0.00  0.00    +0.000 A 
ATOM     19  C   UNL     1       7.517   4.715  11.526  0.00  0.00    +0.000 A 
ATOM     20  C   UNL     1       8.016   5.511  12.555  0.00  0.00    +0.000 A 
ATOM     21  C   UNL     1       7.609   5.284  13.867  0.00  0.00    +0.000 A 
ENDBRANCH   7  16
TORSDOF 2
ENDMDL
MODEL 3
REMARK VINA RESULT:      -7.1      0.971      1.313
REMARK  Name = 
REMARK  3 active torsions:
REMARK  status: ('A' for Active; 'I' for Inactive)
REMARK    1  A    between atoms: C_1  and  C_2
REMARK    2  A    between atoms: C_4  and  C_5
REMARK    3  A    between atoms: C_11  and  C_12
REMARK                            x       y       z     vdW  Elec       q    Type
REMARK                         _______ _______ _______ _____ _____    ______ ____
ROOT
ATOM      1  C   UNL     1       3.257   3.886  17.629  0.00  0.00    +0.000 C 
ATOM      2  O   UNL     1       2.597   3.176  16.868  0.00  0.00    +0.000 OA
ATOM      3  N   UNL     1       4.506   4.383  17.257  0.00  0.00    +0.000 N 
ATOM      4  C   UNL     1       5.452   5.085  18.131  0.00  0.00    +0.000 C 
ATOM      5  C   UNL     1       6.905   4.663  17.846  0.00  0.00    +0.000 C 
ATOM      6  N   UNL     1       7.276   4.778  16.433  0.00  0.00    +0.000 NA
ATOM      7  C   UNL     1       6.332   4.014  15.587  0.00  0.00    +0.000 C 
ATOM      8  C   UNL     1       4.855   4.414  15.836  0.00  0.00    +0.000 C 
ATOM      9  H   UNL     1       8.213   4.405  16.288  0.00  0.00    +0.000 HD
ENDROOT
BRANCH   1  13
ATOM     10  C   UNL     1       1.210   6.673  21.205  0.00  0.00    +0.000 C 
ATOM     11  C   UNL     1       1.793   5.479  20.537  0.00  0.00    +0.000 A 
ATOM     12  N   UNL     1       2.198   5.462  19.288  0.00  0.00    +0.000 NA
ATOM     13  C   UNL     1       2.734   4.216  18.964  0.00  0.00    +0.000 A 
ATOM     14  C   UNL     1       2.662   3.293  19.994  0.00  0.00    +0.000 A 
ATOM     15  S   UNL     1       1.987   4.007  21.397  0.00  0.00    +0.000 S 
ENDBRANCH   1  13
BRANCH   7  16
ATOM     16  C   UNL     1       6.710   4.192  14.128  0.00  0.00    +0.000 A 
ATOM     17  C   UNL     1       7.616   5.190  13.743  0.00  0.00    +0.000 A 
ATOM     18  C   UNL     1       7.932   5.374  12.395  0.00  0.00    +0.000 A 
ATOM     19  C   UNL     1       7.356   4.557  11.424  0.00  0.00    +0.000 A 
ATOM     20  C   UNL     1       6.462   3.555  11.794  0.00  0.00    +0.000 A 
ATOM     21  C   UNL     1       6.139   3.376  13.137  0.00  0.00    +0.000 A 
ENDBRANCH   7  16
TORSDOF 2
ENDMDL
MODEL 4
REMARK VINA RESULT:      -7.1      4.725      8.777
REMARK  Name = 
REMARK  3 active torsions:
REMARK  status: ('A' for Active; 'I' for Inactive)
REMARK    1  A    between atoms: C_1  and  C_2
REMARK    2  A    between atoms: C_4  and  C_5
REMARK    3  A    between atoms: C_11  and  C_12
REMARK                            x       y       z     vdW  Elec       q    Type
REMARK                         _______ _______ _______ _____ _____    ______ ____
ROOT
ATOM      1  C   UNL     1       2.732   5.948  19.500  0.00  0.00    +0.000 C 
ATOM      2  O   UNL     1       2.204   5.277  20.387  0.00  0.00    +0.000 OA
ATOM      3  N   UNL     1       2.383   7.283  19.296  0.00  0.00    +0.000 N 
ATOM      4  C   UNL     1       2.810   8.125  18.173  0.00  0.00    +0.000 C 
ATOM      5  C   UNL     1       1.668   9.034  17.682  0.00  0.00    +0.000 C 
ATOM      6  N   UNL     1       1.051   9.821  18.753  0.00  0.00    +0.000 NA
ATOM      7  C   UNL     1       0.585   8.934  19.844  0.00  0.00    +0.000 C 
ATOM      8  C   UNL     1       1.708   8.006  20.374  0.00  0.00    +0.000 C 
ATOM      9  H   UNL     1       0.249  10.334  18.390  0.00  0.00    +0.000 HD
ENDROOT
BRANCH   1  13
ATOM     10  C   UNL     1       7.275   4.762  17.858  0.00  0.00    +0.000 C 
ATOM     11  C   UNL     1       5.790   4.804  17.926  0.00  0.00    +0.000 A 
ATOM     12  N   UNL     1       5.117   5.453  18.848  0.00  0.00    +0.000 NA
ATOM     13  C   UNL     1       3.745   5.339  18.624  0.00  0.00    +0.000 A 
ATOM     14  C   UNL     1       3.422   4.540  17.540  0.00  0.00    +0.000 A 
ATOM     15  S   UNL     1       4.840   3.987  16.755  0.00  0.00    +0.000 S 
ENDBRANCH   1  13
BRANCH   7  16
ATOM     16  C   UNL     1      -0.002   9.778  20.959  0.00  0.00    +0.000 A 
ATOM     17  C   UNL     1      -0.081   9.279  22.266  0.00  0.00    +0.000 A 
ATOM     18  C   UNL     1      -0.656  10.046  23.282  0.00  0.00    +0.000 A 
ATOM     19  C   UNL     1      -1.147  11.321  23.002  0.00  0.00    +0.000 A 
ATOM     20  C   UNL     1      -1.064  11.833  21.709  0.00  0.00    +0.000 A 
ATOM     21  C   UNL     1      -0.500  11.066  20.694  0.00  0.00    +0.000 A 
ENDBRANCH   7  16
TORSDOF 2
ENDMDL
MODEL 5
REMARK VINA RESULT:      -7.1      4.680      8.719
REMARK  Name = 
REMARK  3 active torsions:
REMARK  status: ('A' for Active; 'I' for Inactive)
REMARK    1  A    between atoms: C_1  and  C_2
REMARK    2  A    between atoms: C_4  and  C_5
REMARK    3  A    between atoms: C_11  and  C_12
REMARK                            x       y       z     vdW  Elec       q    Type
REMARK                         _______ _______ _______ _____ _____    ______ ____
ROOT
ATOM      1  C   UNL     1       2.797   5.922  19.450  0.00  0.00    +0.000 C 
ATOM      2  O   UNL     1       2.267   5.237  20.326  0.00  0.00    +0.000 OA
ATOM      3  N   UNL     1       2.435   7.254  19.252  0.00  0.00    +0.000 N 
ATOM      4  C   UNL     1       2.865   8.110  18.141  0.00  0.00    +0.000 C 
ATOM      5  C   UNL     1       1.717   9.009  17.643  0.00  0.00    +0.000 C 
ATOM      6  N   UNL     1       1.080   9.780  18.714  0.00  0.00    +0.000 NA
ATOM      7  C   UNL     1       0.611   8.879  19.792  0.00  0.00    +0.000 C 
ATOM      8  C   UNL     1       1.739   7.961  20.328  0.00  0.00    +0.000 C 
ATOM      9  H   UNL     1       0.275  10.287  18.346  0.00  0.00    +0.000 HD
ENDROOT
BRANCH   1  13
ATOM     10  C   UNL     1       7.371   4.756  17.880  0.00  0.00    +0.000 C 
ATOM     11  C   UNL     1       5.885   4.805  17.916  0.00  0.00    +0.000 A 
ATOM     12  N   UNL     1       5.194   5.432  18.839  0.00  0.00    +0.000 NA
ATOM     13  C   UNL     1       3.827   5.332  18.581  0.00  0.00    +0.000 A 
ATOM     14  C   UNL     1       3.525   4.564  17.469  0.00  0.00    +0.000 A 
ATOM     15  S   UNL     1       4.958   4.025  16.701  0.00  0.00    +0.000 S 
ENDBRANCH   1  13
BRANCH   7  16
ATOM     16  C   UNL     1       0.002   9.708  20.907  0.00  0.00    +0.000 A 
ATOM     17  C   UNL     1      -0.461  11.008  20.659  0.00  0.00    +0.000 A 
ATOM     18  C   UNL     1      -0.986  11.781  21.697  0.00  0.00    +0.000 A 
ATOM     19  C   UNL     1      -1.065  11.258  22.987  0.00  0.00    +0.000 A 
ATOM     20  C   UNL     1      -0.618   9.963  23.245  0.00  0.00    +0.000 A 
ATOM     21  C   UNL     1      -0.085   9.196  22.213  0.00  0.00    +0.000 A 
ENDBRANCH   7  16
TORSDOF 2
ENDMDL
MODEL 6
REMARK VINA RESULT:      -7.1      0.972      1.696
REMARK  Name = 
REMARK  3 active torsions:
REMARK  status: ('A' for Active; 'I' for Inactive)
REMARK    1  A    between atoms: C_1  and  C_2
REMARK    2  A    between atoms: C_4  and  C_5
REMARK    3  A    between atoms: C_11  and  C_12
REMARK                            x       y       z     vdW  Elec       q    Type
REMARK                         _______ _______ _______ _____ _____    ______ ____
ROOT
ATOM      1  C   UNL     1       3.226   3.876  17.635  0.00  0.00    +0.000 C 
ATOM      2  O   UNL     1       2.563   3.167  16.876  0.00  0.00    +0.000 OA
ATOM      3  N   UNL     1       4.472   4.375  17.257  0.00  0.00    +0.000 N 
ATOM      4  C   UNL     1       5.422   5.077  18.128  0.00  0.00    +0.000 C 
ATOM      5  C   UNL     1       6.874   4.657  17.835  0.00  0.00    +0.000 C 
ATOM      6  N   UNL     1       7.238   4.776  16.421  0.00  0.00    +0.000 NA
ATOM      7  C   UNL     1       6.290   4.012  15.577  0.00  0.00    +0.000 C 
ATOM      8  C   UNL     1       4.814   4.411  15.835  0.00  0.00    +0.000 C 
ATOM      9  H   UNL     1       8.174   4.404  16.270  0.00  0.00    +0.000 HD
ENDROOT
BRANCH   1  13
ATOM     10  C   UNL     1       1.203   6.655  21.231  0.00  0.00    +0.000 C 
ATOM     11  C   UNL     1       1.780   5.462  20.556  0.00  0.00    +0.000 A 
ATOM     12  N   UNL     1       2.180   5.449  19.305  0.00  0.00    +0.000 NA
ATOM     13  C   UNL     1       2.709   4.202  18.973  0.00  0.00    +0.000 A 
ATOM     14  C   UNL     1       2.637   3.275  19.999  0.00  0.00    +0.000 A 
ATOM     15  S   UNL     1       1.971   3.986  21.408  0.00  0.00    +0.000 S 
ENDBRANCH   1  13
BRANCH   7  16
ATOM     16  C   UNL     1       6.661   4.195  14.117  0.00  0.00    +0.000 A 
ATOM     17  C   UNL     1       6.122   3.354  13.134  0.00  0.00    +0.000 A 
ATOM     18  C   UNL     1       6.495   3.502  11.796  0.00  0.00    +0.000 A 
ATOM     19  C   UNL     1       7.400   4.497  11.429  0.00  0.00    +0.000 A 
ATOM     20  C   UNL     1       7.935   5.346  12.395  0.00  0.00    +0.000 A 
ATOM     21  C   UNL     1       7.571   5.193  13.730  0.00  0.00    +0.000 A 
ENDBRANCH   7  16
TORSDOF 2
ENDMDL
MODEL 7
REMARK VINA RESULT:      -6.9      7.131      9.357
REMARK  Name = 
REMARK  3 active torsions:
REMARK  status: ('A' for Active; 'I' for Inactive)
REMARK    1  A    between atoms: C_1  and  C_2
REMARK    2  A    between atoms: C_4  and  C_5
REMARK    3  A    between atoms: C_11  and  C_12
REMARK                            x       y       z     vdW  Elec       q    Type
REMARK                         _______ _______ _______ _____ _____    ______ ____
ROOT
ATOM      1  C   UNL     1      -0.561  10.673  22.765  0.00  0.00    +0.000 C 
ATOM      2  O   UNL     1      -0.013  10.092  23.704  0.00  0.00    +0.000 OA
ATOM      3  N   UNL     1      -0.301  10.318  21.442  0.00  0.00    +0.000 N 
ATOM      4  C   UNL     1      -0.752  11.042  20.249  0.00  0.00    +0.000 C 
ATOM      5  C   UNL     1       0.338  11.073  19.161  0.00  0.00    +0.000 C 
ATOM      6  N   UNL     1       0.863   9.746  18.830  0.00  0.00    +0.000 NA
ATOM      7  C   UNL     1       1.358   9.067  20.049  0.00  0.00    +0.000 C 
ATOM      8  C   UNL     1       0.287   9.006  21.169  0.00  0.00    +0.000 C 
ATOM      9  H   UNL     1       1.638   9.833  18.173  0.00  0.00    +0.000 HD
ENDROOT
BRANCH   1  13
ATOM     10  C   UNL     1      -4.857  12.849  24.012  0.00  0.00    +0.000 C 
ATOM     11  C   UNL     1      -3.429  12.719  23.617  0.00  0.00    +0.000 A 
ATOM     12  N   UNL     1      -2.820  11.570  23.436  0.00  0.00    +0.000 NA
ATOM     13  C   UNL     1      -1.501  11.773  23.032  0.00  0.00    +0.000 A 
ATOM     14  C   UNL     1      -1.135  13.107  22.974  0.00  0.00    +0.000 A 
ATOM     15  S   UNL     1      -2.467  14.114  23.356  0.00  0.00    +0.000 S 
ENDBRANCH   1  13
BRANCH   7  16
ATOM     16  C   UNL     1       1.849   7.679  19.683  0.00  0.00    +0.000 A 
ATOM     17  C   UNL     1       2.456   7.440  18.443  0.00  0.00    +0.000 A 
ATOM     18  C   UNL     1       2.872   6.153  18.096  0.00  0.00    +0.000 A 
ATOM     19  C   UNL     1       2.696   5.097  18.989  0.00  0.00    +0.000 A 
ATOM     20  C   UNL     1       2.104   5.322  20.230  0.00  0.00    +0.000 A 
ATOM     21  C   UNL     1       1.680   6.603  20.573  0.00  0.00    +0.000 A 
ENDBRANCH   7  16
TORSDOF 2
ENDMDL
MODEL 8
REMARK VINA RESULT:      -6.8      4.724      8.789
REMARK  Name = 
REMARK  3 active torsions:
REMARK  status: ('A' for Active; 'I' for Inactive)
REMARK    1  A    between atoms: C_1  and  C_2
REMARK    2  A    between atoms: C_4  and  C_5
REMARK    3  A    between atoms: C_11  and  C_12
REMARK                            x       y       z     vdW  Elec       q    Type
REMARK                         _______ _______ _______ _____ _____    ______ ____
ROOT
ATOM      1  C   UNL     1       2.856   6.030  19.556  0.00  0.00    +0.000 C 
ATOM      2  O   UNL     1       2.303   5.328  20.403  0.00  0.00    +0.000 OA
ATOM      3  N   UNL     1       2.472   7.355  19.349  0.00  0.00    +0.000 N 
ATOM      4  C   UNL     1       2.931   8.228  18.263  0.00  0.00    +0.000 C 
ATOM      5  C   UNL     1       1.786   9.103  17.719  0.00  0.00    +0.000 C 
ATOM      6  N   UNL     1       1.083   9.852  18.764  0.00  0.00    +0.000 NA
ATOM      7  C   UNL     1       0.588   8.934  19.815  0.00  0.00    +0.000 C 
ATOM      8  C   UNL     1       1.712   8.038  20.397  0.00  0.00    +0.000 C 
ATOM      9  H   UNL     1       0.284  10.342  18.363  0.00  0.00    +0.000 HD
ENDROOT
BRANCH   1  13
ATOM     10  C   UNL     1       5.059   4.202  15.487  0.00  0.00    +0.000 C 
ATOM     11  C   UNL     1       4.903   4.678  16.888  0.00  0.00    +0.000 A 
ATOM     12  N   UNL     1       3.780   5.143  17.384  0.00  0.00    +0.000 NA
ATOM     13  C   UNL     1       3.938   5.470  18.731  0.00  0.00    +0.000 A 
ATOM     14  C   UNL     1       5.227   5.287  19.202  0.00  0.00    +0.000 A 
ATOM     15  S   UNL     1       6.229   4.634  17.975  0.00  0.00    +0.000 S 
ENDBRANCH   1  13
BRANCH   7  16
ATOM     16  C   UNL     1      -0.090   9.741  20.906  0.00  0.00    +0.000 A 
ATOM     17  C   UNL     1      -0.646  10.996  20.624  0.00  0.00    +0.000 A 
ATOM     18  C   UNL     1      -1.236  11.752  21.639  0.00  0.00    +0.000 A 
ATOM     19  C   UNL     1      -1.286  11.255  22.941  0.00  0.00    +0.000 A 
ATOM     20  C   UNL     1      -0.747  10.004  23.233  0.00  0.00    +0.000 A 
ATOM     21  C   UNL     1      -0.149   9.254  22.223  0.00  0.00    +0.000 A 
ENDBRANCH   7  16
TORSDOF 2
ENDMDL
MODEL 9
REMARK VINA RESULT:      -6.8      5.718      8.332
REMARK  Name = 
REMARK  3 active torsions:
REMARK  status: ('A' for Active; 'I' for Inactive)
REMARK    1  A    between atoms: C_1  and  C_2
REMARK    2  A    between atoms: C_4  and  C_5
REMARK    3  A    between atoms: C_11  and  C_12
REMARK                            x       y       z     vdW  Elec       q    Type
REMARK                         _______ _______ _______ _____ _____    ______ ____
ROOT
ATOM      1  C   UNL     1       1.051   9.838  21.517  0.00  0.00    +0.000 C 
ATOM      2  O   UNL     1       1.284   9.479  22.673  0.00  0.00    +0.000 OA
ATOM      3  N   UNL     1       1.247   8.977  20.438  0.00  0.00    +0.000 N 
ATOM      4  C   UNL     1       1.174   9.341  19.018  0.00  0.00    +0.000 C 
ATOM      5  C   UNL     1       2.267   8.634  18.196  0.00  0.00    +0.000 C 
ATOM      6  N   UNL     1       2.287   7.181  18.388  0.00  0.00    +0.000 NA
ATOM      7  C   UNL     1       2.417   6.852  19.826  0.00  0.00    +0.000 C 
ATOM      8  C   UNL     1       1.329   7.538  20.691  0.00  0.00    +0.000 C 
ATOM      9  H   UNL     1       3.081   6.777  17.893  0.00  0.00    +0.000 HD
ENDROOT
BRANCH   1  13
ATOM     10  C   UNL     1       1.332  14.726  20.639  0.00  0.00    +0.000 C 
ATOM     11  C   UNL     1       0.724  13.384  20.841  0.00  0.00    +0.000 A 
ATOM     12  N   UNL     1       1.417  12.292  21.071  0.00  0.00    +0.000 NA
ATOM     13  C   UNL     1       0.567  11.202  21.256  0.00  0.00    +0.000 A 
ATOM     14  C   UNL     1      -0.774  11.509  21.101  0.00  0.00    +0.000 A 
ATOM     15  S   UNL     1      -0.978  13.181  20.793  0.00  0.00    +0.000 S 
ENDBRANCH   1  13
BRANCH   7  16
ATOM     16  C   UNL     1       2.385   5.345  19.999  0.00  0.00    +0.000 A 
ATOM     17  C   UNL     1       1.265   4.714  20.557  0.00  0.00    +0.000 A 
ATOM     18  C   UNL     1       1.257   3.330  20.748  0.00  0.00    +0.000 A 
ATOM     19  C   UNL     1       2.361   2.566  20.374  0.00  0.00    +0.000 A 
ATOM     20  C   UNL     1       3.476   3.179  19.807  0.00  0.00    +0.000 A 
ATOM     21  C   UNL     1       3.490   4.560  19.626  0.00  0.00    +0.000 A 
ENDBRANCH   7  16
TORSDOF 2
ENDMDL
