MODEL 1
REMARK VINA RESULT:      -8.1      0.000      0.000
REMARK  Name = 
REMARK  3 active torsions:
REMARK  status: ('A' for Active; 'I' for Inactive)
REMARK    1  A    between atoms: C_5  and  C_6
REMARK    2  A    between atoms: C_9  and  C_10
REMARK    3  A    between atoms: C_10  and  N_11
REMARK                            x       y       z     vdW  Elec       q    Type
REMARK                         _______ _______ _______ _____ _____    ______ ____
ROOT
ATOM      1  C   UNL     1       8.526   9.397  18.250  0.00  0.00    +0.000 A 
ATOM      2  N   UNL     1       7.594   9.482  17.316  0.00  0.00    +0.000 NA
ATOM      3  N   UNL     1       7.080   8.216  17.154  0.00  0.00    +0.000 NA
ATOM      4  C   UNL     1       7.728   7.444  18.004  0.00  0.00    +0.000 A 
ATOM      5  O   UNL     1       8.683   8.119  18.720  0.00  0.00    +0.000 OA
ENDROOT
BRANCH   1  10
ATOM      6  F   UNL     1      11.860  13.368  20.341  0.00  0.00    +0.000 F 
ATOM      7  C   UNL     1      11.040  12.434  19.845  0.00  0.00    +0.000 A 
ATOM      8  C   UNL     1      10.998  12.219  18.473  0.00  0.00    +0.000 A 
ATOM      9  C   UNL     1      10.161  11.226  17.961  0.00  0.00    +0.000 A 
ATOM     10  C   UNL     1       9.359  10.447  18.816  0.00  0.00    +0.000 A 
ATOM     11  C   UNL     1       9.404  10.699  20.196  0.00  0.00    +0.000 A 
ATOM     12  C   UNL     1      10.247  11.688  20.709  0.00  0.00    +0.000 A 
ENDBRANCH   1  10
BRANCH   4  13
ATOM     13  C   UNL     1       7.521   5.993  18.283  0.00  0.00    +0.000 C 
BRANCH  13  14
ATOM     14  N   UNL     1       6.439   5.334  17.547  0.00  0.00    +0.000 N 
ATOM     15  C   UNL     1       6.606   5.079  16.117  0.00  0.00    +0.000 C 
ATOM     16  C   UNL     1       6.080   3.683  15.805  0.00  0.00    +0.000 C 
ATOM     17  O   UNL     1       4.682   3.564  16.103  0.00  0.00    +0.000 OA
ATOM     18  C   UNL     1       4.333   4.144  17.307  0.00  0.00    +0.000 A 
ATOM     19  C   UNL     1       3.046   3.825  17.752  0.00  0.00    +0.000 A 
ATOM     20  C   UNL     1       2.578   4.351  18.950  0.00  0.00    +0.000 A 
ATOM     21  C   UNL     1       3.396   5.191  19.698  0.00  0.00    +0.000 A 
ATOM     22  C   UNL     1       4.684   5.513  19.247  0.00  0.00    +0.000 A 
ATOM     23  C   UNL     1       5.184   5.009  18.040  0.00  0.00    +0.000 A 
ENDBRANCH  13  14
ENDBRANCH   4  13
TORSDOF 3
ENDMDL
MODEL 2
REMARK VINA RESULT:      -8.0      0.958      2.411
REMARK  Name = 
REMARK  3 active torsions:
REMARK  status: ('A' for Active; 'I' for Inactive)
REMARK    1  A    between atoms: C_5  and  C_6
REMARK    2  A    between atoms: C_9  and  C_10
REMARK    3  A    between atoms: C_10  and  N_11
REMARK                            x       y       z     vdW  Elec       q    Type
REMARK                         _______ _______ _______ _____ _____    ______ ____
ROOT
ATOM      1  C   UNL     1       8.619   9.487  18.350  0.00  0.00    +0.000 A 
ATOM      2  N   UNL     1       7.794   9.434  17.319  0.00  0.00    +0.000 NA
ATOM      3  N   UNL     1       7.342   8.137  17.240  0.00  0.00    +0.000 NA
ATOM      4  C   UNL     1       7.918   7.486  18.230  0.00  0.00    +0.000 A 
ATOM      5  O   UNL     1       8.766   8.271  18.968  0.00  0.00    +0.000 OA
ENDROOT
BRANCH   1  10
ATOM      6  F   UNL     1      11.555  13.826  20.303  0.00  0.00    +0.000 F 
ATOM      7  C   UNL     1      10.829  12.799  19.844  0.00  0.00    +0.000 A 
ATOM      8  C   UNL     1      10.604  12.676  18.479  0.00  0.00    +0.000 A 
ATOM      9  C   UNL     1       9.869  11.590  18.002  0.00  0.00    +0.000 A 
ATOM     10  C   UNL     1       9.351  10.624  18.886  0.00  0.00    +0.000 A 
ATOM     11  C   UNL     1       9.573  10.785  20.263  0.00  0.00    +0.000 A 
ATOM     12  C   UNL     1      10.316  11.868  20.740  0.00  0.00    +0.000 A 
ENDBRANCH   1  10
BRANCH   4  13
ATOM     13  C   UNL     1       7.729   6.063  18.639  0.00  0.00    +0.000 C 
BRANCH  13  14
ATOM     14  N   UNL     1       6.523   5.396  18.143  0.00  0.00    +0.000 N 
ATOM     15  C   UNL     1       5.497   4.980  19.099  0.00  0.00    +0.000 C 
ATOM     16  C   UNL     1       4.127   5.314  18.520  0.00  0.00    +0.000 C 
ATOM     17  O   UNL     1       3.883   4.610  17.295  0.00  0.00    +0.000 OA
ATOM     18  C   UNL     1       4.971   4.608  16.445  0.00  0.00    +0.000 A 
ATOM     19  C   UNL     1       4.694   4.165  15.148  0.00  0.00    +0.000 A 
ATOM     20  C   UNL     1       5.710   4.113  14.201  0.00  0.00    +0.000 A 
ATOM     21  C   UNL     1       6.997   4.505  14.553  0.00  0.00    +0.000 A 
ATOM     22  C   UNL     1       7.274   4.945  15.855  0.00  0.00    +0.000 A 
ATOM     23  C   UNL     1       6.276   4.999  16.837  0.00  0.00    +0.000 A 
ENDBRANCH  13  14
ENDBRANCH   4  13
TORSDOF 3
ENDMDL
MODEL 3
REMARK VINA RESULT:      -8.0      0.998      2.583
REMARK  Name = 
REMARK  3 active torsions:
REMARK  status: ('A' for Active; 'I' for Inactive)
REMARK    1  A    between atoms: C_5  and  C_6
REMARK    2  A    between atoms: C_9  and  C_10
REMARK    3  A    between atoms: C_10  and  N_11
REMARK                            x       y       z     vdW  Elec       q    Type
REMARK                         _______ _______ _______ _____ _____    ______ ____
ROOT
ATOM      1  C   UNL     1       8.682   9.516  18.396  0.00  0.00    +0.000 A 
ATOM      2  N   UNL     1       7.848   9.444  17.373  0.00  0.00    +0.000 NA
ATOM      3  N   UNL     1       7.396   8.145  17.323  0.00  0.00    +0.000 NA
ATOM      4  C   UNL     1       7.982   7.512  18.320  0.00  0.00    +0.000 A 
ATOM      5  O   UNL     1       8.836   8.312  19.035  0.00  0.00    +0.000 OA
ENDROOT
BRANCH   1  10
ATOM      6  F   UNL     1      11.383  13.958  20.453  0.00  0.00    +0.000 F 
ATOM      7  C   UNL     1      10.761  12.884  19.953  0.00  0.00    +0.000 A 
ATOM      8  C   UNL     1      10.265  11.916  20.817  0.00  0.00    +0.000 A 
ATOM      9  C   UNL     1       9.593  10.810  20.293  0.00  0.00    +0.000 A 
ATOM     10  C   UNL     1       9.418  10.664  18.904  0.00  0.00    +0.000 A 
ATOM     11  C   UNL     1       9.949  11.645  18.052  0.00  0.00    +0.000 A 
ATOM     12  C   UNL     1      10.614  12.756  18.577  0.00  0.00    +0.000 A 
ENDBRANCH   1  10
BRANCH   4  13
ATOM     13  C   UNL     1       7.798   6.097  18.757  0.00  0.00    +0.000 C 
BRANCH  13  14
ATOM     14  N   UNL     1       6.576   5.428  18.304  0.00  0.00    +0.000 N 
ATOM     15  C   UNL     1       5.574   5.033  19.293  0.00  0.00    +0.000 C 
ATOM     16  C   UNL     1       4.191   5.363  18.746  0.00  0.00    +0.000 C 
ATOM     17  O   UNL     1       3.911   4.641  17.539  0.00  0.00    +0.000 OA
ATOM     18  C   UNL     1       4.977   4.619  16.661  0.00  0.00    +0.000 A 
ATOM     19  C   UNL     1       4.664   4.155  15.379  0.00  0.00    +0.000 A 
ATOM     20  C   UNL     1       5.654   4.083  14.407  0.00  0.00    +0.000 A 
ATOM     21  C   UNL     1       6.952   4.475  14.718  0.00  0.00    +0.000 A 
ATOM     22  C   UNL     1       7.265   4.936  16.005  0.00  0.00    +0.000 A 
ATOM     23  C   UNL     1       6.294   5.011  17.012  0.00  0.00    +0.000 A 
ENDBRANCH  13  14
ENDBRANCH   4  13
TORSDOF 3
ENDMDL
MODEL 4
REMARK VINA RESULT:      -8.0      0.096      1.012
REMARK  Name = 
REMARK  3 active torsions:
REMARK  status: ('A' for Active; 'I' for Inactive)
REMARK    1  A    between atoms: C_5  and  C_6
REMARK    2  A    between atoms: C_9  and  C_10
REMARK    3  A    between atoms: C_10  and  N_11
REMARK                            x       y       z     vdW  Elec       q    Type
REMARK                         _______ _______ _______ _____ _____    ______ ____
ROOT
ATOM      1  C   UNL     1       8.540   9.397  18.255  0.00  0.00    +0.000 A 
ATOM      2  N   UNL     1       7.626   9.479  17.303  0.00  0.00    +0.000 NA
ATOM      3  N   UNL     1       7.102   8.216  17.149  0.00  0.00    +0.000 NA
ATOM      4  C   UNL     1       7.727   7.449  18.019  0.00  0.00    +0.000 A 
ATOM      5  O   UNL     1       8.676   8.123  18.744  0.00  0.00    +0.000 OA
ENDROOT
BRANCH   1  10
ATOM      6  F   UNL     1      11.612  13.484  20.518  0.00  0.00    +0.000 F 
ATOM      7  C   UNL     1      10.899  12.490  19.973  0.00  0.00    +0.000 A 
ATOM      8  C   UNL     1      10.121  11.679  20.788  0.00  0.00    +0.000 A 
ATOM      9  C   UNL     1       9.359  10.660  20.214  0.00  0.00    +0.000 A 
ATOM     10  C   UNL     1       9.374  10.445  18.822  0.00  0.00    +0.000 A 
ATOM     11  C   UNL     1      10.186  11.265  18.023  0.00  0.00    +0.000 A 
ATOM     12  C   UNL     1      10.943  12.289  18.598  0.00  0.00    +0.000 A 
ENDBRANCH   1  10
BRANCH   4  13
ATOM     13  C   UNL     1       7.500   6.003  18.313  0.00  0.00    +0.000 C 
BRANCH  13  14
ATOM     14  N   UNL     1       6.422   5.347  17.569  0.00  0.00    +0.000 N 
ATOM     15  C   UNL     1       6.597   5.098  16.139  0.00  0.00    +0.000 C 
ATOM     16  C   UNL     1       6.073   3.702  15.819  0.00  0.00    +0.000 C 
ATOM     17  O   UNL     1       4.674   3.581  16.109  0.00  0.00    +0.000 OA
ATOM     18  C   UNL     1       4.318   4.156  17.313  0.00  0.00    +0.000 A 
ATOM     19  C   UNL     1       3.030   3.835  17.751  0.00  0.00    +0.000 A 
ATOM     20  C   UNL     1       2.554   4.356  18.948  0.00  0.00    +0.000 A 
ATOM     21  C   UNL     1       3.369   5.195  19.704  0.00  0.00    +0.000 A 
ATOM     22  C   UNL     1       4.659   5.518  19.261  0.00  0.00    +0.000 A 
ATOM     23  C   UNL     1       5.165   5.019  18.054  0.00  0.00    +0.000 A 
ENDBRANCH  13  14
ENDBRANCH   4  13
TORSDOF 3
ENDMDL
MODEL 5
REMARK VINA RESULT:      -7.9      4.772      6.636
REMARK  Name = 
REMARK  3 active torsions:
REMARK  status: ('A' for Active; 'I' for Inactive)
REMARK    1  A    between atoms: C_5  and  C_6
REMARK    2  A    between atoms: C_9  and  C_10
REMARK    3  A    between atoms: C_10  and  N_11
REMARK                            x       y       z     vdW  Elec       q    Type
REMARK                         _______ _______ _______ _____ _____    ______ ____
ROOT
ATOM      1  C   UNL     1       2.168   6.612  19.884  0.00  0.00    +0.000 A 
ATOM      2  N   UNL     1       1.664   5.764  20.764  0.00  0.00    +0.000 NA
ATOM      3  N   UNL     1       2.412   4.612  20.677  0.00  0.00    +0.000 NA
ATOM      4  C   UNL     1       3.325   4.836  19.753  0.00  0.00    +0.000 A 
ATOM      5  O   UNL     1       3.219   6.078  19.183  0.00  0.00    +0.000 OA
ENDROOT
BRANCH   1  10
ATOM      6  F   UNL     1       0.774  11.893  18.692  0.00  0.00    +0.000 F 
ATOM      7  C   UNL     1       1.081  10.622  18.975  0.00  0.00    +0.000 A 
ATOM      8  C   UNL     1       1.703   9.837  18.012  0.00  0.00    +0.000 A 
ATOM      9  C   UNL     1       2.046   8.519  18.319  0.00  0.00    +0.000 A 
ATOM     10  C   UNL     1       1.765   7.978  19.588  0.00  0.00    +0.000 A 
ATOM     11  C   UNL     1       1.115   8.785  20.535  0.00  0.00    +0.000 A 
ATOM     12  C   UNL     1       0.780  10.107  20.230  0.00  0.00    +0.000 A 
ENDBRANCH   1  10
BRANCH   4  13
ATOM     13  C   UNL     1       4.432   3.940  19.305  0.00  0.00    +0.000 C 
BRANCH  13  14
ATOM     14  N   UNL     1       5.526   4.574  18.566  0.00  0.00    +0.000 N 
ATOM     15  C   UNL     1       6.433   5.476  19.275  0.00  0.00    +0.000 C 
ATOM     16  C   UNL     1       7.860   5.191  18.820  0.00  0.00    +0.000 C 
ATOM     17  O   UNL     1       8.026   5.430  17.416  0.00  0.00    +0.000 OA
ATOM     18  C   UNL     1       6.984   4.939  16.655  0.00  0.00    +0.000 A 
ATOM     19  C   UNL     1       7.229   4.920  15.278  0.00  0.00    +0.000 A 
ATOM     20  C   UNL     1       6.254   4.451  14.407  0.00  0.00    +0.000 A 
ATOM     21  C   UNL     1       5.038   4.001  14.913  0.00  0.00    +0.000 A 
ATOM     22  C   UNL     1       4.793   4.026  16.293  0.00  0.00    +0.000 A 
ATOM     23  C   UNL     1       5.749   4.502  17.199  0.00  0.00    +0.000 A 
ENDBRANCH  13  14
ENDBRANCH   4  13
TORSDOF 3
ENDMDL
MODEL 6
REMARK VINA RESULT:      -7.8      4.761      6.868
REMARK  Name = 
REMARK  3 active torsions:
REMARK  status: ('A' for Active; 'I' for Inactive)
REMARK    1  A    between atoms: C_5  and  C_6
REMARK    2  A    between atoms: C_9  and  C_10
REMARK    3  A    between atoms: C_10  and  N_11
REMARK                            x       y       z     vdW  Elec       q    Type
REMARK                         _______ _______ _______ _____ _____    ______ ____
ROOT
ATOM      1  C   UNL     1       2.176   6.237  20.124  0.00  0.00    +0.000 A 
ATOM      2  N   UNL     1       1.658   5.249  20.833  0.00  0.00    +0.000 NA
ATOM      3  N   UNL     1       2.449   4.145  20.608  0.00  0.00    +0.000 NA
ATOM      4  C   UNL     1       3.399   4.535  19.782  0.00  0.00    +0.000 A 
ATOM      5  O   UNL     1       3.279   5.848  19.407  0.00  0.00    +0.000 OA
ENDROOT
BRANCH   1  10
ATOM      6  F   UNL     1       0.361  11.516  19.795  0.00  0.00    +0.000 F 
ATOM      7  C   UNL     1       0.822  10.261  19.875  0.00  0.00    +0.000 A 
ATOM      8  C   UNL     1       0.702   9.563  21.070  0.00  0.00    +0.000 A 
ATOM      9  C   UNL     1       1.160   8.246  21.142  0.00  0.00    +0.000 A 
ATOM     10  C   UNL     1       1.742   7.622  20.022  0.00  0.00    +0.000 A 
ATOM     11  C   UNL     1       1.872   8.358  18.834  0.00  0.00    +0.000 A 
ATOM     12  C   UNL     1       1.407   9.673  18.760  0.00  0.00    +0.000 A 
ENDBRANCH   1  10
BRANCH   4  13
ATOM     13  C   UNL     1       4.556   3.749  19.262  0.00  0.00    +0.000 C 
BRANCH  13  14
ATOM     14  N   UNL     1       5.584   4.502  18.539  0.00  0.00    +0.000 N 
ATOM     15  C   UNL     1       6.408   5.462  19.272  0.00  0.00    +0.000 C 
ATOM     16  C   UNL     1       7.852   5.323  18.805  0.00  0.00    +0.000 C 
ATOM     17  O   UNL     1       7.989   5.618  17.408  0.00  0.00    +0.000 OA
ATOM     18  C   UNL     1       6.992   5.056  16.636  0.00  0.00    +0.000 A 
ATOM     19  C   UNL     1       7.231   5.100  15.258  0.00  0.00    +0.000 A 
ATOM     20  C   UNL     1       6.298   4.569  14.376  0.00  0.00    +0.000 A 
ATOM     21  C   UNL     1       5.131   3.996  14.872  0.00  0.00    +0.000 A 
ATOM     22  C   UNL     1       4.892   3.957  16.253  0.00  0.00    +0.000 A 
ATOM     23  C   UNL     1       5.806   4.492  17.170  0.00  0.00    +0.000 A 
ENDBRANCH  13  14
ENDBRANCH   4  13
TORSDOF 3
ENDMDL
MODEL 7
REMARK VINA RESULT:      -7.8      5.402      6.607
REMARK  Name = 
REMARK  3 active torsions:
REMARK  status: ('A' for Active; 'I' for Inactive)
REMARK    1  A    between atoms: C_5  and  C_6
REMARK    2  A    between atoms: C_9  and  C_10
REMARK    3  A    between atoms: C_10  and  N_11
REMARK                            x       y       z     vdW  Elec       q    Type
REMARK                         _______ _______ _______ _____ _____    ______ ____
ROOT
ATOM      1  C   UNL     1       6.880   4.756  16.377  0.00  0.00    +0.000 A 
ATOM      2  N   UNL     1       7.794   4.467  17.287  0.00  0.00    +0.000 NA
ATOM      3  N   UNL     1       7.214   4.692  18.514  0.00  0.00    +0.000 NA
ATOM      4  C   UNL     1       5.985   5.100  18.272  0.00  0.00    +0.000 A 
ATOM      5  O   UNL     1       5.704   5.191  16.933  0.00  0.00    +0.000 OA
ENDROOT
BRANCH   1  10
ATOM      6  F   UNL     1       7.220   4.254  10.819  0.00  0.00    +0.000 F 
ATOM      7  C   UNL     1       7.126   4.399  12.146  0.00  0.00    +0.000 A 
ATOM      8  C   UNL     1       6.198   3.644  12.852  0.00  0.00    +0.000 A 
ATOM      9  C   UNL     1       6.120   3.777  14.240  0.00  0.00    +0.000 A 
ATOM     10  C   UNL     1       6.965   4.669  14.927  0.00  0.00    +0.000 A 
ATOM     11  C   UNL     1       7.878   5.437  14.187  0.00  0.00    +0.000 A 
ATOM     12  C   UNL     1       7.961   5.297  12.799  0.00  0.00    +0.000 A 
ENDBRANCH   1  10
BRANCH   4  13
ATOM     13  C   UNL     1       4.904   5.424  19.249  0.00  0.00    +0.000 C 
BRANCH  13  14
ATOM     14  N   UNL     1       3.572   4.893  18.949  0.00  0.00    +0.000 N 
ATOM     15  C   UNL     1       2.916   5.287  17.703  0.00  0.00    +0.000 C 
ATOM     16  C   UNL     1       2.254   4.058  17.090  0.00  0.00    +0.000 C 
ATOM     17  O   UNL     1       1.247   3.512  17.953  0.00  0.00    +0.000 OA
ATOM     18  C   UNL     1       1.639   3.456  19.276  0.00  0.00    +0.000 A 
ATOM     19  C   UNL     1       0.798   2.699  20.099  0.00  0.00    +0.000 A 
ATOM     20  C   UNL     1       1.085   2.571  21.452  0.00  0.00    +0.000 A 
ATOM     21  C   UNL     1       2.211   3.198  21.978  0.00  0.00    +0.000 A 
ATOM     22  C   UNL     1       3.049   3.959  21.153  0.00  0.00    +0.000 A 
ATOM     23  C   UNL     1       2.784   4.118  19.787  0.00  0.00    +0.000 A 
ENDBRANCH  13  14
ENDBRANCH   4  13
TORSDOF 3
ENDMDL
MODEL 8
REMARK VINA RESULT:      -7.8      5.375      6.539
REMARK  Name = 
REMARK  3 active torsions:
REMARK  status: ('A' for Active; 'I' for Inactive)
REMARK    1  A    between atoms: C_5  and  C_6
REMARK    2  A    between atoms: C_9  and  C_10
REMARK    3  A    between atoms: C_10  and  N_11
REMARK                            x       y       z     vdW  Elec       q    Type
REMARK                         _______ _______ _______ _____ _____    ______ ____
ROOT
ATOM      1  C   UNL     1       6.915   4.741  16.374  0.00  0.00    +0.000 A 
ATOM      2  N   UNL     1       7.836   4.484  17.287  0.00  0.00    +0.000 NA
ATOM      3  N   UNL     1       7.254   4.718  18.512  0.00  0.00    +0.000 NA
ATOM      4  C   UNL     1       6.016   5.097  18.265  0.00  0.00    +0.000 A 
ATOM      5  O   UNL     1       5.731   5.161  16.926  0.00  0.00    +0.000 OA
ENDROOT
BRANCH   1  10
ATOM      6  F   UNL     1       7.226   4.489  10.798  0.00  0.00    +0.000 F 
ATOM      7  C   UNL     1       7.165   4.525  12.134  0.00  0.00    +0.000 A 
ATOM      8  C   UNL     1       8.002   5.384  12.834  0.00  0.00    +0.000 A 
ATOM      9  C   UNL     1       7.918   5.439  14.227  0.00  0.00    +0.000 A 
ATOM     10  C   UNL     1       7.000   4.632  14.926  0.00  0.00    +0.000 A 
ATOM     11  C   UNL     1       6.181   3.756  14.196  0.00  0.00    +0.000 A 
ATOM     12  C   UNL     1       6.261   3.708  12.802  0.00  0.00    +0.000 A 
ENDBRANCH   1  10
BRANCH   4  13
ATOM     13  C   UNL     1       4.930   5.414  19.240  0.00  0.00    +0.000 C 
BRANCH  13  14
ATOM     14  N   UNL     1       3.600   4.886  18.929  0.00  0.00    +0.000 N 
ATOM     15  C   UNL     1       2.957   5.274  17.674  0.00  0.00    +0.000 C 
ATOM     16  C   UNL     1       2.298   4.044  17.062  0.00  0.00    +0.000 C 
ATOM     17  O   UNL     1       1.280   3.505  17.918  0.00  0.00    +0.000 OA
ATOM     18  C   UNL     1       1.659   3.456  19.245  0.00  0.00    +0.000 A 
ATOM     19  C   UNL     1       0.808   2.706  20.064  0.00  0.00    +0.000 A 
ATOM     20  C   UNL     1       1.082   2.585  21.421  0.00  0.00    +0.000 A 
ATOM     21  C   UNL     1       2.204   3.211  21.955  0.00  0.00    +0.000 A 
ATOM     22  C   UNL     1       3.053   3.966  21.133  0.00  0.00    +0.000 A 
ATOM     23  C   UNL     1       2.801   4.118  19.763  0.00  0.00    +0.000 A 
ENDBRANCH  13  14
ENDBRANCH   4  13
TORSDOF 3
ENDMDL
MODEL 9
REMARK VINA RESULT:      -7.7      4.934      7.003
REMARK  Name = 
REMARK  3 active torsions:
REMARK  status: ('A' for Active; 'I' for Inactive)
REMARK    1  A    between atoms: C_5  and  C_6
REMARK    2  A    between atoms: C_9  and  C_10
REMARK    3  A    between atoms: C_10  and  N_11
REMARK                            x       y       z     vdW  Elec       q    Type
REMARK                         _______ _______ _______ _____ _____    ______ ____
ROOT
ATOM      1  C   UNL     1       2.640   5.987  19.117  0.00  0.00    +0.000 A 
ATOM      2  N   UNL     1       2.975   4.969  19.890  0.00  0.00    +0.000 NA
ATOM      3  N   UNL     1       3.554   4.026  19.072  0.00  0.00    +0.000 NA
ATOM      4  C   UNL     1       3.538   4.533  17.856  0.00  0.00    +0.000 A 
ATOM      5  O   UNL     1       2.948   5.770  17.799  0.00  0.00    +0.000 OA
ENDROOT
BRANCH   1  10
ATOM      6  F   UNL     1       0.382  10.927  20.445  0.00  0.00    +0.000 F 
ATOM      7  C   UNL     1       0.898   9.733  20.127  0.00  0.00    +0.000 A 
ATOM      8  C   UNL     1       1.330   9.498  18.828  0.00  0.00    +0.000 A 
ATOM      9  C   UNL     1       1.891   8.261  18.507  0.00  0.00    +0.000 A 
ATOM     10  C   UNL     1       2.018   7.252  19.480  0.00  0.00    +0.000 A 
ATOM     11  C   UNL     1       1.553   7.507  20.779  0.00  0.00    +0.000 A 
ATOM     12  C   UNL     1       0.999   8.749  21.103  0.00  0.00    +0.000 A 
ENDBRANCH   1  10
BRANCH   4  13
ATOM     13  C   UNL     1       4.096   3.952  16.600  0.00  0.00    +0.000 C 
BRANCH  13  14
ATOM     14  N   UNL     1       5.217   4.672  15.990  0.00  0.00    +0.000 N 
ATOM     15  C   UNL     1       5.767   5.841  16.675  0.00  0.00    +0.000 C 
ATOM     16  C   UNL     1       7.288   5.786  16.589  0.00  0.00    +0.000 C 
ATOM     17  O   UNL     1       7.745   5.829  15.230  0.00  0.00    +0.000 OA
ATOM     18  C   UNL     1       7.009   5.022  14.385  0.00  0.00    +0.000 A 
ATOM     19  C   UNL     1       7.577   4.836  13.120  0.00  0.00    +0.000 A 
ATOM     20  C   UNL     1       6.928   4.047  12.179  0.00  0.00    +0.000 A 
ATOM     21  C   UNL     1       5.717   3.444  12.504  0.00  0.00    +0.000 A 
ATOM     22  C   UNL     1       5.148   3.635  13.771  0.00  0.00    +0.000 A 
ATOM     23  C   UNL     1       5.769   4.433  14.740  0.00  0.00    +0.000 A 
ENDBRANCH  13  14
ENDBRANCH   4  13
TORSDOF 3
ENDMDL
