MODEL 1
REMARK VINA RESULT:      -7.1      0.000      0.000
REMARK  Name = 
REMARK  5 active torsions:
REMARK  status: ('A' for Active; 'I' for Inactive)
REMARK    1  A    between atoms: O_1  and  C_2
REMARK    2  A    between atoms: C_3  and  C_4
REMARK    3  A    between atoms: C_8  and  N_9
REMARK    4  A    between atoms: N_14  and  C_15
REMARK    5  A    between atoms: C_22  and  O_23
REMARK                            x       y       z     vdW  Elec       q    Type
REMARK                         _______ _______ _______ _____ _____    ______ ____
ROOT
ATOM      1  N   UNL     1       2.833   6.847  18.961  0.00  0.00    +0.000 N 
ATOM      2  C   UNL     1       3.127   7.453  17.763  0.00  0.00    +0.000 A 
ATOM      3  N   UNL     1       2.525   8.620  17.646  0.00  0.00    +0.000 NA
ATOM      4  C   UNL     1       1.804   8.774  18.818  0.00  0.00    +0.000 A 
ATOM      5  C   UNL     1       0.982   9.813  19.310  0.00  0.00    +0.000 A 
ATOM      6  N   UNL     1       0.774  10.987  18.569  0.00  0.00    +0.000 N 
ATOM      7  N   UNL     1       0.417   9.642  20.538  0.00  0.00    +0.000 NA
ATOM      8  C   UNL     1       0.685   8.513  21.226  0.00  0.00    +0.000 A 
ATOM      9  N   UNL     1       1.457   7.476  20.860  0.00  0.00    +0.000 NA
ATOM     10  C   UNL     1       1.981   7.671  19.637  0.00  0.00    +0.000 A 
ATOM     11  H   UNL     1       1.293  11.008  17.699  0.00  0.00    +0.000 HD
ENDROOT
BRANCH   1  15
ATOM     12  C   UNL     1       3.592   3.286  19.069  0.00  0.00    +0.000 C 
ATOM     13  C   UNL     1       4.819   4.008  18.493  0.00  0.00    +0.000 C 
ATOM     14  O   UNL     1       4.694   5.404  18.822  0.00  0.00    +0.000 OA
ATOM     15  C   UNL     1       3.415   5.611  19.452  0.00  0.00    +0.000 C 
ATOM     16  C   UNL     1       2.551   4.383  19.165  0.00  0.00    +0.000 C 
BRANCH  13  17
ATOM     17  C   UNL     1       4.961   3.887  17.003  0.00  0.00    +0.000 C 
ATOM     18  C   UNL     1       5.973   4.423  16.307  0.00  0.00    +0.000 C 
ATOM     19  I   UNL     1       6.138   4.253  14.277  0.00  0.00    +0.000 I 
ENDBRANCH  13  17
BRANCH  12  20
ATOM     20  O   UNL     1       3.856   2.811  20.403  0.00  0.00    +0.000 OA
ATOM     21  H   UNL     1       3.088   3.062  20.951  0.00  0.00    +0.000 HD
ENDBRANCH  12  20
BRANCH  16  22
ATOM     22  O   UNL     1       1.596   4.126  20.198  0.00  0.00    +0.000 OA
ATOM     23  H   UNL     1       1.941   3.349  20.686  0.00  0.00    +0.000 HD
ENDBRANCH  16  22
ENDBRANCH   1  15
BRANCH   6  24
ATOM     24  C   UNL     1      -0.119  12.054  18.985  0.00  0.00    +0.000 C 
ATOM     25  C   UNL     1      -0.391  13.263  18.136  0.00  0.00    +0.000 C 
ATOM     26  C   UNL     1      -1.452  12.217  18.296  0.00  0.00    +0.000 C 
ENDBRANCH   6  24
TORSDOF 5
ENDMDL
MODEL 2
REMARK VINA RESULT:      -6.7      3.873      7.473
REMARK  Name = 
REMARK  5 active torsions:
REMARK  status: ('A' for Active; 'I' for Inactive)
REMARK    1  A    between atoms: O_1  and  C_2
REMARK    2  A    between atoms: C_3  and  C_4
REMARK    3  A    between atoms: C_8  and  N_9
REMARK    4  A    between atoms: N_14  and  C_15
REMARK    5  A    between atoms: C_22  and  O_23
REMARK                            x       y       z     vdW  Elec       q    Type
REMARK                         _______ _______ _______ _____ _____    ______ ____
ROOT
ATOM      1  N   UNL     1       1.305   9.581  19.100  0.00  0.00    +0.000 N 
ATOM      2  C   UNL     1       1.827   9.764  17.841  0.00  0.00    +0.000 A 
ATOM      3  N   UNL     1       2.505   8.708  17.437  0.00  0.00    +0.000 NA
ATOM      4  C   UNL     1       2.423   7.803  18.481  0.00  0.00    +0.000 A 
ATOM      5  C   UNL     1       2.912   6.488  18.653  0.00  0.00    +0.000 A 
ATOM      6  N   UNL     1       3.634   5.843  17.637  0.00  0.00    +0.000 N 
ATOM      7  N   UNL     1       2.638   5.862  19.831  0.00  0.00    +0.000 NA
ATOM      8  C   UNL     1       1.902   6.512  20.758  0.00  0.00    +0.000 A 
ATOM      9  N   UNL     1       1.381   7.749  20.692  0.00  0.00    +0.000 NA
ATOM     10  C   UNL     1       1.689   8.341  19.525  0.00  0.00    +0.000 A 
ATOM     11  H   UNL     1       3.722   6.400  16.794  0.00  0.00    +0.000 HD
ENDROOT
BRANCH   1  15
ATOM     12  C   UNL     1      -0.751  12.543  19.614  0.00  0.00    +0.000 C 
ATOM     13  C   UNL     1      -1.692  11.371  19.299  0.00  0.00    +0.000 C 
ATOM     14  O   UNL     1      -0.947  10.154  19.498  0.00  0.00    +0.000 OA
ATOM     15  C   UNL     1       0.420  10.498  19.793  0.00  0.00    +0.000 C 
ATOM     16  C   UNL     1       0.629  11.958  19.391  0.00  0.00    +0.000 C 
BRANCH  13  17
ATOM     17  C   UNL     1      -2.226  11.371  17.896  0.00  0.00    +0.000 C 
ATOM     18  C   UNL     1      -2.395  10.260  17.165  0.00  0.00    +0.000 C 
ATOM     19  I   UNL     1      -3.115  10.287  15.252  0.00  0.00    +0.000 I 
ENDBRANCH  13  17
BRANCH  12  20
ATOM     20  O   UNL     1      -0.850  12.921  21.001  0.00  0.00    +0.000 OA
ATOM     21  H   UNL     1      -0.491  12.178  21.524  0.00  0.00    +0.000 HD
ENDBRANCH  12  20
BRANCH  16  22
ATOM     22  O   UNL     1       1.623  12.612  20.183  0.00  0.00    +0.000 OA
ATOM     23  H   UNL     1       2.484  12.348  19.794  0.00  0.00    +0.000 HD
ENDBRANCH  16  22
ENDBRANCH   1  15
BRANCH   6  24
ATOM     24  C   UNL     1       4.226   4.525  17.782  0.00  0.00    +0.000 C 
ATOM     25  C   UNL     1       3.565   3.276  17.271  0.00  0.00    +0.000 C 
ATOM     26  C   UNL     1       4.769   3.818  16.564  0.00  0.00    +0.000 C 
ENDBRANCH   6  24
TORSDOF 5
ENDMDL
MODEL 3
REMARK VINA RESULT:      -6.4      3.886      7.407
REMARK  Name = 
REMARK  5 active torsions:
REMARK  status: ('A' for Active; 'I' for Inactive)
REMARK    1  A    between atoms: O_1  and  C_2
REMARK    2  A    between atoms: C_3  and  C_4
REMARK    3  A    between atoms: C_8  and  N_9
REMARK    4  A    between atoms: N_14  and  C_15
REMARK    5  A    between atoms: C_22  and  O_23
REMARK                            x       y       z     vdW  Elec       q    Type
REMARK                         _______ _______ _______ _____ _____    ______ ____
ROOT
ATOM      1  N   UNL     1       1.478   8.843  19.297  0.00  0.00    +0.000 N 
ATOM      2  C   UNL     1       1.840   9.507  18.149  0.00  0.00    +0.000 A 
ATOM      3  N   UNL     1       2.684   8.801  17.424  0.00  0.00    +0.000 NA
ATOM      4  C   UNL     1       2.883   7.630  18.135  0.00  0.00    +0.000 A 
ATOM      5  C   UNL     1       3.647   6.469  17.879  0.00  0.00    +0.000 A 
ATOM      6  N   UNL     1       4.396   6.339  16.700  0.00  0.00    +0.000 N 
ATOM      7  N   UNL     1       3.612   5.474  18.809  0.00  0.00    +0.000 NA
ATOM      8  C   UNL     1       2.840   5.633  19.905  0.00  0.00    +0.000 A 
ATOM      9  N   UNL     1       2.070   6.683  20.237  0.00  0.00    +0.000 NA
ATOM     10  C   UNL     1       2.146   7.652  19.308  0.00  0.00    +0.000 A 
ATOM     11  H   UNL     1       4.293   7.127  16.071  0.00  0.00    +0.000 HD
ENDROOT
BRANCH   1  15
ATOM     12  C   UNL     1      -0.133  11.047  21.709  0.00  0.00    +0.000 C 
ATOM     13  C   UNL     1      -0.897  11.168  20.382  0.00  0.00    +0.000 C 
ATOM     14  O   UNL     1      -0.540  10.032  19.572  0.00  0.00    +0.000 OA
ATOM     15  C   UNL     1       0.485   9.287  20.258  0.00  0.00    +0.000 C 
ATOM     16  C   UNL     1       1.063  10.187  21.350  0.00  0.00    +0.000 C 
BRANCH  13  17
ATOM     17  C   UNL     1      -0.587  12.415  19.605  0.00  0.00    +0.000 C 
ATOM     18  C   UNL     1      -0.162  13.554  20.167  0.00  0.00    +0.000 C 
ATOM     19  I   UNL     1       0.244  15.242  19.087  0.00  0.00    +0.000 I 
ENDBRANCH  13  17
BRANCH  12  20
ATOM     20  O   UNL     1      -0.912  10.332  22.687  0.00  0.00    +0.000 OA
ATOM     21  H   UNL     1      -0.320  10.145  23.440  0.00  0.00    +0.000 HD
ENDBRANCH  12  20
BRANCH  16  22
ATOM     22  O   UNL     1       1.549   9.449  22.474  0.00  0.00    +0.000 OA
ATOM     23  H   UNL     1       1.137   8.562  22.402  0.00  0.00    +0.000 HD
ENDBRANCH  16  22
ENDBRANCH   1  15
BRANCH   6  24
ATOM     24  C   UNL     1       5.260   5.206  16.416  0.00  0.00    +0.000 C 
ATOM     25  C   UNL     1       5.613   4.784  15.018  0.00  0.00    +0.000 C 
ATOM     26  C   UNL     1       6.647   5.449  15.874  0.00  0.00    +0.000 C 
ENDBRANCH   6  24
TORSDOF 5
ENDMDL
MODEL 4
REMARK VINA RESULT:      -6.3      4.579      8.210
REMARK  Name = 
REMARK  5 active torsions:
REMARK  status: ('A' for Active; 'I' for Inactive)
REMARK    1  A    between atoms: O_1  and  C_2
REMARK    2  A    between atoms: C_3  and  C_4
REMARK    3  A    between atoms: C_8  and  N_9
REMARK    4  A    between atoms: N_14  and  C_15
REMARK    5  A    between atoms: C_22  and  O_23
REMARK                            x       y       z     vdW  Elec       q    Type
REMARK                         _______ _______ _______ _____ _____    ______ ____
ROOT
ATOM      1  N   UNL     1       1.015   9.467  19.415  0.00  0.00    +0.000 N 
ATOM      2  C   UNL     1       0.766   8.943  20.661  0.00  0.00    +0.000 A 
ATOM      3  N   UNL     1       1.384   7.792  20.838  0.00  0.00    +0.000 NA
ATOM      4  C   UNL     1       2.060   7.558  19.653  0.00  0.00    +0.000 A 
ATOM      5  C   UNL     1       2.918   6.519  19.226  0.00  0.00    +0.000 A 
ATOM      6  N   UNL     1       3.244   5.451  20.076  0.00  0.00    +0.000 N 
ATOM      7  N   UNL     1       3.433   6.603  17.967  0.00  0.00    +0.000 NA
ATOM      8  C   UNL     1       3.121   7.674  17.207  0.00  0.00    +0.000 A 
ATOM      9  N   UNL     1       2.332   8.716  17.517  0.00  0.00    +0.000 NA
ATOM     10  C   UNL     1       1.827   8.588  18.757  0.00  0.00    +0.000 A 
ATOM     11  H   UNL     1       2.837   5.537  21.001  0.00  0.00    +0.000 HD
ENDROOT
BRANCH   1  15
ATOM     12  C   UNL     1      -1.260  12.242  18.791  0.00  0.00    +0.000 C 
ATOM     13  C   UNL     1      -0.378  12.622  19.990  0.00  0.00    +0.000 C 
ATOM     14  O   UNL     1       0.762  11.741  19.983  0.00  0.00    +0.000 OA
ATOM     15  C   UNL     1       0.580  10.767  18.938  0.00  0.00    +0.000 C 
ATOM     16  C   UNL     1      -0.892  10.796  18.526  0.00  0.00    +0.000 C 
BRANCH  13  17
ATOM     17  C   UNL     1      -1.061  12.496  21.321  0.00  0.00    +0.000 C 
ATOM     18  C   UNL     1      -2.338  12.840  21.536  0.00  0.00    +0.000 C 
ATOM     19  I   UNL     1      -3.243  12.669  23.361  0.00  0.00    +0.000 I 
ENDBRANCH  13  17
BRANCH  12  20
ATOM     20  O   UNL     1      -0.900  13.009  17.626  0.00  0.00    +0.000 OA
ATOM     21  H   UNL     1      -0.177  13.609  17.893  0.00  0.00    +0.000 HD
ENDBRANCH  12  20
BRANCH  16  22
ATOM     22  O   UNL     1      -1.088  10.435  17.156  0.00  0.00    +0.000 OA
ATOM     23  H   UNL     1      -0.414  10.940  16.653  0.00  0.00    +0.000 HD
ENDBRANCH  16  22
ENDBRANCH   1  15
BRANCH   6  24
ATOM     24  C   UNL     1       4.056   4.318  19.670  0.00  0.00    +0.000 C 
ATOM     25  C   UNL     1       3.864   2.937  20.232  0.00  0.00    +0.000 C 
ATOM     26  C   UNL     1       3.440   3.229  18.825  0.00  0.00    +0.000 C 
ENDBRANCH   6  24
TORSDOF 5
ENDMDL
MODEL 5
REMARK VINA RESULT:      -6.3      1.334      2.355
REMARK  Name = 
REMARK  5 active torsions:
REMARK  status: ('A' for Active; 'I' for Inactive)
REMARK    1  A    between atoms: O_1  and  C_2
REMARK    2  A    between atoms: C_3  and  C_4
REMARK    3  A    between atoms: C_8  and  N_9
REMARK    4  A    between atoms: N_14  and  C_15
REMARK    5  A    between atoms: C_22  and  O_23
REMARK                            x       y       z     vdW  Elec       q    Type
REMARK                         _______ _______ _______ _____ _____    ______ ____
ROOT
ATOM      1  N   UNL     1       2.328   5.373  19.850  0.00  0.00    +0.000 N 
ATOM      2  C   UNL     1       1.619   5.750  20.965  0.00  0.00    +0.000 A 
ATOM      3  N   UNL     1       1.300   7.029  20.930  0.00  0.00    +0.000 NA
ATOM      4  C   UNL     1       1.831   7.502  19.742  0.00  0.00    +0.000 A 
ATOM      5  C   UNL     1       1.807   8.770  19.118  0.00  0.00    +0.000 A 
ATOM      6  N   UNL     1       1.139   9.856  19.705  0.00  0.00    +0.000 N 
ATOM      7  N   UNL     1       2.438   8.893  17.917  0.00  0.00    +0.000 NA
ATOM      8  C   UNL     1       3.028   7.806  17.377  0.00  0.00    +0.000 A 
ATOM      9  N   UNL     1       3.098   6.560  17.876  0.00  0.00    +0.000 NA
ATOM     10  C   UNL     1       2.482   6.482  19.069  0.00  0.00    +0.000 A 
ATOM     11  H   UNL     1       0.668   9.616  20.570  0.00  0.00    +0.000 HD
ENDROOT
BRANCH   1  15
ATOM     12  C   UNL     1       2.902   2.431  17.780  0.00  0.00    +0.000 C 
ATOM     13  C   UNL     1       4.254   3.132  17.980  0.00  0.00    +0.000 C 
ATOM     14  O   UNL     1       4.114   4.028  19.099  0.00  0.00    +0.000 OA
ATOM     15  C   UNL     1       2.737   4.019  19.522  0.00  0.00    +0.000 C 
ATOM     16  C   UNL     1       1.910   3.395  18.398  0.00  0.00    +0.000 C 
BRANCH  13  17
ATOM     17  C   UNL     1       4.716   3.929  16.795  0.00  0.00    +0.000 C 
ATOM     18  C   UNL     1       5.817   3.639  16.088  0.00  0.00    +0.000 C 
ATOM     19  I   UNL     1       6.430   4.746  14.482  0.00  0.00    +0.000 I 
ENDBRANCH  13  17
BRANCH  12  20
ATOM     20  O   UNL     1       2.846   1.201  18.528  0.00  0.00    +0.000 OA
ATOM     21  H   UNL     1       3.305   0.523  17.996  0.00  0.00    +0.000 HD
ENDBRANCH  12  20
BRANCH  16  22
ATOM     22  O   UNL     1       0.741   2.726  18.879  0.00  0.00    +0.000 OA
ATOM     23  H   UNL     1       0.022   2.979  18.262  0.00  0.00    +0.000 HD
ENDBRANCH  16  22
ENDBRANCH   1  15
BRANCH   6  24
ATOM     24  C   UNL     1       1.145  11.198  19.152  0.00  0.00    +0.000 C 
ATOM     25  C   UNL     1       0.017  12.169  19.364  0.00  0.00    +0.000 C 
ATOM     26  C   UNL     1       1.319  12.380  20.074  0.00  0.00    +0.000 C 
ENDBRANCH   6  24
TORSDOF 5
ENDMDL
MODEL 6
REMARK VINA RESULT:      -6.3      5.049      8.584
REMARK  Name = 
REMARK  5 active torsions:
REMARK  status: ('A' for Active; 'I' for Inactive)
REMARK    1  A    between atoms: O_1  and  C_2
REMARK    2  A    between atoms: C_3  and  C_4
REMARK    3  A    between atoms: C_8  and  N_9
REMARK    4  A    between atoms: N_14  and  C_15
REMARK    5  A    between atoms: C_22  and  O_23
REMARK                            x       y       z     vdW  Elec       q    Type
REMARK                         _______ _______ _______ _____ _____    ______ ____
ROOT
ATOM      1  N   UNL     1       0.703  10.163  20.343  0.00  0.00    +0.000 N 
ATOM      2  C   UNL     1       0.612   9.531  21.561  0.00  0.00    +0.000 A 
ATOM      3  N   UNL     1       1.152   8.329  21.528  0.00  0.00    +0.000 NA
ATOM      4  C   UNL     1       1.610   8.173  20.231  0.00  0.00    +0.000 A 
ATOM      5  C   UNL     1       2.299   7.127  19.576  0.00  0.00    +0.000 A 
ATOM      6  N   UNL     1       2.665   5.958  20.260  0.00  0.00    +0.000 N 
ATOM      7  N   UNL     1       2.613   7.305  18.262  0.00  0.00    +0.000 NA
ATOM      8  C   UNL     1       2.275   8.467  17.663  0.00  0.00    +0.000 A 
ATOM      9  N   UNL     1       1.635   9.523  18.194  0.00  0.00    +0.000 NA
ATOM     10  C   UNL     1       1.324   9.303  19.483  0.00  0.00    +0.000 A 
ATOM     11  H   UNL     1       2.418   5.976  21.243  0.00  0.00    +0.000 HD
ENDROOT
BRANCH   1  15
ATOM     12  C   UNL     1      -1.538  12.981  19.791  0.00  0.00    +0.000 C 
ATOM     13  C   UNL     1      -0.991  13.092  21.222  0.00  0.00    +0.000 C 
ATOM     14  O   UNL     1       0.173  12.249  21.306  0.00  0.00    +0.000 OA
ATOM     15  C   UNL     1       0.308  11.531  20.064  0.00  0.00    +0.000 C 
ATOM     16  C   UNL     1      -1.023  11.635  19.320  0.00  0.00    +0.000 C 
BRANCH  13  17
ATOM     17  C   UNL     1      -1.960  12.663  22.286  0.00  0.00    +0.000 C 
ATOM     18  C   UNL     1      -2.947  13.442  22.750  0.00  0.00    +0.000 C 
ATOM     19  I   UNL     1      -4.247  12.838  24.207  0.00  0.00    +0.000 I 
ENDBRANCH  13  17
BRANCH  12  20
ATOM     20  O   UNL     1      -0.964  13.993  18.942  0.00  0.00    +0.000 OA
ATOM     21  H   UNL     1      -0.044  13.722  18.759  0.00  0.00    +0.000 HD
ENDBRANCH  12  20
BRANCH  16  22
ATOM     22  O   UNL     1      -0.866  11.588  17.900  0.00  0.00    +0.000 OA
ATOM     23  H   UNL     1      -1.736  11.852  17.531  0.00  0.00    +0.000 HD
ENDBRANCH  16  22
ENDBRANCH   1  15
BRANCH   6  24
ATOM     24  C   UNL     1       3.305   4.820  19.624  0.00  0.00    +0.000 C 
ATOM     25  C   UNL     1       3.242   3.431  20.193  0.00  0.00    +0.000 C 
ATOM     26  C   UNL     1       2.453   3.763  18.965  0.00  0.00    +0.000 C 
ENDBRANCH   6  24
TORSDOF 5
ENDMDL
MODEL 7
REMARK VINA RESULT:      -6.2      4.145      7.864
REMARK  Name = 
REMARK  5 active torsions:
REMARK  status: ('A' for Active; 'I' for Inactive)
REMARK    1  A    between atoms: O_1  and  C_2
REMARK    2  A    between atoms: C_3  and  C_4
REMARK    3  A    between atoms: C_8  and  N_9
REMARK    4  A    between atoms: N_14  and  C_15
REMARK    5  A    between atoms: C_22  and  O_23
REMARK                            x       y       z     vdW  Elec       q    Type
REMARK                         _______ _______ _______ _____ _____    ______ ____
ROOT
ATOM      1  N   UNL     1       0.466  10.125  20.765  0.00  0.00    +0.000 N 
ATOM      2  C   UNL     1       0.652   9.379  21.905  0.00  0.00    +0.000 A 
ATOM      3  N   UNL     1       1.330   8.274  21.659  0.00  0.00    +0.000 NA
ATOM      4  C   UNL     1       1.590   8.304  20.300  0.00  0.00    +0.000 A 
ATOM      5  C   UNL     1       2.293   7.432  19.438  0.00  0.00    +0.000 A 
ATOM      6  N   UNL     1       2.911   6.271  19.926  0.00  0.00    +0.000 N 
ATOM      7  N   UNL     1       2.367   7.772  18.121  0.00  0.00    +0.000 NA
ATOM      8  C   UNL     1       1.792   8.922  17.712  0.00  0.00    +0.000 A 
ATOM      9  N   UNL     1       1.115   9.823  18.444  0.00  0.00    +0.000 NA
ATOM     10  C   UNL     1       1.046   9.445  19.733  0.00  0.00    +0.000 A 
ATOM     11  H   UNL     1       2.824   6.163  20.931  0.00  0.00    +0.000 HD
ENDROOT
BRANCH   1  15
ATOM     12  C   UNL     1      -0.399  13.376  19.370  0.00  0.00    +0.000 C 
ATOM     13  C   UNL     1      -1.617  12.457  19.201  0.00  0.00    +0.000 C 
ATOM     14  O   UNL     1      -1.440  11.337  20.091  0.00  0.00    +0.000 OA
ATOM     15  C   UNL     1      -0.140  11.442  20.702  0.00  0.00    +0.000 C 
ATOM     16  C   UNL     1       0.678  12.444  19.887  0.00  0.00    +0.000 C 
BRANCH  13  17
ATOM     17  C   UNL     1      -1.801  11.926  17.809  0.00  0.00    +0.000 C 
ATOM     18  C   UNL     1      -2.846  11.179  17.430  0.00  0.00    +0.000 C 
ATOM     19  I   UNL     1      -3.068  10.460  15.529  0.00  0.00    +0.000 I 
ENDBRANCH  13  17
BRANCH  12  20
ATOM     20  O   UNL     1      -0.643  14.372  20.382  0.00  0.00    +0.000 OA
ATOM     21  H   UNL     1      -1.330  14.971  20.031  0.00  0.00    +0.000 HD
ENDBRANCH  12  20
BRANCH  16  22
ATOM     22  O   UNL     1       1.650  13.133  20.677  0.00  0.00    +0.000 OA
ATOM     23  H   UNL     1       1.396  12.967  21.609  0.00  0.00    +0.000 HD
ENDBRANCH  16  22
ENDBRANCH   1  15
BRANCH   6  24
ATOM     24  C   UNL     1       3.580   5.298  19.081  0.00  0.00    +0.000 C 
ATOM     25  C   UNL     1       5.039   4.966  19.222  0.00  0.00    +0.000 C 
ATOM     26  C   UNL     1       4.008   3.975  19.667  0.00  0.00    +0.000 C 
ENDBRANCH   6  24
TORSDOF 5
ENDMDL
MODEL 8
REMARK VINA RESULT:      -6.2      4.077      7.586
REMARK  Name = 
REMARK  5 active torsions:
REMARK  status: ('A' for Active; 'I' for Inactive)
REMARK    1  A    between atoms: O_1  and  C_2
REMARK    2  A    between atoms: C_3  and  C_4
REMARK    3  A    between atoms: C_8  and  N_9
REMARK    4  A    between atoms: N_14  and  C_15
REMARK    5  A    between atoms: C_22  and  O_23
REMARK                            x       y       z     vdW  Elec       q    Type
REMARK                         _______ _______ _______ _____ _____    ______ ____
ROOT
ATOM      1  N   UNL     1       1.194   9.563  19.146  0.00  0.00    +0.000 N 
ATOM      2  C   UNL     1       1.716   9.829  17.903  0.00  0.00    +0.000 A 
ATOM      3  N   UNL     1       2.457   8.831  17.462  0.00  0.00    +0.000 NA
ATOM      4  C   UNL     1       2.416   7.879  18.466  0.00  0.00    +0.000 A 
ATOM      5  C   UNL     1       2.978   6.587  18.587  0.00  0.00    +0.000 A 
ATOM      6  N   UNL     1       3.745   6.029  17.553  0.00  0.00    +0.000 N 
ATOM      7  N   UNL     1       2.729   5.897  19.735  0.00  0.00    +0.000 NA
ATOM      8  C   UNL     1       1.949   6.464  20.680  0.00  0.00    +0.000 A 
ATOM      9  N   UNL     1       1.359   7.671  20.660  0.00  0.00    +0.000 NA
ATOM     10  C   UNL     1       1.643   8.330  19.522  0.00  0.00    +0.000 A 
ATOM     11  H   UNL     1       3.809   6.625  16.735  0.00  0.00    +0.000 HD
ENDROOT
BRANCH   1  15
ATOM     12  C   UNL     1       0.020  12.374  21.143  0.00  0.00    +0.000 C 
ATOM     13  C   UNL     1      -0.369  12.644  19.681  0.00  0.00    +0.000 C 
ATOM     14  O   UNL     1      -0.283  11.393  18.973  0.00  0.00    +0.000 OA
ATOM     15  C   UNL     1       0.251  10.398  19.867  0.00  0.00    +0.000 C 
ATOM     16  C   UNL     1       0.879  11.129  21.054  0.00  0.00    +0.000 C 
BRANCH  13  17
ATOM     17  C   UNL     1       0.511  13.640  18.984  0.00  0.00    +0.000 C 
ATOM     18  C   UNL     1       1.251  14.555  19.625  0.00  0.00    +0.000 C 
ATOM     19  I   UNL     1       2.435  15.908  18.652  0.00  0.00    +0.000 I 
ENDBRANCH  13  17
BRANCH  12  20
ATOM     20  O   UNL     1      -1.142  12.053  21.932  0.00  0.00    +0.000 OA
ATOM     21  H   UNL     1      -0.887  12.161  22.868  0.00  0.00    +0.000 HD
ENDBRANCH  12  20
BRANCH  16  22
ATOM     22  O   UNL     1       0.836  10.362  22.260  0.00  0.00    +0.000 OA
ATOM     23  H   UNL     1      -0.005  10.610  22.698  0.00  0.00    +0.000 HD
ENDBRANCH  16  22
ENDBRANCH   1  15
BRANCH   6  24
ATOM     24  C   UNL     1       4.410   4.742  17.649  0.00  0.00    +0.000 C 
ATOM     25  C   UNL     1       3.764   3.458  17.209  0.00  0.00    +0.000 C 
ATOM     26  C   UNL     1       4.870   4.049  16.389  0.00  0.00    +0.000 C 
ENDBRANCH   6  24
TORSDOF 5
ENDMDL
MODEL 9
REMARK VINA RESULT:      -6.1      1.648      2.454
REMARK  Name = 
REMARK  5 active torsions:
REMARK  status: ('A' for Active; 'I' for Inactive)
REMARK    1  A    between atoms: O_1  and  C_2
REMARK    2  A    between atoms: C_3  and  C_4
REMARK    3  A    between atoms: C_8  and  N_9
REMARK    4  A    between atoms: N_14  and  C_15
REMARK    5  A    between atoms: C_22  and  O_23
REMARK                            x       y       z     vdW  Elec       q    Type
REMARK                         _______ _______ _______ _____ _____    ______ ____
ROOT
ATOM      1  N   UNL     1       2.204   5.625  19.853  0.00  0.00    +0.000 N 
ATOM      2  C   UNL     1       1.518   5.899  21.012  0.00  0.00    +0.000 A 
ATOM      3  N   UNL     1       1.164   7.168  21.081  0.00  0.00    +0.000 NA
ATOM      4  C   UNL     1       1.647   7.742  19.917  0.00  0.00    +0.000 A 
ATOM      5  C   UNL     1       1.571   9.051  19.389  0.00  0.00    +0.000 A 
ATOM      6  N   UNL     1       0.891  10.071  20.073  0.00  0.00    +0.000 N 
ATOM      7  N   UNL     1       2.163   9.279  18.184  0.00  0.00    +0.000 NA
ATOM      8  C   UNL     1       2.766   8.252  17.549  0.00  0.00    +0.000 A 
ATOM      9  N   UNL     1       2.883   6.976  17.953  0.00  0.00    +0.000 NA
ATOM     10  C   UNL     1       2.305   6.793  19.153  0.00  0.00    +0.000 A 
ATOM     11  H   UNL     1       0.453   9.755  20.931  0.00  0.00    +0.000 HD
ENDROOT
BRANCH   1  15
ATOM     12  C   UNL     1       3.490   3.081  17.585  0.00  0.00    +0.000 C 
ATOM     13  C   UNL     1       4.639   3.504  18.513  0.00  0.00    +0.000 C 
ATOM     14  O   UNL     1       4.056   4.180  19.643  0.00  0.00    +0.000 OA
ATOM     15  C   UNL     1       2.639   4.312  19.415  0.00  0.00    +0.000 C 
ATOM     16  C   UNL     1       2.382   4.056  17.930  0.00  0.00    +0.000 C 
BRANCH  13  17
ATOM     17  C   UNL     1       5.636   4.428  17.876  0.00  0.00    +0.000 C 
ATOM     18  C   UNL     1       6.014   5.596  18.412  0.00  0.00    +0.000 C 
ATOM     19  I   UNL     1       7.367   6.842  17.520  0.00  0.00    +0.000 I 
ENDBRANCH  13  17
BRANCH  12  20
ATOM     20  O   UNL     1       3.028   1.756  17.912  0.00  0.00    +0.000 OA
ATOM     21  H   UNL     1       2.267   1.570  17.330  0.00  0.00    +0.000 HD
ENDBRANCH  12  20
BRANCH  16  22
ATOM     22  O   UNL     1       1.086   3.505  17.681  0.00  0.00    +0.000 OA
ATOM     23  H   UNL     1       0.996   2.756  18.309  0.00  0.00    +0.000 HD
ENDBRANCH  16  22
ENDBRANCH   1  15
BRANCH   6  24
ATOM     24  C   UNL     1       0.845  11.450  19.621  0.00  0.00    +0.000 C 
ATOM     25  C   UNL     1      -0.316  12.013  18.850  0.00  0.00    +0.000 C 
ATOM     26  C   UNL     1      -0.112  12.414  20.279  0.00  0.00    +0.000 C 
ENDBRANCH   6  24
TORSDOF 5
ENDMDL
