MODEL 1
REMARK VINA RESULT:      -7.7      0.000      0.000
REMARK  Name = 
REMARK  9 active torsions:
REMARK  status: ('A' for Active; 'I' for Inactive)
REMARK    1  A    between atoms: C_1  and  C_2
REMARK    2  A    between atoms: C_5  and  S_6
REMARK    3  A    between atoms: S_6  and  N_9
REMARK    4  A    between atoms: N_9  and  C_10
REMARK    5  A    between atoms: C_10  and  C_11
REMARK    6  A    between atoms: C_10  and  C_13
REMARK    7  A    between atoms: C_11  and  O_12
REMARK    8  A    between atoms: N_15  and  C_16
REMARK    9  A    between atoms: C_19  and  N_20
REMARK                            x       y       z     vdW  Elec       q    Type
REMARK                         _______ _______ _______ _____ _____    ______ ____
ROOT
ATOM      1  C   UNL     1       2.671   3.030  19.950  0.00  0.00    +0.000 C 
ENDROOT
BRANCH   1   2
ATOM      2  C   UNL     1       1.836   4.303  20.001  0.00  0.00    +0.000 C 
ATOM      3  O   UNL     1       0.621   4.230  20.189  0.00  0.00    +0.000 OA
ATOM      4  N   UNL     1       2.597   5.462  19.934  0.00  0.00    +0.000 N 
ATOM      5  H   UNL     1       3.559   5.334  19.645  0.00  0.00    +0.000 HD
BRANCH   4   6
ATOM      6  C   UNL     1       2.119   6.779  19.892  0.00  0.00    +0.000 A 
ATOM      7  C   UNL     1       1.485   7.380  20.966  0.00  0.00    +0.000 A 
ATOM      8  C   UNL     1       0.997   8.682  20.854  0.00  0.00    +0.000 A 
ATOM      9  C   UNL     1       1.138   9.447  19.686  0.00  0.00    +0.000 A 
ATOM     10  C   UNL     1       1.772   8.813  18.609  0.00  0.00    +0.000 A 
ATOM     11  C   UNL     1       2.263   7.500  18.708  0.00  0.00    +0.000 A 
BRANCH   9  12
ATOM     12  N   UNL     1       0.598  10.722  19.616  0.00  0.00    +0.000 N 
ATOM     13  C   UNL     1      -0.794  10.896  19.149  0.00  0.00    +0.000 C 
ATOM     14  C   UNL     1      -0.928  12.274  18.487  0.00  0.00    +0.000 C 
ATOM     15  O   UNL     1      -0.572  13.325  19.400  0.00  0.00    +0.000 OA
ATOM     16  C   UNL     1       0.788  13.158  19.838  0.00  0.00    +0.000 C 
ATOM     17  C   UNL     1       1.013  11.801  20.530  0.00  0.00    +0.000 C 
ENDBRANCH   9  12
ENDBRANCH   4   6
ENDBRANCH   1   2
BRANCH   1  18
ATOM     18  N   UNL     1       3.995   3.200  19.313  0.00  0.00    +0.000 NA
ATOM     19  H   UNL     1       4.763   3.538  19.899  0.00  0.00    +0.000 HD
BRANCH  18  20
ATOM     20  S   UNL     1       4.124   3.493  17.671  0.00  0.00    +0.000 S 
ATOM     21  O   UNL     1       2.824   3.990  17.279  0.00  0.00    +0.000 OA
ATOM     22  O   UNL     1       4.697   2.332  17.032  0.00  0.00    +0.000 OA
BRANCH  20  27
ATOM     23  C   UNL     1       7.949   8.179  17.603  0.00  0.00    +0.000 C 
ATOM     24  C   UNL     1       7.019   7.002  17.572  0.00  0.00    +0.000 A 
ATOM     25  C   UNL     1       5.826   7.052  16.841  0.00  0.00    +0.000 A 
ATOM     26  C   UNL     1       4.957   5.961  16.836  0.00  0.00    +0.000 A 
ATOM     27  C   UNL     1       5.291   4.810  17.554  0.00  0.00    +0.000 A 
ATOM     28  C   UNL     1       6.473   4.750  18.295  0.00  0.00    +0.000 A 
ATOM     29  C   UNL     1       7.334   5.846  18.299  0.00  0.00    +0.000 A 
ENDBRANCH  20  27
ENDBRANCH  18  20
ENDBRANCH   1  18
BRANCH   1  30
ATOM     30  C   UNL     1       2.856   2.573  21.410  0.00  0.00    +0.000 C 
BRANCH  30  31
ATOM     31  O   UNL     1       2.057   3.358  22.304  0.00  0.00    +0.000 OA
ATOM     32  H   UNL     1       2.247   3.045  23.211  0.00  0.00    +0.000 HD
ENDBRANCH  30  31
ENDBRANCH   1  30
TORSDOF 8
ENDMDL
MODEL 2
REMARK VINA RESULT:      -7.6      1.765      2.508
REMARK  Name = 
REMARK  9 active torsions:
REMARK  status: ('A' for Active; 'I' for Inactive)
REMARK    1  A    between atoms: C_1  and  C_2
REMARK    2  A    between atoms: C_5  and  S_6
REMARK    3  A    between atoms: S_6  and  N_9
REMARK    4  A    between atoms: N_9  and  C_10
REMARK    5  A    between atoms: C_10  and  C_11
REMARK    6  A    between atoms: C_10  and  C_13
REMARK    7  A    between atoms: C_11  and  O_12
REMARK    8  A    between atoms: N_15  and  C_16
REMARK    9  A    between atoms: C_19  and  N_20
REMARK                            x       y       z     vdW  Elec       q    Type
REMARK                         _______ _______ _______ _____ _____    ______ ____
ROOT
ATOM      1  C   UNL     1       4.143   3.659  17.753  0.00  0.00    +0.000 C 
ENDROOT
BRANCH   1   2
ATOM      2  C   UNL     1       3.046   4.677  18.037  0.00  0.00    +0.000 C 
ATOM      3  O   UNL     1       1.864   4.354  17.910  0.00  0.00    +0.000 OA
ATOM      4  N   UNL     1       3.528   5.881  18.534  0.00  0.00    +0.000 N 
ATOM      5  H   UNL     1       4.527   6.019  18.443  0.00  0.00    +0.000 HD
BRANCH   4   6
ATOM      6  C   UNL     1       2.779   7.028  18.827  0.00  0.00    +0.000 A 
ATOM      7  C   UNL     1       2.173   7.233  20.055  0.00  0.00    +0.000 A 
ATOM      8  C   UNL     1       1.409   8.378  20.278  0.00  0.00    +0.000 A 
ATOM      9  C   UNL     1       1.234   9.376  19.306  0.00  0.00    +0.000 A 
ATOM     10  C   UNL     1       1.848   9.140  18.068  0.00  0.00    +0.000 A 
ATOM     11  C   UNL     1       2.616   7.988  17.829  0.00  0.00    +0.000 A 
BRANCH   9  12
ATOM     12  N   UNL     1       0.431  10.474  19.568  0.00  0.00    +0.000 N 
ATOM     13  C   UNL     1       0.973  11.595  20.365  0.00  0.00    +0.000 C 
ATOM     14  C   UNL     1      -0.182  12.281  21.109  0.00  0.00    +0.000 C 
ATOM     15  O   UNL     1      -1.181  12.756  20.191  0.00  0.00    +0.000 OA
ATOM     16  C   UNL     1      -1.714  11.659  19.430  0.00  0.00    +0.000 C 
ATOM     17  C   UNL     1      -0.622  10.917  18.636  0.00  0.00    +0.000 C 
ENDBRANCH   9  12
ENDBRANCH   4   6
ENDBRANCH   1   2
BRANCH   1  18
ATOM     18  N   UNL     1       5.514   4.176  17.954  0.00  0.00    +0.000 NA
ATOM     19  H   UNL     1       5.793   4.420  18.908  0.00  0.00    +0.000 HD
BRANCH  18  20
ATOM     20  S   UNL     1       6.327   4.954  16.716  0.00  0.00    +0.000 S 
ATOM     21  O   UNL     1       5.289   5.402  15.814  0.00  0.00    +0.000 OA
ATOM     22  O   UNL     1       7.397   4.104  16.251  0.00  0.00    +0.000 OA
BRANCH  20  27
ATOM     23  C   UNL     1       9.141   9.729  19.140  0.00  0.00    +0.000 C 
ATOM     24  C   UNL     1       8.404   8.550  18.576  0.00  0.00    +0.000 A 
ATOM     25  C   UNL     1       8.508   7.289  19.175  0.00  0.00    +0.000 A 
ATOM     26  C   UNL     1       7.837   6.193  18.631  0.00  0.00    +0.000 A 
ATOM     27  C   UNL     1       7.049   6.365  17.490  0.00  0.00    +0.000 A 
ATOM     28  C   UNL     1       6.945   7.615  16.877  0.00  0.00    +0.000 A 
ATOM     29  C   UNL     1       7.621   8.704  17.424  0.00  0.00    +0.000 A 
ENDBRANCH  20  27
ENDBRANCH  18  20
ENDBRANCH   1  18
BRANCH   1  30
ATOM     30  C   UNL     1       3.892   2.475  18.705  0.00  0.00    +0.000 C 
BRANCH  30  31
ATOM     31  O   UNL     1       2.960   1.543  18.142  0.00  0.00    +0.000 OA
ATOM     32  H   UNL     1       3.312   0.646  18.310  0.00  0.00    +0.000 HD
ENDBRANCH  30  31
ENDBRANCH   1  30
TORSDOF 8
ENDMDL
MODEL 3
REMARK VINA RESULT:      -7.5      1.558      2.266
REMARK  Name = 
REMARK  9 active torsions:
REMARK  status: ('A' for Active; 'I' for Inactive)
REMARK    1  A    between atoms: C_1  and  C_2
REMARK    2  A    between atoms: C_5  and  S_6
REMARK    3  A    between atoms: S_6  and  N_9
REMARK    4  A    between atoms: N_9  and  C_10
REMARK    5  A    between atoms: C_10  and  C_11
REMARK    6  A    between atoms: C_10  and  C_13
REMARK    7  A    between atoms: C_11  and  O_12
REMARK    8  A    between atoms: N_15  and  C_16
REMARK    9  A    between atoms: C_19  and  N_20
REMARK                            x       y       z     vdW  Elec       q    Type
REMARK                         _______ _______ _______ _____ _____    ______ ____
ROOT
ATOM      1  C   UNL     1       4.178   3.522  18.598  0.00  0.00    +0.000 C 
ENDROOT
BRANCH   1   2
ATOM      2  C   UNL     1       3.046   4.532  18.729  0.00  0.00    +0.000 C 
ATOM      3  O   UNL     1       1.876   4.146  18.707  0.00  0.00    +0.000 OA
ATOM      4  N   UNL     1       3.488   5.824  18.979  0.00  0.00    +0.000 N 
ATOM      5  H   UNL     1       4.477   5.981  18.829  0.00  0.00    +0.000 HD
BRANCH   4   6
ATOM      6  C   UNL     1       2.698   6.976  19.084  0.00  0.00    +0.000 A 
ATOM      7  C   UNL     1       2.542   7.876  18.042  0.00  0.00    +0.000 A 
ATOM      8  C   UNL     1       1.773   9.025  18.216  0.00  0.00    +0.000 A 
ATOM      9  C   UNL     1       1.107   9.319  19.416  0.00  0.00    +0.000 A 
ATOM     10  C   UNL     1       1.289   8.400  20.459  0.00  0.00    +0.000 A 
ATOM     11  C   UNL     1       2.066   7.241  20.298  0.00  0.00    +0.000 A 
BRANCH   9  12
ATOM     12  N   UNL     1       0.388  10.497  19.547  0.00  0.00    +0.000 N 
ATOM     13  C   UNL     1      -0.636  10.837  18.536  0.00  0.00    +0.000 C 
ATOM     14  C   UNL     1      -0.759  12.364  18.447  0.00  0.00    +0.000 C 
ATOM     15  O   UNL     1      -1.105  12.932  19.721  0.00  0.00    +0.000 OA
ATOM     16  C   UNL     1      -0.097  12.610  20.695  0.00  0.00    +0.000 C 
ATOM     17  C   UNL     1       0.086  11.089  20.862  0.00  0.00    +0.000 C 
ENDBRANCH   9  12
ENDBRANCH   4   6
ENDBRANCH   1   2
BRANCH   1  18
ATOM     18  N   UNL     1       5.529   4.121  18.626  0.00  0.00    +0.000 NA
ATOM     19  H   UNL     1       5.854   4.515  19.513  0.00  0.00    +0.000 HD
BRANCH  18  20
ATOM     20  S   UNL     1       6.220   4.743  17.235  0.00  0.00    +0.000 S 
ATOM     21  O   UNL     1       5.104   5.034  16.364  0.00  0.00    +0.000 OA
ATOM     22  O   UNL     1       7.286   3.867  16.809  0.00  0.00    +0.000 OA
BRANCH  20  27
ATOM     23  C   UNL     1       9.000   9.903  18.736  0.00  0.00    +0.000 C 
ATOM     24  C   UNL     1       8.278   8.629  18.406  0.00  0.00    +0.000 A 
ATOM     25  C   UNL     1       8.569   7.444  19.092  0.00  0.00    +0.000 A 
ATOM     26  C   UNL     1       7.908   6.260  18.763  0.00  0.00    +0.000 A 
ATOM     27  C   UNL     1       6.943   6.267  17.753  0.00  0.00    +0.000 A 
ATOM     28  C   UNL     1       6.650   7.440  17.054  0.00  0.00    +0.000 A 
ATOM     29  C   UNL     1       7.317   8.618  17.385  0.00  0.00    +0.000 A 
ENDBRANCH  20  27
ENDBRANCH  18  20
ENDBRANCH   1  18
BRANCH   1  30
ATOM     30  C   UNL     1       4.023   2.541  19.776  0.00  0.00    +0.000 C 
BRANCH  30  31
ATOM     31  O   UNL     1       5.151   1.663  19.873  0.00  0.00    +0.000 OA
ATOM     32  H   UNL     1       4.821   0.805  20.205  0.00  0.00    +0.000 HD
ENDBRANCH  30  31
ENDBRANCH   1  30
TORSDOF 8
ENDMDL
MODEL 4
REMARK VINA RESULT:      -7.5      1.412      1.910
REMARK  Name = 
REMARK  9 active torsions:
REMARK  status: ('A' for Active; 'I' for Inactive)
REMARK    1  A    between atoms: C_1  and  C_2
REMARK    2  A    between atoms: C_5  and  S_6
REMARK    3  A    between atoms: S_6  and  N_9
REMARK    4  A    between atoms: N_9  and  C_10
REMARK    5  A    between atoms: C_10  and  C_11
REMARK    6  A    between atoms: C_10  and  C_13
REMARK    7  A    between atoms: C_11  and  O_12
REMARK    8  A    between atoms: N_15  and  C_16
REMARK    9  A    between atoms: C_19  and  N_20
REMARK                            x       y       z     vdW  Elec       q    Type
REMARK                         _______ _______ _______ _____ _____    ______ ____
ROOT
ATOM      1  C   UNL     1       4.086   3.411  18.472  0.00  0.00    +0.000 C 
ENDROOT
BRANCH   1   2
ATOM      2  C   UNL     1       3.035   4.513  18.444  0.00  0.00    +0.000 C 
ATOM      3  O   UNL     1       1.940   4.300  17.920  0.00  0.00    +0.000 OA
ATOM      4  N   UNL     1       3.413   5.652  19.142  0.00  0.00    +0.000 N 
ATOM      5  H   UNL     1       4.393   5.702  19.390  0.00  0.00    +0.000 HD
BRANCH   4   6
ATOM      6  C   UNL     1       2.696   6.851  19.244  0.00  0.00    +0.000 A 
ATOM      7  C   UNL     1       2.031   7.230  20.399  0.00  0.00    +0.000 A 
ATOM      8  C   UNL     1       1.302   8.419  20.431  0.00  0.00    +0.000 A 
ATOM      9  C   UNL     1       1.221   9.289  19.332  0.00  0.00    +0.000 A 
ATOM     10  C   UNL     1       1.893   8.878  18.173  0.00  0.00    +0.000 A 
ATOM     11  C   UNL     1       2.626   7.681  18.126  0.00  0.00    +0.000 A 
BRANCH   9  12
ATOM     12  N   UNL     1       0.450  10.438  19.406  0.00  0.00    +0.000 N 
ATOM     13  C   UNL     1      -0.784  10.536  18.598  0.00  0.00    +0.000 C 
ATOM     14  C   UNL     1      -1.048  12.013  18.270  0.00  0.00    +0.000 C 
ATOM     15  O   UNL     1      -1.171  12.796  19.469  0.00  0.00    +0.000 OA
ATOM     16  C   UNL     1       0.038  12.708  20.243  0.00  0.00    +0.000 C 
ATOM     17  C   UNL     1       0.375  11.256  20.630  0.00  0.00    +0.000 C 
ENDBRANCH   9  12
ENDBRANCH   4   6
ENDBRANCH   1   2
BRANCH   1  18
ATOM     18  N   UNL     1       5.477   3.899  18.353  0.00  0.00    +0.000 NA
ATOM     19  H   UNL     1       5.984   4.099  19.219  0.00  0.00    +0.000 HD
BRANCH  18  20
ATOM     20  S   UNL     1       5.984   4.718  16.985  0.00  0.00    +0.000 S 
ATOM     21  O   UNL     1       4.765   5.116  16.317  0.00  0.00    +0.000 OA
ATOM     22  O   UNL     1       6.977   3.922  16.304  0.00  0.00    +0.000 OA
BRANCH  20  27
ATOM     23  C   UNL     1       9.009   9.612  18.855  0.00  0.00    +0.000 C 
ATOM     24  C   UNL     1       8.226   8.403  18.434  0.00  0.00    +0.000 A 
ATOM     25  C   UNL     1       8.467   7.155  19.023  0.00  0.00    +0.000 A 
ATOM     26  C   UNL     1       7.750   6.032  18.609  0.00  0.00    +0.000 A 
ATOM     27  C   UNL     1       6.779   6.162  17.613  0.00  0.00    +0.000 A 
ATOM     28  C   UNL     1       6.536   7.398  17.011  0.00  0.00    +0.000 A 
ATOM     29  C   UNL     1       7.260   8.515  17.426  0.00  0.00    +0.000 A 
ENDBRANCH  20  27
ENDBRANCH  18  20
ENDBRANCH   1  18
BRANCH   1  30
ATOM     30  C   UNL     1       3.909   2.677  19.815  0.00  0.00    +0.000 C 
BRANCH  30  31
ATOM     31  O   UNL     1       2.563   2.790  20.295  0.00  0.00    +0.000 OA
ATOM     32  H   UNL     1       2.013   2.190  19.753  0.00  0.00    +0.000 HD
ENDBRANCH  30  31
ENDBRANCH   1  30
TORSDOF 8
ENDMDL
MODEL 5
REMARK VINA RESULT:      -7.4      3.347      8.627
REMARK  Name = 
REMARK  9 active torsions:
REMARK  status: ('A' for Active; 'I' for Inactive)
REMARK    1  A    between atoms: C_1  and  C_2
REMARK    2  A    between atoms: C_5  and  S_6
REMARK    3  A    between atoms: S_6  and  N_9
REMARK    4  A    between atoms: N_9  and  C_10
REMARK    5  A    between atoms: C_10  and  C_11
REMARK    6  A    between atoms: C_10  and  C_13
REMARK    7  A    between atoms: C_11  and  O_12
REMARK    8  A    between atoms: N_15  and  C_16
REMARK    9  A    between atoms: C_19  and  N_20
REMARK                            x       y       z     vdW  Elec       q    Type
REMARK                         _______ _______ _______ _____ _____    ______ ____
ROOT
ATOM      1  C   UNL     1      -0.317  10.854  21.695  0.00  0.00    +0.000 C 
ENDROOT
BRANCH   1   2
ATOM      2  C   UNL     1       0.835   9.918  21.353  0.00  0.00    +0.000 C 
ATOM      3  O   UNL     1       1.750   9.755  22.161  0.00  0.00    +0.000 OA
ATOM      4  N   UNL     1       0.658   9.242  20.153  0.00  0.00    +0.000 N 
ATOM      5  H   UNL     1      -0.080   9.601  19.559  0.00  0.00    +0.000 HD
BRANCH   4   6
ATOM      6  C   UNL     1       1.565   8.369  19.539  0.00  0.00    +0.000 A 
ATOM      7  C   UNL     1       1.968   7.178  20.120  0.00  0.00    +0.000 A 
ATOM      8  C   UNL     1       2.902   6.365  19.479  0.00  0.00    +0.000 A 
ATOM      9  C   UNL     1       3.455   6.685  18.228  0.00  0.00    +0.000 A 
ATOM     10  C   UNL     1       3.040   7.900  17.666  0.00  0.00    +0.000 A 
ATOM     11  C   UNL     1       2.103   8.730  18.305  0.00  0.00    +0.000 A 
BRANCH   9  12
ATOM     12  N   UNL     1       4.410   5.860  17.655  0.00  0.00    +0.000 N 
ATOM     13  C   UNL     1       5.819   5.970  18.090  0.00  0.00    +0.000 C 
ATOM     14  C   UNL     1       6.732   5.563  16.925  0.00  0.00    +0.000 C 
ATOM     15  O   UNL     1       6.447   4.225  16.485  0.00  0.00    +0.000 OA
ATOM     16  C   UNL     1       5.080   4.130  16.048  0.00  0.00    +0.000 C 
ATOM     17  C   UNL     1       4.087   4.509  17.164  0.00  0.00    +0.000 C 
ENDBRANCH   9  12
ENDBRANCH   4   6
ENDBRANCH   1   2
BRANCH   1  18
ATOM     18  N   UNL     1      -1.469  10.757  20.772  0.00  0.00    +0.000 NA
ATOM     19  H   UNL     1      -1.702   9.832  20.401  0.00  0.00    +0.000 HD
BRANCH  18  20
ATOM     20  S   UNL     1      -1.943  12.072  19.852  0.00  0.00    +0.000 S 
ATOM     21  O   UNL     1      -0.720  12.793  19.576  0.00  0.00    +0.000 OA
ATOM     22  O   UNL     1      -3.056  12.722  20.503  0.00  0.00    +0.000 OA
BRANCH  20  27
ATOM     23  C   UNL     1      -3.764   9.940  14.492  0.00  0.00    +0.000 C 
ATOM     24  C   UNL     1      -3.345  10.434  15.846  0.00  0.00    +0.000 A 
ATOM     25  C   UNL     1      -4.144  11.338  16.555  0.00  0.00    +0.000 A 
ATOM     26  C   UNL     1      -3.736  11.810  17.803  0.00  0.00    +0.000 A 
ATOM     27  C   UNL     1      -2.530  11.362  18.348  0.00  0.00    +0.000 A 
ATOM     28  C   UNL     1      -1.719  10.467  17.647  0.00  0.00    +0.000 A 
ATOM     29  C   UNL     1      -2.131  10.004  16.399  0.00  0.00    +0.000 A 
ENDBRANCH  20  27
ENDBRANCH  18  20
ENDBRANCH   1  18
BRANCH   1  30
ATOM     30  C   UNL     1      -0.766  10.485  23.121  0.00  0.00    +0.000 C 
BRANCH  30  31
ATOM     31  O   UNL     1      -0.790   9.064  23.307  0.00  0.00    +0.000 OA
ATOM     32  H   UNL     1      -1.670   8.751  23.017  0.00  0.00    +0.000 HD
ENDBRANCH  30  31
ENDBRANCH   1  30
TORSDOF 8
ENDMDL
MODEL 6
REMARK VINA RESULT:      -7.3      1.592      2.100
REMARK  Name = 
REMARK  9 active torsions:
REMARK  status: ('A' for Active; 'I' for Inactive)
REMARK    1  A    between atoms: C_1  and  C_2
REMARK    2  A    between atoms: C_5  and  S_6
REMARK    3  A    between atoms: S_6  and  N_9
REMARK    4  A    between atoms: N_9  and  C_10
REMARK    5  A    between atoms: C_10  and  C_11
REMARK    6  A    between atoms: C_10  and  C_13
REMARK    7  A    between atoms: C_11  and  O_12
REMARK    8  A    between atoms: N_15  and  C_16
REMARK    9  A    between atoms: C_19  and  N_20
REMARK                            x       y       z     vdW  Elec       q    Type
REMARK                         _______ _______ _______ _____ _____    ______ ____
ROOT
ATOM      1  C   UNL     1       3.657   3.350  18.157  0.00  0.00    +0.000 C 
ENDROOT
BRANCH   1   2
ATOM      2  C   UNL     1       3.093   4.441  19.058  0.00  0.00    +0.000 C 
ATOM      3  O   UNL     1       2.893   4.206  20.251  0.00  0.00    +0.000 OA
ATOM      4  N   UNL     1       2.964   5.669  18.422  0.00  0.00    +0.000 N 
ATOM      5  H   UNL     1       3.045   5.644  17.413  0.00  0.00    +0.000 HD
BRANCH   4   6
ATOM      6  C   UNL     1       2.418   6.841  18.961  0.00  0.00    +0.000 A 
ATOM      7  C   UNL     1       2.032   6.947  20.287  0.00  0.00    +0.000 A 
ATOM      8  C   UNL     1       1.460   8.127  20.759  0.00  0.00    +0.000 A 
ATOM      9  C   UNL     1       1.270   9.257  19.947  0.00  0.00    +0.000 A 
ATOM     10  C   UNL     1       1.657   9.121  18.607  0.00  0.00    +0.000 A 
ATOM     11  C   UNL     1       2.230   7.935  18.118  0.00  0.00    +0.000 A 
BRANCH   9  12
ATOM     12  N   UNL     1       0.659  10.391  20.459  0.00  0.00    +0.000 N 
ATOM     13  C   UNL     1       0.174  10.386  21.856  0.00  0.00    +0.000 C 
ATOM     14  C   UNL     1      -1.018  11.345  21.972  0.00  0.00    +0.000 C 
ATOM     15  O   UNL     1      -0.653  12.677  21.573  0.00  0.00    +0.000 OA
ATOM     16  C   UNL     1      -0.197  12.677  20.209  0.00  0.00    +0.000 C 
ATOM     17  C   UNL     1       1.013  11.746  20.001  0.00  0.00    +0.000 C 
ENDBRANCH   9  12
ENDBRANCH   4   6
ENDBRANCH   1   2
BRANCH   1  18
ATOM     18  N   UNL     1       5.099   3.497  17.860  0.00  0.00    +0.000 NA
ATOM     19  H   UNL     1       5.754   3.413  18.641  0.00  0.00    +0.000 HD
BRANCH  18  20
ATOM     20  S   UNL     1       5.615   4.393  16.545  0.00  0.00    +0.000 S 
ATOM     21  O   UNL     1       4.401   4.868  15.919  0.00  0.00    +0.000 OA
ATOM     22  O   UNL     1       6.579   3.619  15.800  0.00  0.00    +0.000 OA
BRANCH  20  27
ATOM     23  C   UNL     1       8.796   9.060  18.712  0.00  0.00    +0.000 C 
ATOM     24  C   UNL     1       7.975   7.906  18.217  0.00  0.00    +0.000 A 
ATOM     25  C   UNL     1       8.167   6.619  18.733  0.00  0.00    +0.000 A 
ATOM     26  C   UNL     1       7.415   5.547  18.252  0.00  0.00    +0.000 A 
ATOM     27  C   UNL     1       6.456   5.769  17.259  0.00  0.00    +0.000 A 
ATOM     28  C   UNL     1       6.261   7.046  16.729  0.00  0.00    +0.000 A 
ATOM     29  C   UNL     1       7.020   8.111  17.212  0.00  0.00    +0.000 A 
ENDBRANCH  20  27
ENDBRANCH  18  20
ENDBRANCH   1  18
BRANCH   1  30
ATOM     30  C   UNL     1       3.414   2.016  18.888  0.00  0.00    +0.000 C 
BRANCH  30  31
ATOM     31  O   UNL     1       2.051   1.593  18.758  0.00  0.00    +0.000 OA
ATOM     32  H   UNL     1       1.890   1.429  17.808  0.00  0.00    +0.000 HD
ENDBRANCH  30  31
ENDBRANCH   1  30
TORSDOF 8
ENDMDL
MODEL 7
REMARK VINA RESULT:      -7.3      2.342      2.955
REMARK  Name = 
REMARK  9 active torsions:
REMARK  status: ('A' for Active; 'I' for Inactive)
REMARK    1  A    between atoms: C_1  and  C_2
REMARK    2  A    between atoms: C_5  and  S_6
REMARK    3  A    between atoms: S_6  and  N_9
REMARK    4  A    between atoms: N_9  and  C_10
REMARK    5  A    between atoms: C_10  and  C_11
REMARK    6  A    between atoms: C_10  and  C_13
REMARK    7  A    between atoms: C_11  and  O_12
REMARK    8  A    between atoms: N_15  and  C_16
REMARK    9  A    between atoms: C_19  and  N_20
REMARK                            x       y       z     vdW  Elec       q    Type
REMARK                         _______ _______ _______ _____ _____    ______ ____
ROOT
ATOM      1  C   UNL     1       4.180   3.661  18.232  0.00  0.00    +0.000 C 
ENDROOT
BRANCH   1   2
ATOM      2  C   UNL     1       3.089   4.634  18.661  0.00  0.00    +0.000 C 
ATOM      3  O   UNL     1       2.024   4.202  19.103  0.00  0.00    +0.000 OA
ATOM      4  N   UNL     1       3.483   5.964  18.600  0.00  0.00    +0.000 N 
ATOM      5  H   UNL     1       4.338   6.140  18.086  0.00  0.00    +0.000 HD
BRANCH   4   6
ATOM      6  C   UNL     1       2.690   7.088  18.864  0.00  0.00    +0.000 A 
ATOM      7  C   UNL     1       2.148   7.345  20.113  0.00  0.00    +0.000 A 
ATOM      8  C   UNL     1       1.335   8.461  20.309  0.00  0.00    +0.000 A 
ATOM      9  C   UNL     1       1.046   9.379  19.286  0.00  0.00    +0.000 A 
ATOM     10  C   UNL     1       1.596   9.090  18.029  0.00  0.00    +0.000 A 
ATOM     11  C   UNL     1       2.412   7.967  17.818  0.00  0.00    +0.000 A 
BRANCH   9  12
ATOM     12  N   UNL     1       0.199  10.449  19.526  0.00  0.00    +0.000 N 
ATOM     13  C   UNL     1      -0.995  10.635  18.675  0.00  0.00    +0.000 C 
ATOM     14  C   UNL     1      -1.336  12.130  18.615  0.00  0.00    +0.000 C 
ATOM     15  O   UNL     1      -1.571  12.661  19.930  0.00  0.00    +0.000 OA
ATOM     16  C   UNL     1      -0.400  12.491  20.748  0.00  0.00    +0.000 C 
ATOM     17  C   UNL     1       0.009  11.012  20.875  0.00  0.00    +0.000 C 
ENDBRANCH   9  12
ENDBRANCH   4   6
ENDBRANCH   1   2
BRANCH   1  18
ATOM     18  N   UNL     1       5.499   3.923  18.847  0.00  0.00    +0.000 NA
ATOM     19  H   UNL     1       5.572   3.840  19.865  0.00  0.00    +0.000 HD
BRANCH  18  20
ATOM     20  S   UNL     1       6.610   4.923  18.098  0.00  0.00    +0.000 S 
ATOM     21  O   UNL     1       7.902   4.411  18.499  0.00  0.00    +0.000 OA
ATOM     22  O   UNL     1       6.248   6.298  18.349  0.00  0.00    +0.000 OA
BRANCH  20  27
ATOM     23  C   UNL     1       6.115   3.525  12.233  0.00  0.00    +0.000 C 
ATOM     24  C   UNL     1       6.210   3.917  13.678  0.00  0.00    +0.000 A 
ATOM     25  C   UNL     1       7.165   4.848  14.105  0.00  0.00    +0.000 A 
ATOM     26  C   UNL     1       7.261   5.190  15.454  0.00  0.00    +0.000 A 
ATOM     27  C   UNL     1       6.388   4.607  16.377  0.00  0.00    +0.000 A 
ATOM     28  C   UNL     1       5.438   3.671  15.966  0.00  0.00    +0.000 A 
ATOM     29  C   UNL     1       5.351   3.330  14.617  0.00  0.00    +0.000 A 
ENDBRANCH  20  27
ENDBRANCH  18  20
ENDBRANCH   1  18
BRANCH   1  30
ATOM     30  C   UNL     1       3.691   2.257  18.637  0.00  0.00    +0.000 C 
BRANCH  30  31
ATOM     31  O   UNL     1       2.707   1.765  17.718  0.00  0.00    +0.000 OA
ATOM     32  H   UNL     1       3.043   1.938  16.816  0.00  0.00    +0.000 HD
ENDBRANCH  30  31
ENDBRANCH   1  30
TORSDOF 8
ENDMDL
MODEL 8
REMARK VINA RESULT:      -7.2      3.753      6.959
REMARK  Name = 
REMARK  9 active torsions:
REMARK  status: ('A' for Active; 'I' for Inactive)
REMARK    1  A    between atoms: C_1  and  C_2
REMARK    2  A    between atoms: C_5  and  S_6
REMARK    3  A    between atoms: S_6  and  N_9
REMARK    4  A    between atoms: N_9  and  C_10
REMARK    5  A    between atoms: C_10  and  C_11
REMARK    6  A    between atoms: C_10  and  C_13
REMARK    7  A    between atoms: C_11  and  O_12
REMARK    8  A    between atoms: N_15  and  C_16
REMARK    9  A    between atoms: C_19  and  N_20
REMARK                            x       y       z     vdW  Elec       q    Type
REMARK                         _______ _______ _______ _____ _____    ______ ____
ROOT
ATOM      1  C   UNL     1       6.040   3.976  16.186  0.00  0.00    +0.000 C 
ENDROOT
BRANCH   1   2
ATOM      2  C   UNL     1       6.862   5.257  16.245  0.00  0.00    +0.000 C 
ATOM      3  O   UNL     1       7.562   5.578  15.284  0.00  0.00    +0.000 OA
ATOM      4  N   UNL     1       6.631   6.007  17.391  0.00  0.00    +0.000 N 
ATOM      5  H   UNL     1       6.131   5.527  18.130  0.00  0.00    +0.000 HD
BRANCH   4   6
ATOM      6  C   UNL     1       7.278   7.192  17.763  0.00  0.00    +0.000 A 
ATOM      7  C   UNL     1       7.018   8.410  17.156  0.00  0.00    +0.000 A 
ATOM      8  C   UNL     1       7.720   9.551  17.543  0.00  0.00    +0.000 A 
ATOM      9  C   UNL     1       8.687   9.539  18.561  0.00  0.00    +0.000 A 
ATOM     10  C   UNL     1       8.939   8.293  19.152  0.00  0.00    +0.000 A 
ATOM     11  C   UNL     1       8.243   7.136  18.767  0.00  0.00    +0.000 A 
BRANCH   9  12
ATOM     12  N   UNL     1       9.382  10.695  18.878  0.00  0.00    +0.000 N 
ATOM     13  C   UNL     1       9.314  11.856  17.965  0.00  0.00    +0.000 C 
ATOM     14  C   UNL     1      10.614  12.662  18.087  0.00  0.00    +0.000 C 
ATOM     15  O   UNL     1      10.828  13.100  19.440  0.00  0.00    +0.000 OA
ATOM     16  C   UNL     1      10.910  11.965  20.319  0.00  0.00    +0.000 C 
ATOM     17  C   UNL     1       9.635  11.101  20.272  0.00  0.00    +0.000 C 
ENDBRANCH   9  12
ENDBRANCH   4   6
ENDBRANCH   1   2
BRANCH   1  18
ATOM     18  N   UNL     1       4.643   4.132  16.648  0.00  0.00    +0.000 NA
ATOM     19  H   UNL     1       4.089   4.886  16.234  0.00  0.00    +0.000 HD
BRANCH  18  20
ATOM     20  S   UNL     1       4.181   3.614  18.170  0.00  0.00    +0.000 S 
ATOM     21  O   UNL     1       5.414   3.512  18.918  0.00  0.00    +0.000 OA
ATOM     22  O   UNL     1       3.302   2.477  18.031  0.00  0.00    +0.000 OA
BRANCH  20  27
ATOM     23  C   UNL     1       1.278   8.330  20.604  0.00  0.00    +0.000 C 
ATOM     24  C   UNL     1       1.951   7.143  19.981  0.00  0.00    +0.000 A 
ATOM     25  C   UNL     1       1.914   5.890  20.606  0.00  0.00    +0.000 A 
ATOM     26  C   UNL     1       2.562   4.797  20.031  0.00  0.00    +0.000 A 
ATOM     27  C   UNL     1       3.237   4.956  18.817  0.00  0.00    +0.000 A 
ATOM     28  C   UNL     1       3.290   6.201  18.189  0.00  0.00    +0.000 A 
ATOM     29  C   UNL     1       2.645   7.290  18.772  0.00  0.00    +0.000 A 
ENDBRANCH  20  27
ENDBRANCH  18  20
ENDBRANCH   1  18
BRANCH   1  30
ATOM     30  C   UNL     1       6.050   3.522  14.714  0.00  0.00    +0.000 C 
BRANCH  30  31
ATOM     31  O   UNL     1       5.320   4.435  13.884  0.00  0.00    +0.000 OA
ATOM     32  H   UNL     1       5.885   4.635  13.111  0.00  0.00    +0.000 HD
ENDBRANCH  30  31
ENDBRANCH   1  30
TORSDOF 8
ENDMDL
MODEL 9
REMARK VINA RESULT:      -7.2      1.694      2.167
REMARK  Name = 
REMARK  9 active torsions:
REMARK  status: ('A' for Active; 'I' for Inactive)
REMARK    1  A    between atoms: C_1  and  C_2
REMARK    2  A    between atoms: C_5  and  S_6
REMARK    3  A    between atoms: S_6  and  N_9
REMARK    4  A    between atoms: N_9  and  C_10
REMARK    5  A    between atoms: C_10  and  C_11
REMARK    6  A    between atoms: C_10  and  C_13
REMARK    7  A    between atoms: C_11  and  O_12
REMARK    8  A    between atoms: N_15  and  C_16
REMARK    9  A    between atoms: C_19  and  N_20
REMARK                            x       y       z     vdW  Elec       q    Type
REMARK                         _______ _______ _______ _____ _____    ______ ____
ROOT
ATOM      1  C   UNL     1       3.648   3.676  17.874  0.00  0.00    +0.000 C 
ENDROOT
BRANCH   1   2
ATOM      2  C   UNL     1       2.614   4.783  18.034  0.00  0.00    +0.000 C 
ATOM      3  O   UNL     1       1.429   4.552  17.790  0.00  0.00    +0.000 OA
ATOM      4  N   UNL     1       3.139   5.953  18.565  0.00  0.00    +0.000 N 
ATOM      5  H   UNL     1       4.150   6.009  18.576  0.00  0.00    +0.000 HD
BRANCH   4   6
ATOM      6  C   UNL     1       2.460   7.162  18.769  0.00  0.00    +0.000 A 
ATOM      7  C   UNL     1       2.260   8.088  17.758  0.00  0.00    +0.000 A 
ATOM      8  C   UNL     1       1.608   9.291  18.028  0.00  0.00    +0.000 A 
ATOM      9  C   UNL     1       1.108   9.615  19.299  0.00  0.00    +0.000 A 
ATOM     10  C   UNL     1       1.332   8.667  20.307  0.00  0.00    +0.000 A 
ATOM     11  C   UNL     1       1.992   7.454  20.049  0.00  0.00    +0.000 A 
BRANCH   9  12
ATOM     12  N   UNL     1       0.504  10.843  19.520  0.00  0.00    +0.000 N 
ATOM     13  C   UNL     1      -0.153  11.105  20.818  0.00  0.00    +0.000 C 
ATOM     14  C   UNL     1      -1.294  12.109  20.605  0.00  0.00    +0.000 C 
ATOM     15  O   UNL     1      -0.806  13.335  20.034  0.00  0.00    +0.000 OA
ATOM     16  C   UNL     1      -0.183  13.074  18.765  0.00  0.00    +0.000 C 
ATOM     17  C   UNL     1       0.989  12.081  18.886  0.00  0.00    +0.000 C 
ENDBRANCH   9  12
ENDBRANCH   4   6
ENDBRANCH   1   2
BRANCH   1  18
ATOM     18  N   UNL     1       5.050   4.140  17.965  0.00  0.00    +0.000 NA
ATOM     19  H   UNL     1       5.384   4.460  18.877  0.00  0.00    +0.000 HD
BRANCH  18  20
ATOM     20  S   UNL     1       5.838   4.753  16.623  0.00  0.00    +0.000 S 
ATOM     21  O   UNL     1       4.792   5.338  15.813  0.00  0.00    +0.000 OA
ATOM     22  O   UNL     1       6.710   3.735  16.086  0.00  0.00    +0.000 OA
BRANCH  20  27
ATOM     23  C   UNL     1       8.990   9.288  19.090  0.00  0.00    +0.000 C 
ATOM     24  C   UNL     1       8.245   8.160  18.439  0.00  0.00    +0.000 A 
ATOM     25  C   UNL     1       7.424   8.392  17.330  0.00  0.00    +0.000 A 
ATOM     26  C   UNL     1       6.717   7.341  16.745  0.00  0.00    +0.000 A 
ATOM     27  C   UNL     1       6.846   6.050  17.265  0.00  0.00    +0.000 A 
ATOM     28  C   UNL     1       7.655   5.807  18.377  0.00  0.00    +0.000 A 
ATOM     29  C   UNL     1       8.353   6.863  18.959  0.00  0.00    +0.000 A 
ENDBRANCH  20  27
ENDBRANCH  18  20
ENDBRANCH   1  18
BRANCH   1  30
ATOM     30  C   UNL     1       3.368   2.657  18.995  0.00  0.00    +0.000 C 
BRANCH  30  31
ATOM     31  O   UNL     1       3.049   1.367  18.457  0.00  0.00    +0.000 OA
ATOM     32  H   UNL     1       2.997   1.465  17.485  0.00  0.00    +0.000 HD
ENDBRANCH  30  31
ENDBRANCH   1  30
TORSDOF 8
ENDMDL
