MODEL 1
REMARK VINA RESULT:      -6.8      0.000      0.000
REMARK  Name = 
REMARK  4 active torsions:
REMARK  status: ('A' for Active; 'I' for Inactive)
REMARK    1  A    between atoms: O_1  and  N_2
REMARK    2  A    between atoms: C_3  and  C_4
REMARK    3  A    between atoms: N_8  and  C_9
REMARK    4  A    between atoms: C_9  and  C_10
REMARK                            x       y       z     vdW  Elec       q    Type
REMARK                         _______ _______ _______ _____ _____    ______ ____
ROOT
ATOM      1  C   UNL     1       6.944   5.210  17.256  0.00  0.00    +0.000 C 
ATOM      2  N   UNL     1       7.710   4.659  16.343  0.00  0.00    +0.000 NA
ATOM      3  C   UNL     1       6.776   4.396  15.205  0.00  0.00    +0.000 C 
ATOM      4  C   UNL     1       5.353   4.532  15.758  0.00  0.00    +0.000 C 
ATOM      5  N   UNL     1       5.608   5.296  16.953  0.00  0.00    +0.000 N 
ENDROOT
BRANCH   1   7
ATOM      6  N   UNL     1       7.243   5.086  19.675  0.00  0.00    +0.000 NA
ATOM      7  C   UNL     1       7.584   5.633  18.552  0.00  0.00    +0.000 C 
BRANCH   6   8
ATOM      8  O   UNL     1       8.013   5.643  20.703  0.00  0.00    +0.000 OA
ATOM      9  H   UNL     1       8.865   5.180  20.599  0.00  0.00    +0.000 HD
ENDBRANCH   6   8
ENDBRANCH   1   7
BRANCH   5  10
ATOM     10  C   UNL     1       4.531   5.777  17.786  0.00  0.00    +0.000 C 
BRANCH  10  11
ATOM     11  C   UNL     1       3.569   4.719  18.287  0.00  0.00    +0.000 A 
ATOM     12  C   UNL     1       3.913   3.713  19.201  0.00  0.00    +0.000 A 
ATOM     13  C   UNL     1       2.970   2.766  19.614  0.00  0.00    +0.000 A 
ATOM     14  C   UNL     1       1.670   2.809  19.118  0.00  0.00    +0.000 A 
ATOM     15  C   UNL     1       1.307   3.799  18.210  0.00  0.00    +0.000 A 
ATOM     16  C   UNL     1       2.249   4.747  17.799  0.00  0.00    +0.000 A 
ENDBRANCH  10  11
ENDBRANCH   5  10
TORSDOF 4
ENDMDL
MODEL 2
REMARK VINA RESULT:      -6.8      0.536      1.329
REMARK  Name = 
REMARK  4 active torsions:
REMARK  status: ('A' for Active; 'I' for Inactive)
REMARK    1  A    between atoms: O_1  and  N_2
REMARK    2  A    between atoms: C_3  and  C_4
REMARK    3  A    between atoms: N_8  and  C_9
REMARK    4  A    between atoms: C_9  and  C_10
REMARK                            x       y       z     vdW  Elec       q    Type
REMARK                         _______ _______ _______ _____ _____    ______ ____
ROOT
ATOM      1  C   UNL     1       6.707   5.378  16.943  0.00  0.00    +0.000 C 
ATOM      2  N   UNL     1       7.584   4.940  16.069  0.00  0.00    +0.000 NA
ATOM      3  C   UNL     1       6.759   4.627  14.862  0.00  0.00    +0.000 C 
ATOM      4  C   UNL     1       5.296   4.597  15.319  0.00  0.00    +0.000 C 
ATOM      5  N   UNL     1       5.392   5.339  16.551  0.00  0.00    +0.000 N 
ENDROOT
BRANCH   1   7
ATOM      6  N   UNL     1       7.456   4.953  19.226  0.00  0.00    +0.000 NA
ATOM      7  C   UNL     1       7.213   5.815  18.292  0.00  0.00    +0.000 C 
BRANCH   6   8
ATOM      8  O   UNL     1       7.941   5.628  20.352  0.00  0.00    +0.000 OA
ATOM      9  H   UNL     1       8.867   5.325  20.392  0.00  0.00    +0.000 HD
ENDBRANCH   6   8
ENDBRANCH   1   7
BRANCH   5  10
ATOM     10  C   UNL     1       4.220   5.678  17.322  0.00  0.00    +0.000 C 
BRANCH  10  11
ATOM     11  C   UNL     1       3.431   4.504  17.866  0.00  0.00    +0.000 A 
ATOM     12  C   UNL     1       2.046   4.351  17.716  0.00  0.00    +0.000 A 
ATOM     13  C   UNL     1       1.385   3.241  18.251  0.00  0.00    +0.000 A 
ATOM     14  C   UNL     1       2.099   2.267  18.945  0.00  0.00    +0.000 A 
ATOM     15  C   UNL     1       3.475   2.398  19.104  0.00  0.00    +0.000 A 
ATOM     16  C   UNL     1       4.135   3.508  18.568  0.00  0.00    +0.000 A 
ENDBRANCH  10  11
ENDBRANCH   5  10
TORSDOF 4
ENDMDL
MODEL 3
REMARK VINA RESULT:      -6.7      0.878      1.377
REMARK  Name = 
REMARK  4 active torsions:
REMARK  status: ('A' for Active; 'I' for Inactive)
REMARK    1  A    between atoms: O_1  and  N_2
REMARK    2  A    between atoms: C_3  and  C_4
REMARK    3  A    between atoms: N_8  and  C_9
REMARK    4  A    between atoms: C_9  and  C_10
REMARK                            x       y       z     vdW  Elec       q    Type
REMARK                         _______ _______ _______ _____ _____    ______ ____
ROOT
ATOM      1  C   UNL     1       6.534   5.211  17.496  0.00  0.00    +0.000 C 
ATOM      2  N   UNL     1       7.388   4.519  16.777  0.00  0.00    +0.000 NA
ATOM      3  C   UNL     1       6.744   4.446  15.430  0.00  0.00    +0.000 C 
ATOM      4  C   UNL     1       5.279   4.859  15.615  0.00  0.00    +0.000 C 
ATOM      5  N   UNL     1       5.362   5.558  16.872  0.00  0.00    +0.000 N 
ENDROOT
BRANCH   1   7
ATOM      6  N   UNL     1       8.004   5.083  19.439  0.00  0.00    +0.000 NA
ATOM      7  C   UNL     1       6.889   5.500  18.930  0.00  0.00    +0.000 C 
BRANCH   6   8
ATOM      8  O   UNL     1       8.088   5.518  20.767  0.00  0.00    +0.000 OA
ATOM      9  H   UNL     1       8.221   4.682  21.251  0.00  0.00    +0.000 HD
ENDBRANCH   6   8
ENDBRANCH   1   7
BRANCH   5  10
ATOM     10  C   UNL     1       4.219   6.242  17.432  0.00  0.00    +0.000 C 
BRANCH  10  11
ATOM     11  C   UNL     1       3.292   5.387  18.273  0.00  0.00    +0.000 A 
ATOM     12  C   UNL     1       2.252   4.607  17.749  0.00  0.00    +0.000 A 
ATOM     13  C   UNL     1       1.433   3.847  18.589  0.00  0.00    +0.000 A 
ATOM     14  C   UNL     1       1.640   3.857  19.966  0.00  0.00    +0.000 A 
ATOM     15  C   UNL     1       2.667   4.623  20.508  0.00  0.00    +0.000 A 
ATOM     16  C   UNL     1       3.487   5.382  19.667  0.00  0.00    +0.000 A 
ENDBRANCH  10  11
ENDBRANCH   5  10
TORSDOF 4
ENDMDL
MODEL 4
REMARK VINA RESULT:      -6.7      0.981      1.049
REMARK  Name = 
REMARK  4 active torsions:
REMARK  status: ('A' for Active; 'I' for Inactive)
REMARK    1  A    between atoms: O_1  and  N_2
REMARK    2  A    between atoms: C_3  and  C_4
REMARK    3  A    between atoms: N_8  and  C_9
REMARK    4  A    between atoms: C_9  and  C_10
REMARK                            x       y       z     vdW  Elec       q    Type
REMARK                         _______ _______ _______ _____ _____    ______ ____
ROOT
ATOM      1  C   UNL     1       6.638   5.308  17.543  0.00  0.00    +0.000 C 
ATOM      2  N   UNL     1       7.482   4.614  16.814  0.00  0.00    +0.000 NA
ATOM      3  C   UNL     1       6.883   4.649  15.445  0.00  0.00    +0.000 C 
ATOM      4  C   UNL     1       5.435   5.126  15.605  0.00  0.00    +0.000 C 
ATOM      5  N   UNL     1       5.507   5.749  16.903  0.00  0.00    +0.000 N 
ENDROOT
BRANCH   1   7
ATOM      6  N   UNL     1       8.101   5.137  19.489  0.00  0.00    +0.000 NA
ATOM      7  C   UNL     1       6.957   5.498  19.002  0.00  0.00    +0.000 C 
BRANCH   6   8
ATOM      8  O   UNL     1       8.136   5.457  20.851  0.00  0.00    +0.000 OA
ATOM      9  H   UNL     1       7.332   5.999  20.958  0.00  0.00    +0.000 HD
ENDBRANCH   6   8
ENDBRANCH   1   7
BRANCH   5  10
ATOM     10  C   UNL     1       4.381   6.458  17.463  0.00  0.00    +0.000 C 
BRANCH  10  11
ATOM     11  C   UNL     1       3.408   5.614  18.263  0.00  0.00    +0.000 A 
ATOM     12  C   UNL     1       3.210   5.742  19.645  0.00  0.00    +0.000 A 
ATOM     13  C   UNL     1       2.297   4.924  20.316  0.00  0.00    +0.000 A 
ATOM     14  C   UNL     1       1.570   3.963  19.617  0.00  0.00    +0.000 A 
ATOM     15  C   UNL     1       1.751   3.820  18.245  0.00  0.00    +0.000 A 
ATOM     16  C   UNL     1       2.663   4.640  17.574  0.00  0.00    +0.000 A 
ENDBRANCH  10  11
ENDBRANCH   5  10
TORSDOF 4
ENDMDL
MODEL 5
REMARK VINA RESULT:      -6.6      1.013      1.063
REMARK  Name = 
REMARK  4 active torsions:
REMARK  status: ('A' for Active; 'I' for Inactive)
REMARK    1  A    between atoms: O_1  and  N_2
REMARK    2  A    between atoms: C_3  and  C_4
REMARK    3  A    between atoms: N_8  and  C_9
REMARK    4  A    between atoms: C_9  and  C_10
REMARK                            x       y       z     vdW  Elec       q    Type
REMARK                         _______ _______ _______ _____ _____    ______ ____
ROOT
ATOM      1  C   UNL     1       6.889   5.057  16.912  0.00  0.00    +0.000 C 
ATOM      2  N   UNL     1       7.747   4.609  16.024  0.00  0.00    +0.000 NA
ATOM      3  C   UNL     1       7.098   4.919  14.713  0.00  0.00    +0.000 C 
ATOM      4  C   UNL     1       5.631   5.248  15.010  0.00  0.00    +0.000 C 
ATOM      5  N   UNL     1       5.712   5.557  16.416  0.00  0.00    +0.000 N 
ENDROOT
BRANCH   1   7
ATOM      6  N   UNL     1       7.762   5.919  19.022  0.00  0.00    +0.000 NA
ATOM      7  C   UNL     1       7.248   4.926  18.368  0.00  0.00    +0.000 C 
BRANCH   6   8
ATOM      8  O   UNL     1       7.964   5.531  20.351  0.00  0.00    +0.000 OA
ATOM      9  H   UNL     1       8.908   5.281  20.353  0.00  0.00    +0.000 HD
ENDBRANCH   6   8
ENDBRANCH   1   7
BRANCH   5  10
ATOM     10  C   UNL     1       4.566   6.040  17.150  0.00  0.00    +0.000 C 
BRANCH  10  11
ATOM     11  C   UNL     1       3.567   4.983  17.575  0.00  0.00    +0.000 A 
ATOM     12  C   UNL     1       3.582   3.658  17.115  0.00  0.00    +0.000 A 
ATOM     13  C   UNL     1       2.623   2.738  17.548  0.00  0.00    +0.000 A 
ATOM     14  C   UNL     1       1.633   3.128  18.447  0.00  0.00    +0.000 A 
ATOM     15  C   UNL     1       1.600   4.437  18.917  0.00  0.00    +0.000 A 
ATOM     16  C   UNL     1       2.560   5.357  18.484  0.00  0.00    +0.000 A 
ENDBRANCH  10  11
ENDBRANCH   5  10
TORSDOF 4
ENDMDL
MODEL 6
REMARK VINA RESULT:      -6.6      1.663      2.068
REMARK  Name = 
REMARK  4 active torsions:
REMARK  status: ('A' for Active; 'I' for Inactive)
REMARK    1  A    between atoms: O_1  and  N_2
REMARK    2  A    between atoms: C_3  and  C_4
REMARK    3  A    between atoms: N_8  and  C_9
REMARK    4  A    between atoms: C_9  and  C_10
REMARK                            x       y       z     vdW  Elec       q    Type
REMARK                         _______ _______ _______ _____ _____    ______ ____
ROOT
ATOM      1  C   UNL     1       6.924   5.689  16.606  0.00  0.00    +0.000 C 
ATOM      2  N   UNL     1       7.340   5.670  15.360  0.00  0.00    +0.000 NA
ATOM      3  C   UNL     1       6.538   4.576  14.732  0.00  0.00    +0.000 C 
ATOM      4  C   UNL     1       5.916   3.768  15.877  0.00  0.00    +0.000 C 
ATOM      5  N   UNL     1       6.015   4.721  16.954  0.00  0.00    +0.000 N 
ENDROOT
BRANCH   1   7
ATOM      6  N   UNL     1       7.711   7.935  17.146  0.00  0.00    +0.000 NA
ATOM      7  C   UNL     1       7.520   6.714  17.533  0.00  0.00    +0.000 C 
BRANCH   6   8
ATOM      8  O   UNL     1       8.242   8.672  18.210  0.00  0.00    +0.000 OA
ATOM      9  H   UNL     1       8.352   9.557  17.816  0.00  0.00    +0.000 HD
ENDBRANCH   6   8
ENDBRANCH   1   7
BRANCH   5  10
ATOM     10  C   UNL     1       5.450   4.452  18.255  0.00  0.00    +0.000 C 
BRANCH  10  11
ATOM     11  C   UNL     1       4.023   3.939  18.255  0.00  0.00    +0.000 A 
ATOM     12  C   UNL     1       2.916   4.696  17.847  0.00  0.00    +0.000 A 
ATOM     13  C   UNL     1       1.627   4.156  17.880  0.00  0.00    +0.000 A 
ATOM     14  C   UNL     1       1.425   2.852  18.324  0.00  0.00    +0.000 A 
ATOM     15  C   UNL     1       2.510   2.083  18.733  0.00  0.00    +0.000 A 
ATOM     16  C   UNL     1       3.799   2.623  18.699  0.00  0.00    +0.000 A 
ENDBRANCH  10  11
ENDBRANCH   5  10
TORSDOF 4
ENDMDL
MODEL 7
REMARK VINA RESULT:      -6.5      1.652      1.752
REMARK  Name = 
REMARK  4 active torsions:
REMARK  status: ('A' for Active; 'I' for Inactive)
REMARK    1  A    between atoms: O_1  and  N_2
REMARK    2  A    between atoms: C_3  and  C_4
REMARK    3  A    between atoms: N_8  and  C_9
REMARK    4  A    between atoms: C_9  and  C_10
REMARK                            x       y       z     vdW  Elec       q    Type
REMARK                         _______ _______ _______ _____ _____    ______ ____
ROOT
ATOM      1  C   UNL     1       6.933   5.661  16.525  0.00  0.00    +0.000 C 
ATOM      2  N   UNL     1       7.335   5.603  15.276  0.00  0.00    +0.000 NA
ATOM      3  C   UNL     1       6.495   4.520  14.680  0.00  0.00    +0.000 C 
ATOM      4  C   UNL     1       5.861   3.756  15.849  0.00  0.00    +0.000 C 
ATOM      5  N   UNL     1       5.999   4.729  16.903  0.00  0.00    +0.000 N 
ENDROOT
BRANCH   1   7
ATOM      6  N   UNL     1       7.510   7.950  17.142  0.00  0.00    +0.000 NA
ATOM      7  C   UNL     1       7.568   6.688  17.424  0.00  0.00    +0.000 C 
BRANCH   6   8
ATOM      8  O   UNL     1       8.150   8.672  18.156  0.00  0.00    +0.000 OA
ATOM      9  H   UNL     1       8.997   8.914  17.736  0.00  0.00    +0.000 HD
ENDBRANCH   6   8
ENDBRANCH   1   7
BRANCH   5  10
ATOM     10  C   UNL     1       5.439   4.505  18.215  0.00  0.00    +0.000 C 
BRANCH  10  11
ATOM     11  C   UNL     1       4.026   3.958  18.239  0.00  0.00    +0.000 A 
ATOM     12  C   UNL     1       3.695   2.655  18.636  0.00  0.00    +0.000 A 
ATOM     13  C   UNL     1       2.367   2.218  18.628  0.00  0.00    +0.000 A 
ATOM     14  C   UNL     1       1.350   3.077  18.220  0.00  0.00    +0.000 A 
ATOM     15  C   UNL     1       1.655   4.375  17.823  0.00  0.00    +0.000 A 
ATOM     16  C   UNL     1       2.984   4.811  17.833  0.00  0.00    +0.000 A 
ENDBRANCH  10  11
ENDBRANCH   5  10
TORSDOF 4
ENDMDL
MODEL 8
REMARK VINA RESULT:      -6.5      2.411      3.304
REMARK  Name = 
REMARK  4 active torsions:
REMARK  status: ('A' for Active; 'I' for Inactive)
REMARK    1  A    between atoms: O_1  and  N_2
REMARK    2  A    between atoms: C_3  and  C_4
REMARK    3  A    between atoms: N_8  and  C_9
REMARK    4  A    between atoms: C_9  and  C_10
REMARK                            x       y       z     vdW  Elec       q    Type
REMARK                         _______ _______ _______ _____ _____    ______ ____
ROOT
ATOM      1  C   UNL     1       6.556   4.401  16.503  0.00  0.00    +0.000 C 
ATOM      2  N   UNL     1       7.793   4.445  16.943  0.00  0.00    +0.000 NA
ATOM      3  C   UNL     1       7.681   5.154  18.254  0.00  0.00    +0.000 C 
ATOM      4  C   UNL     1       6.296   5.810  18.288  0.00  0.00    +0.000 C 
ATOM      5  N   UNL     1       5.618   5.042  17.274  0.00  0.00    +0.000 N 
ENDROOT
BRANCH   1   7
ATOM      6  N   UNL     1       6.625   4.277  14.067  0.00  0.00    +0.000 NA
ATOM      7  C   UNL     1       6.298   3.716  15.188  0.00  0.00    +0.000 C 
BRANCH   6   8
ATOM      8  O   UNL     1       6.303   3.412  13.015  0.00  0.00    +0.000 OA
ATOM      9  H   UNL     1       6.870   3.743  12.294  0.00  0.00    +0.000 HD
ENDBRANCH   6   8
ENDBRANCH   1   7
BRANCH   5  10
ATOM     10  C   UNL     1       4.212   5.224  17.003  0.00  0.00    +0.000 C 
BRANCH  10  11
ATOM     11  C   UNL     1       3.289   4.185  17.608  0.00  0.00    +0.000 A 
ATOM     12  C   UNL     1       1.933   4.407  17.887  0.00  0.00    +0.000 A 
ATOM     13  C   UNL     1       1.143   3.400  18.452  0.00  0.00    +0.000 A 
ATOM     14  C   UNL     1       1.697   2.158  18.747  0.00  0.00    +0.000 A 
ATOM     15  C   UNL     1       3.041   1.916  18.477  0.00  0.00    +0.000 A 
ATOM     16  C   UNL     1       3.829   2.922  17.911  0.00  0.00    +0.000 A 
ENDBRANCH  10  11
ENDBRANCH   5  10
TORSDOF 4
ENDMDL
MODEL 9
REMARK VINA RESULT:      -6.4      1.434      1.738
REMARK  Name = 
REMARK  4 active torsions:
REMARK  status: ('A' for Active; 'I' for Inactive)
REMARK    1  A    between atoms: O_1  and  N_2
REMARK    2  A    between atoms: C_3  and  C_4
REMARK    3  A    between atoms: N_8  and  C_9
REMARK    4  A    between atoms: C_9  and  C_10
REMARK                            x       y       z     vdW  Elec       q    Type
REMARK                         _______ _______ _______ _____ _____    ______ ____
ROOT
ATOM      1  C   UNL     1       6.354   5.587  17.928  0.00  0.00    +0.000 C 
ATOM      2  N   UNL     1       6.472   6.549  17.041  0.00  0.00    +0.000 NA
ATOM      3  C   UNL     1       5.159   6.538  16.327  0.00  0.00    +0.000 C 
ATOM      4  C   UNL     1       4.468   5.217  16.686  0.00  0.00    +0.000 C 
ATOM      5  N   UNL     1       5.190   4.861  17.881  0.00  0.00    +0.000 N 
ENDROOT
BRANCH   1   7
ATOM      6  N   UNL     1       7.383   5.464  20.137  0.00  0.00    +0.000 NA
ATOM      7  C   UNL     1       7.513   5.336  18.855  0.00  0.00    +0.000 C 
BRANCH   6   8
ATOM      8  O   UNL     1       8.599   5.143  20.751  0.00  0.00    +0.000 OA
ATOM      9  H   UNL     1       9.251   5.459  20.099  0.00  0.00    +0.000 HD
ENDBRANCH   6   8
ENDBRANCH   1   7
BRANCH   5  10
ATOM     10  C   UNL     1       4.822   3.710  18.671  0.00  0.00    +0.000 C 
BRANCH  10  11
ATOM     11  C   UNL     1       3.419   3.729  19.243  0.00  0.00    +0.000 A 
ATOM     12  C   UNL     1       2.981   4.635  20.219  0.00  0.00    +0.000 A 
ATOM     13  C   UNL     1       1.670   4.589  20.703  0.00  0.00    +0.000 A 
ATOM     14  C   UNL     1       0.778   3.635  20.221  0.00  0.00    +0.000 A 
ATOM     15  C   UNL     1       1.191   2.726  19.251  0.00  0.00    +0.000 A 
ATOM     16  C   UNL     1       2.502   2.774  18.766  0.00  0.00    +0.000 A 
ENDBRANCH  10  11
ENDBRANCH   5  10
TORSDOF 4
ENDMDL
