MODEL 1
REMARK VINA RESULT:      -7.1      0.000      0.000
REMARK  Name = 
REMARK  9 active torsions:
REMARK  status: ('A' for Active; 'I' for Inactive)
REMARK    1  A    between atoms: C_1  and  N_2
REMARK    2  A    between atoms: N_2  and  C_3
REMARK    3  A    between atoms: N_2  and  C_12
REMARK    4  A    between atoms: C_3  and  C_4
REMARK    5  A    between atoms: C_4  and  C_5
REMARK    6  A    between atoms: C_12  and  C_13
REMARK    7  A    between atoms: C_15  and  C_16
REMARK    8  A    between atoms: C_16  and  S_17
REMARK    9  A    between atoms: S_17  and  C_18
REMARK                            x       y       z     vdW  Elec       q    Type
REMARK                         _______ _______ _______ _____ _____    ______ ____
ROOT
ATOM      1  C   UNL     1       2.568   3.280  21.563  0.00  0.00    +0.000 C 
ATOM      2  N   UNL     1       1.639   3.168  20.414  0.00  0.00    +0.000 NA
ENDROOT
BRANCH   2   3
ATOM      3  C   UNL     1       1.109   4.512  20.066  0.00  0.00    +0.000 C 
BRANCH   3   4
ATOM      4  C   UNL     1       1.845   5.692  20.734  0.00  0.00    +0.000 C 
BRANCH   4   5
ATOM      5  C   UNL     1       1.807   6.970  19.930  0.00  0.00    +0.000 A 
ATOM      6  C   UNL     1       2.255   7.033  18.602  0.00  0.00    +0.000 A 
ATOM      7  C   UNL     1       2.237   8.247  17.904  0.00  0.00    +0.000 A 
ATOM      8  C   UNL     1       1.765   9.404  18.519  0.00  0.00    +0.000 A 
ATOM      9  C   UNL     1       1.310   9.349  19.835  0.00  0.00    +0.000 A 
ATOM     10  C   UNL     1       1.333   8.142  20.524  0.00  0.00    +0.000 A 
ATOM     11  F   UNL     1       0.907   8.116  21.796  0.00  0.00    +0.000 F 
ENDBRANCH   4   5
ENDBRANCH   3   4
ENDBRANCH   2   3
BRANCH   2  12
ATOM     12  C   UNL     1       2.382   2.592  19.261  0.00  0.00    +0.000 C 
BRANCH  12  13
ATOM     13  C   UNL     1       3.654   3.300  18.961  0.00  0.00    +0.000 A 
ATOM     14  N   UNL     1       3.877   4.221  18.042  0.00  0.00    +0.000 NA
ATOM     15  C   UNL     1       5.174   4.575  18.288  0.00  0.00    +0.000 A 
ATOM     16  N   UNL     1       5.772   3.865  19.256  0.00  0.00    +0.000 NA
ATOM     17  O   UNL     1       4.751   3.021  19.717  0.00  0.00    +0.000 OA
BRANCH  15  18
ATOM     18  C   UNL     1       5.893   5.591  17.493  0.00  0.00    +0.000 C 
BRANCH  18  19
ATOM     19  S   UNL     1       7.051   4.862  16.348  0.00  0.00    +0.000 S 
ATOM     20  C   UNL     1       6.141   3.580  15.506  0.00  0.00    +0.000 C 
ATOM     21  O   UNL     1       7.408   5.876  15.352  0.00  0.00    +0.000 OA
ATOM     22  O   UNL     1       8.094   4.216  17.100  0.00  0.00    +0.000 OA
ENDBRANCH  18  19
ENDBRANCH  15  18
ENDBRANCH  12  13
ENDBRANCH   2  12
TORSDOF 7
ENDMDL
MODEL 2
REMARK VINA RESULT:      -7.0      1.323      1.739
REMARK  Name = 
REMARK  9 active torsions:
REMARK  status: ('A' for Active; 'I' for Inactive)
REMARK    1  A    between atoms: C_1  and  N_2
REMARK    2  A    between atoms: N_2  and  C_3
REMARK    3  A    between atoms: N_2  and  C_12
REMARK    4  A    between atoms: C_3  and  C_4
REMARK    5  A    between atoms: C_4  and  C_5
REMARK    6  A    between atoms: C_12  and  C_13
REMARK    7  A    between atoms: C_15  and  C_16
REMARK    8  A    between atoms: C_16  and  S_17
REMARK    9  A    between atoms: S_17  and  C_18
REMARK                            x       y       z     vdW  Elec       q    Type
REMARK                         _______ _______ _______ _____ _____    ______ ____
ROOT
ATOM      1  C   UNL     1       2.315   3.784  21.538  0.00  0.00    +0.000 C 
ATOM      2  N   UNL     1       1.961   3.552  20.118  0.00  0.00    +0.000 NA
ENDROOT
BRANCH   2   3
ATOM      3  C   UNL     1       2.006   4.837  19.374  0.00  0.00    +0.000 C 
BRANCH   3   4
ATOM      4  C   UNL     1       2.408   6.063  20.219  0.00  0.00    +0.000 C 
BRANCH   4   5
ATOM      5  C   UNL     1       2.031   7.385  19.597  0.00  0.00    +0.000 A 
ATOM      6  C   UNL     1       2.357   7.710  18.272  0.00  0.00    +0.000 A 
ATOM      7  C   UNL     1       2.021   8.963  17.745  0.00  0.00    +0.000 A 
ATOM      8  C   UNL     1       1.349   9.898  18.530  0.00  0.00    +0.000 A 
ATOM      9  C   UNL     1       1.014   9.582  19.844  0.00  0.00    +0.000 A 
ATOM     10  C   UNL     1       1.353   8.337  20.363  0.00  0.00    +0.000 A 
ATOM     11  F   UNL     1       1.035   8.059  21.637  0.00  0.00    +0.000 F 
ENDBRANCH   4   5
ENDBRANCH   3   4
ENDBRANCH   2   3
BRANCH   2  12
ATOM     12  C   UNL     1       2.934   2.587  19.541  0.00  0.00    +0.000 C 
BRANCH  12  13
ATOM     13  C   UNL     1       4.027   3.235  18.770  0.00  0.00    +0.000 A 
ATOM     14  N   UNL     1       5.106   3.838  19.234  0.00  0.00    +0.000 NA
ATOM     15  C   UNL     1       5.786   4.147  18.090  0.00  0.00    +0.000 A 
ATOM     16  N   UNL     1       5.144   3.833  16.956  0.00  0.00    +0.000 NA
ATOM     17  O   UNL     1       3.972   3.210  17.410  0.00  0.00    +0.000 OA
BRANCH  15  18
ATOM     18  C   UNL     1       7.084   4.855  18.094  0.00  0.00    +0.000 C 
BRANCH  18  19
ATOM     19  S   UNL     1       7.002   6.423  17.247  0.00  0.00    +0.000 S 
ATOM     20  C   UNL     1       8.072   7.514  18.167  0.00  0.00    +0.000 C 
ATOM     21  O   UNL     1       7.587   6.253  15.914  0.00  0.00    +0.000 OA
ATOM     22  O   UNL     1       5.666   6.941  17.368  0.00  0.00    +0.000 OA
ENDBRANCH  18  19
ENDBRANCH  15  18
ENDBRANCH  12  13
ENDBRANCH   2  12
TORSDOF 7
ENDMDL
MODEL 3
REMARK VINA RESULT:      -6.8      2.223      3.364
REMARK  Name = 
REMARK  9 active torsions:
REMARK  status: ('A' for Active; 'I' for Inactive)
REMARK    1  A    between atoms: C_1  and  N_2
REMARK    2  A    between atoms: N_2  and  C_3
REMARK    3  A    between atoms: N_2  and  C_12
REMARK    4  A    between atoms: C_3  and  C_4
REMARK    5  A    between atoms: C_4  and  C_5
REMARK    6  A    between atoms: C_12  and  C_13
REMARK    7  A    between atoms: C_15  and  C_16
REMARK    8  A    between atoms: C_16  and  S_17
REMARK    9  A    between atoms: S_17  and  C_18
REMARK                            x       y       z     vdW  Elec       q    Type
REMARK                         _______ _______ _______ _____ _____    ______ ____
ROOT
ATOM      1  C   UNL     1       2.140   7.988  18.614  0.00  0.00    +0.000 C 
ATOM      2  N   UNL     1       2.259   7.192  19.858  0.00  0.00    +0.000 NA
ENDROOT
BRANCH   2   3
ATOM      3  C   UNL     1       1.218   7.619  20.828  0.00  0.00    +0.000 C 
BRANCH   3   4
ATOM      4  C   UNL     1       1.581   8.865  21.661  0.00  0.00    +0.000 C 
BRANCH   4   5
ATOM      5  C   UNL     1       0.472   9.885  21.751  0.00  0.00    +0.000 A 
ATOM      6  C   UNL     1       0.136  10.723  20.676  0.00  0.00    +0.000 A 
ATOM      7  C   UNL     1      -0.875  11.682  20.813  0.00  0.00    +0.000 A 
ATOM      8  C   UNL     1      -1.567  11.807  22.016  0.00  0.00    +0.000 A 
ATOM      9  C   UNL     1      -1.246  10.974  23.086  0.00  0.00    +0.000 A 
ATOM     10  C   UNL     1      -0.239  10.026  22.945  0.00  0.00    +0.000 A 
ATOM     11  F   UNL     1       0.065   9.246  23.994  0.00  0.00    +0.000 F 
ENDBRANCH   4   5
ENDBRANCH   3   4
ENDBRANCH   2   3
BRANCH   2  12
ATOM     12  C   UNL     1       2.088   5.754  19.517  0.00  0.00    +0.000 C 
BRANCH  12  13
ATOM     13  C   UNL     1       3.303   5.137  18.923  0.00  0.00    +0.000 A 
ATOM     14  N   UNL     1       3.612   5.010  17.646  0.00  0.00    +0.000 NA
ATOM     15  C   UNL     1       4.865   4.468  17.699  0.00  0.00    +0.000 A 
ATOM     16  N   UNL     1       5.301   4.188  18.936  0.00  0.00    +0.000 NA
ATOM     17  O   UNL     1       4.262   4.649  19.757  0.00  0.00    +0.000 OA
BRANCH  15  18
ATOM     18  C   UNL     1       5.644   4.127  16.490  0.00  0.00    +0.000 C 
BRANCH  18  19
ATOM     19  S   UNL     1       7.211   4.977  16.431  0.00  0.00    +0.000 S 
ATOM     20  C   UNL     1       6.923   6.557  17.207  0.00  0.00    +0.000 C 
ATOM     21  O   UNL     1       8.161   4.241  17.269  0.00  0.00    +0.000 OA
ATOM     22  O   UNL     1       7.541   5.236  15.055  0.00  0.00    +0.000 OA
ENDBRANCH  18  19
ENDBRANCH  15  18
ENDBRANCH  12  13
ENDBRANCH   2  12
TORSDOF 7
ENDMDL
MODEL 4
REMARK VINA RESULT:      -6.8      4.182      7.804
REMARK  Name = 
REMARK  9 active torsions:
REMARK  status: ('A' for Active; 'I' for Inactive)
REMARK    1  A    between atoms: C_1  and  N_2
REMARK    2  A    between atoms: N_2  and  C_3
REMARK    3  A    between atoms: N_2  and  C_12
REMARK    4  A    between atoms: C_3  and  C_4
REMARK    5  A    between atoms: C_4  and  C_5
REMARK    6  A    between atoms: C_12  and  C_13
REMARK    7  A    between atoms: C_15  and  C_16
REMARK    8  A    between atoms: C_16  and  S_17
REMARK    9  A    between atoms: S_17  and  C_18
REMARK                            x       y       z     vdW  Elec       q    Type
REMARK                         _______ _______ _______ _____ _____    ______ ____
ROOT
ATOM      1  C   UNL     1       5.264   5.836  15.176  0.00  0.00    +0.000 C 
ATOM      2  N   UNL     1       6.093   4.642  15.461  0.00  0.00    +0.000 NA
ENDROOT
BRANCH   2   3
ATOM      3  C   UNL     1       7.311   4.664  14.611  0.00  0.00    +0.000 C 
BRANCH   3   4
ATOM      4  C   UNL     1       7.050   4.906  13.110  0.00  0.00    +0.000 C 
BRANCH   4   5
ATOM      5  C   UNL     1       6.731   3.651  12.334  0.00  0.00    +0.000 A 
ATOM      6  C   UNL     1       7.727   2.874  11.723  0.00  0.00    +0.000 A 
ATOM      7  C   UNL     1       7.385   1.737  10.981  0.00  0.00    +0.000 A 
ATOM      8  C   UNL     1       6.050   1.358  10.850  0.00  0.00    +0.000 A 
ATOM      9  C   UNL     1       5.055   2.119  11.460  0.00  0.00    +0.000 A 
ATOM     10  C   UNL     1       5.400   3.249  12.193  0.00  0.00    +0.000 A 
ATOM     11  F   UNL     1       4.425   3.976  12.758  0.00  0.00    +0.000 F 
ENDBRANCH   4   5
ENDBRANCH   3   4
ENDBRANCH   2   3
BRANCH   2  12
ATOM     12  C   UNL     1       6.468   4.660  16.900  0.00  0.00    +0.000 C 
BRANCH  12  13
ATOM     13  C   UNL     1       5.492   3.960  17.776  0.00  0.00    +0.000 A 
ATOM     14  N   UNL     1       4.441   3.245  17.418  0.00  0.00    +0.000 NA
ATOM     15  C   UNL     1       3.985   2.773  18.616  0.00  0.00    +0.000 A 
ATOM     16  N   UNL     1       4.655   3.224  19.687  0.00  0.00    +0.000 NA
ATOM     17  O   UNL     1       5.673   4.007  19.125  0.00  0.00    +0.000 OA
BRANCH  15  18
ATOM     18  C   UNL     1       2.791   1.909  18.736  0.00  0.00    +0.000 C 
BRANCH  18  19
ATOM     19  S   UNL     1       1.299   2.849  19.007  0.00  0.00    +0.000 S 
ATOM     20  C   UNL     1       1.157   3.015  20.777  0.00  0.00    +0.000 C 
ATOM     21  O   UNL     1       1.499   4.191  18.452  0.00  0.00    +0.000 OA
ATOM     22  O   UNL     1       0.177   2.065  18.565  0.00  0.00    +0.000 OA
ENDBRANCH  18  19
ENDBRANCH  15  18
ENDBRANCH  12  13
ENDBRANCH   2  12
TORSDOF 7
ENDMDL
MODEL 5
REMARK VINA RESULT:      -6.5      1.669      2.174
REMARK  Name = 
REMARK  9 active torsions:
REMARK  status: ('A' for Active; 'I' for Inactive)
REMARK    1  A    between atoms: C_1  and  N_2
REMARK    2  A    between atoms: N_2  and  C_3
REMARK    3  A    between atoms: N_2  and  C_12
REMARK    4  A    between atoms: C_3  and  C_4
REMARK    5  A    between atoms: C_4  and  C_5
REMARK    6  A    between atoms: C_12  and  C_13
REMARK    7  A    between atoms: C_15  and  C_16
REMARK    8  A    between atoms: C_16  and  S_17
REMARK    9  A    between atoms: S_17  and  C_18
REMARK                            x       y       z     vdW  Elec       q    Type
REMARK                         _______ _______ _______ _____ _____    ______ ____
ROOT
ATOM      1  C   UNL     1       1.955   4.811  20.673  0.00  0.00    +0.000 C 
ATOM      2  N   UNL     1       1.945   4.558  19.213  0.00  0.00    +0.000 NA
ENDROOT
BRANCH   2   3
ATOM      3  C   UNL     1       2.407   5.771  18.491  0.00  0.00    +0.000 C 
BRANCH   3   4
ATOM      4  C   UNL     1       2.861   6.933  19.398  0.00  0.00    +0.000 C 
BRANCH   4   5
ATOM      5  C   UNL     1       1.890   8.088  19.444  0.00  0.00    +0.000 A 
ATOM      6  C   UNL     1       1.158   8.406  20.598  0.00  0.00    +0.000 A 
ATOM      7  C   UNL     1       0.240   9.463  20.587  0.00  0.00    +0.000 A 
ATOM      8  C   UNL     1       0.051  10.219  19.432  0.00  0.00    +0.000 A 
ATOM      9  C   UNL     1       0.780   9.916  18.283  0.00  0.00    +0.000 A 
ATOM     10  C   UNL     1       1.688   8.863  18.299  0.00  0.00    +0.000 A 
ATOM     11  F   UNL     1       2.367   8.578  17.178  0.00  0.00    +0.000 F 
ENDBRANCH   4   5
ENDBRANCH   3   4
ENDBRANCH   2   3
BRANCH   2  12
ATOM     12  C   UNL     1       2.846   3.411  18.926  0.00  0.00    +0.000 C 
BRANCH  12  13
ATOM     13  C   UNL     1       4.257   3.811  18.684  0.00  0.00    +0.000 A 
ATOM     14  N   UNL     1       4.941   3.747  17.557  0.00  0.00    +0.000 NA
ATOM     15  C   UNL     1       6.128   4.331  17.900  0.00  0.00    +0.000 A 
ATOM     16  N   UNL     1       6.229   4.677  19.191  0.00  0.00    +0.000 NA
ATOM     17  O   UNL     1       4.972   4.342  19.715  0.00  0.00    +0.000 OA
BRANCH  15  18
ATOM     18  C   UNL     1       7.249   4.487  16.949  0.00  0.00    +0.000 C 
BRANCH  18  19
ATOM     19  S   UNL     1       6.692   4.886  15.302  0.00  0.00    +0.000 S 
ATOM     20  C   UNL     1       5.358   6.049  15.521  0.00  0.00    +0.000 C 
ATOM     21  O   UNL     1       7.779   5.585  14.610  0.00  0.00    +0.000 OA
ATOM     22  O   UNL     1       6.128   3.703  14.711  0.00  0.00    +0.000 OA
ENDBRANCH  18  19
ENDBRANCH  15  18
ENDBRANCH  12  13
ENDBRANCH   2  12
TORSDOF 7
ENDMDL
MODEL 6
REMARK VINA RESULT:      -6.5      5.211      7.209
REMARK  Name = 
REMARK  9 active torsions:
REMARK  status: ('A' for Active; 'I' for Inactive)
REMARK    1  A    between atoms: C_1  and  N_2
REMARK    2  A    between atoms: N_2  and  C_3
REMARK    3  A    between atoms: N_2  and  C_12
REMARK    4  A    between atoms: C_3  and  C_4
REMARK    5  A    between atoms: C_4  and  C_5
REMARK    6  A    between atoms: C_12  and  C_13
REMARK    7  A    between atoms: C_15  and  C_16
REMARK    8  A    between atoms: C_16  and  S_17
REMARK    9  A    between atoms: S_17  and  C_18
REMARK                            x       y       z     vdW  Elec       q    Type
REMARK                         _______ _______ _______ _____ _____    ______ ____
ROOT
ATOM      1  C   UNL     1       6.723   7.859  17.631  0.00  0.00    +0.000 C 
ATOM      2  N   UNL     1       8.092   7.452  18.024  0.00  0.00    +0.000 NA
ENDROOT
BRANCH   2   3
ATOM      3  C   UNL     1       8.724   8.530  18.826  0.00  0.00    +0.000 C 
BRANCH   3   4
ATOM      4  C   UNL     1       8.579   9.948  18.236  0.00  0.00    +0.000 C 
BRANCH   4   5
ATOM      5  C   UNL     1       9.691  10.891  18.627  0.00  0.00    +0.000 A 
ATOM      6  C   UNL     1      10.578  11.435  17.685  0.00  0.00    +0.000 A 
ATOM      7  C   UNL     1      11.619  12.277  18.095  0.00  0.00    +0.000 A 
ATOM      8  C   UNL     1      11.780  12.591  19.443  0.00  0.00    +0.000 A 
ATOM      9  C   UNL     1      10.900  12.062  20.384  0.00  0.00    +0.000 A 
ATOM     10  C   UNL     1       9.869  11.224  19.972  0.00  0.00    +0.000 A 
ATOM     11  F   UNL     1       9.043  10.712  20.897  0.00  0.00    +0.000 F 
ENDBRANCH   4   5
ENDBRANCH   3   4
ENDBRANCH   2   3
BRANCH   2  12
ATOM     12  C   UNL     1       8.001   6.200  18.822  0.00  0.00    +0.000 C 
BRANCH  12  13
ATOM     13  C   UNL     1       6.723   5.465  18.631  0.00  0.00    +0.000 A 
ATOM     14  N   UNL     1       5.706   5.368  19.466  0.00  0.00    +0.000 NA
ATOM     15  C   UNL     1       4.789   4.668  18.732  0.00  0.00    +0.000 A 
ATOM     16  N   UNL     1       5.223   4.270  17.528  0.00  0.00    +0.000 NA
ATOM     17  O   UNL     1       6.514   4.815  17.453  0.00  0.00    +0.000 OA
BRANCH  15  18
ATOM     18  C   UNL     1       3.458   4.296  19.256  0.00  0.00    +0.000 C 
BRANCH  18  19
ATOM     19  S   UNL     1       3.394   2.599  19.803  0.00  0.00    +0.000 S 
ATOM     20  C   UNL     1       3.106   1.637  18.329  0.00  0.00    +0.000 C 
ATOM     21  O   UNL     1       4.719   2.236  20.316  0.00  0.00    +0.000 OA
ATOM     22  O   UNL     1       2.243   2.433  20.648  0.00  0.00    +0.000 OA
ENDBRANCH  18  19
ENDBRANCH  15  18
ENDBRANCH  12  13
ENDBRANCH   2  12
TORSDOF 7
ENDMDL
MODEL 7
REMARK VINA RESULT:      -6.5      4.208      5.860
REMARK  Name = 
REMARK  9 active torsions:
REMARK  status: ('A' for Active; 'I' for Inactive)
REMARK    1  A    between atoms: C_1  and  N_2
REMARK    2  A    between atoms: N_2  and  C_3
REMARK    3  A    between atoms: N_2  and  C_12
REMARK    4  A    between atoms: C_3  and  C_4
REMARK    5  A    between atoms: C_4  and  C_5
REMARK    6  A    between atoms: C_12  and  C_13
REMARK    7  A    between atoms: C_15  and  C_16
REMARK    8  A    between atoms: C_16  and  S_17
REMARK    9  A    between atoms: S_17  and  C_18
REMARK                            x       y       z     vdW  Elec       q    Type
REMARK                         _______ _______ _______ _____ _____    ______ ____
ROOT
ATOM      1  C   UNL     1       5.335   4.278  16.439  0.00  0.00    +0.000 C 
ATOM      2  N   UNL     1       5.650   5.549  17.130  0.00  0.00    +0.000 NA
ENDROOT
BRANCH   2   3
ATOM      3  C   UNL     1       4.861   5.646  18.385  0.00  0.00    +0.000 C 
BRANCH   3   4
ATOM      4  C   UNL     1       3.336   5.765  18.185  0.00  0.00    +0.000 C 
BRANCH   4   5
ATOM      5  C   UNL     1       2.530   4.832  19.055  0.00  0.00    +0.000 A 
ATOM      6  C   UNL     1       2.637   4.832  20.454  0.00  0.00    +0.000 A 
ATOM      7  C   UNL     1       1.898   3.924  21.222  0.00  0.00    +0.000 A 
ATOM      8  C   UNL     1       1.039   3.016  20.604  0.00  0.00    +0.000 A 
ATOM      9  C   UNL     1       0.921   3.014  19.216  0.00  0.00    +0.000 A 
ATOM     10  C   UNL     1       1.659   3.915  18.458  0.00  0.00    +0.000 A 
ATOM     11  F   UNL     1       1.542   3.885  17.122  0.00  0.00    +0.000 F 
ENDBRANCH   4   5
ENDBRANCH   3   4
ENDBRANCH   2   3
BRANCH   2  12
ATOM     12  C   UNL     1       7.106   5.574  17.433  0.00  0.00    +0.000 C 
BRANCH  12  13
ATOM     13  C   UNL     1       7.623   6.931  17.749  0.00  0.00    +0.000 A 
ATOM     14  N   UNL     1       7.365   8.067  17.129  0.00  0.00    +0.000 NA
ATOM     15  C   UNL     1       8.023   8.982  17.903  0.00  0.00    +0.000 A 
ATOM     16  N   UNL     1       8.728   8.454  18.914  0.00  0.00    +0.000 NA
ATOM     17  O   UNL     1       8.450   7.082  18.821  0.00  0.00    +0.000 OA
BRANCH  15  18
ATOM     18  C   UNL     1       8.036  10.428  17.600  0.00  0.00    +0.000 C 
BRANCH  18  19
ATOM     19  S   UNL     1       9.357  11.284  18.440  0.00  0.00    +0.000 S 
ATOM     20  C   UNL     1       8.948  13.017  18.324  0.00  0.00    +0.000 C 
ATOM     21  O   UNL     1       9.312  10.914  19.857  0.00  0.00    +0.000 OA
ATOM     22  O   UNL     1      10.574  11.087  17.700  0.00  0.00    +0.000 OA
ENDBRANCH  18  19
ENDBRANCH  15  18
ENDBRANCH  12  13
ENDBRANCH   2  12
TORSDOF 7
ENDMDL
MODEL 8
REMARK VINA RESULT:      -6.5      2.700      4.653
REMARK  Name = 
REMARK  9 active torsions:
REMARK  status: ('A' for Active; 'I' for Inactive)
REMARK    1  A    between atoms: C_1  and  N_2
REMARK    2  A    between atoms: N_2  and  C_3
REMARK    3  A    between atoms: N_2  and  C_12
REMARK    4  A    between atoms: C_3  and  C_4
REMARK    5  A    between atoms: C_4  and  C_5
REMARK    6  A    between atoms: C_12  and  C_13
REMARK    7  A    between atoms: C_15  and  C_16
REMARK    8  A    between atoms: C_16  and  S_17
REMARK    9  A    between atoms: S_17  and  C_18
REMARK                            x       y       z     vdW  Elec       q    Type
REMARK                         _______ _______ _______ _____ _____    ______ ____
ROOT
ATOM      1  C   UNL     1       6.153   7.075  16.898  0.00  0.00    +0.000 C 
ATOM      2  N   UNL     1       5.089   6.262  17.531  0.00  0.00    +0.000 NA
ENDROOT
BRANCH   2   3
ATOM      3  C   UNL     1       3.808   7.015  17.517  0.00  0.00    +0.000 C 
BRANCH   3   4
ATOM      4  C   UNL     1       3.034   7.003  18.851  0.00  0.00    +0.000 C 
BRANCH   4   5
ATOM      5  C   UNL     1       2.016   8.111  18.978  0.00  0.00    +0.000 A 
ATOM      6  C   UNL     1       1.669   8.936  17.898  0.00  0.00    +0.000 A 
ATOM      7  C   UNL     1       0.747   9.976  18.067  0.00  0.00    +0.000 A 
ATOM      8  C   UNL     1       0.156  10.196  19.310  0.00  0.00    +0.000 A 
ATOM      9  C   UNL     1       0.488   9.376  20.386  0.00  0.00    +0.000 A 
ATOM     10  C   UNL     1       1.407   8.347  20.213  0.00  0.00    +0.000 A 
ATOM     11  F   UNL     1       1.725   7.580  21.267  0.00  0.00    +0.000 F 
ENDBRANCH   4   5
ENDBRANCH   3   4
ENDBRANCH   2   3
BRANCH   2  12
ATOM     12  C   UNL     1       4.950   4.992  16.769  0.00  0.00    +0.000 C 
BRANCH  12  13
ATOM     13  C   UNL     1       4.017   4.022  17.400  0.00  0.00    +0.000 A 
ATOM     14  N   UNL     1       4.075   3.505  18.613  0.00  0.00    +0.000 NA
ATOM     15  C   UNL     1       2.925   2.770  18.675  0.00  0.00    +0.000 A 
ATOM     16  N   UNL     1       2.211   2.751  17.540  0.00  0.00    +0.000 NA
ATOM     17  O   UNL     1       2.934   3.601  16.689  0.00  0.00    +0.000 OA
BRANCH  15  18
ATOM     18  C   UNL     1       2.540   1.980  19.864  0.00  0.00    +0.000 C 
BRANCH  18  19
ATOM     19  S   UNL     1       1.493   2.899  20.978  0.00  0.00    +0.000 S 
ATOM     20  C   UNL     1       2.371   4.415  21.312  0.00  0.00    +0.000 C 
ATOM     21  O   UNL     1       0.263   3.250  20.263  0.00  0.00    +0.000 OA
ATOM     22  O   UNL     1       1.404   2.180  22.221  0.00  0.00    +0.000 OA
ENDBRANCH  18  19
ENDBRANCH  15  18
ENDBRANCH  12  13
ENDBRANCH   2  12
TORSDOF 7
ENDMDL
MODEL 9
REMARK VINA RESULT:      -6.5      6.025      8.252
REMARK  Name = 
REMARK  9 active torsions:
REMARK  status: ('A' for Active; 'I' for Inactive)
REMARK    1  A    between atoms: C_1  and  N_2
REMARK    2  A    between atoms: N_2  and  C_3
REMARK    3  A    between atoms: N_2  and  C_12
REMARK    4  A    between atoms: C_3  and  C_4
REMARK    5  A    between atoms: C_4  and  C_5
REMARK    6  A    between atoms: C_12  and  C_13
REMARK    7  A    between atoms: C_15  and  C_16
REMARK    8  A    between atoms: C_16  and  S_17
REMARK    9  A    between atoms: S_17  and  C_18
REMARK                            x       y       z     vdW  Elec       q    Type
REMARK                         _______ _______ _______ _____ _____    ______ ____
ROOT
ATOM      1  C   UNL     1       2.686   9.047  17.828  0.00  0.00    +0.000 C 
ATOM      2  N   UNL     1       1.742   8.277  18.670  0.00  0.00    +0.000 NA
ENDROOT
BRANCH   2   3
ATOM      3  C   UNL     1       2.413   7.055  19.185  0.00  0.00    +0.000 C 
BRANCH   3   4
ATOM      4  C   UNL     1       2.724   5.986  18.118  0.00  0.00    +0.000 C 
BRANCH   4   5
ATOM      5  C   UNL     1       2.240   4.603  18.478  0.00  0.00    +0.000 A 
ATOM      6  C   UNL     1       1.383   4.368  19.564  0.00  0.00    +0.000 A 
ATOM      7  C   UNL     1       0.987   3.064  19.886  0.00  0.00    +0.000 A 
ATOM      8  C   UNL     1       1.433   1.985  19.125  0.00  0.00    +0.000 A 
ATOM      9  C   UNL     1       2.277   2.210  18.040  0.00  0.00    +0.000 A 
ATOM     10  C   UNL     1       2.670   3.506  17.726  0.00  0.00    +0.000 A 
ATOM     11  F   UNL     1       3.497   3.698  16.687  0.00  0.00    +0.000 F 
ENDBRANCH   4   5
ENDBRANCH   3   4
ENDBRANCH   2   3
BRANCH   2  12
ATOM     12  C   UNL     1       1.303   9.140  19.799  0.00  0.00    +0.000 C 
BRANCH  12  13
ATOM     13  C   UNL     1       0.176  10.044  19.451  0.00  0.00    +0.000 A 
ATOM     14  N   UNL     1      -0.290  10.342  18.252  0.00  0.00    +0.000 NA
ATOM     15  C   UNL     1      -1.371  11.125  18.543  0.00  0.00    +0.000 A 
ATOM     16  N   UNL     1      -1.542  11.380  19.849  0.00  0.00    +0.000 NA
ATOM     17  O   UNL     1      -0.514  10.645  20.458  0.00  0.00    +0.000 OA
BRANCH  15  18
ATOM     18  C   UNL     1      -2.233  11.723  17.502  0.00  0.00    +0.000 C 
BRANCH  18  19
ATOM     19  S   UNL     1      -3.472  10.584  16.911  0.00  0.00    +0.000 S 
ATOM     20  C   UNL     1      -2.953  10.131  15.265  0.00  0.00    +0.000 C 
ATOM     21  O   UNL     1      -3.414   9.376  17.740  0.00  0.00    +0.000 OA
ATOM     22  O   UNL     1      -4.719  11.289  16.782  0.00  0.00    +0.000 OA
ENDBRANCH  18  19
ENDBRANCH  15  18
ENDBRANCH  12  13
ENDBRANCH   2  12
TORSDOF 7
ENDMDL
