MODEL 1
REMARK VINA RESULT:      -6.3      0.000      0.000
REMARK  Name = 
REMARK  5 active torsions:
REMARK  status: ('A' for Active; 'I' for Inactive)
REMARK    1  A    between atoms: C_2  and  C_3
REMARK    2  A    between atoms: N_7  and  C_8
REMARK    3  A    between atoms: C_8  and  C_9
REMARK    4  A    between atoms: C_9  and  C_10
REMARK    5  A    between atoms: C_10  and  C_11
REMARK                            x       y       z     vdW  Elec       q    Type
REMARK                         _______ _______ _______ _____ _____    ______ ____
ROOT
ATOM      1  C   UNL     1       5.941   5.327  16.900  0.00  0.00    +0.000 A 
ATOM      2  C   UNL     1       6.416   4.977  18.160  0.00  0.00    +0.000 A 
ATOM      3  C   UNL     1       5.581   5.129  19.267  0.00  0.00    +0.000 A 
ATOM      4  C   UNL     1       4.288   5.621  19.098  0.00  0.00    +0.000 A 
ATOM      5  N   UNL     1       3.455   5.693  20.191  0.00  0.00    +0.000 N 
ATOM      6  N   UNL     1       3.816   5.934  17.874  0.00  0.00    +0.000 NA
ATOM      7  C   UNL     1       4.645   5.799  16.810  0.00  0.00    +0.000 A 
ATOM      8  H   UNL     1       3.849   5.853  21.106  0.00  0.00    +0.000 HD
ENDROOT
BRANCH   1  10
ATOM      9  N   UNL     1       7.418   5.109  14.792  0.00  0.00    +0.000 NA
ATOM     10  C   UNL     1       6.755   5.206  15.735  0.00  0.00    +0.000 C 
ENDBRANCH   1  10
BRANCH   5  11
ATOM     11  C   UNL     1       2.016   5.669  20.038  0.00  0.00    +0.000 C 
BRANCH  11  12
ATOM     12  C   UNL     1       1.472   4.495  20.850  0.00  0.00    +0.000 C 
BRANCH  12  13
ATOM     13  C   UNL     1       0.881   3.417  19.946  0.00  0.00    +0.000 C 
BRANCH  13  14
ATOM     14  C   UNL     1       1.856   2.960  18.915  0.00  0.00    +0.000 A 
ATOM     15  C   UNL     1       3.020   2.178  19.101  0.00  0.00    +0.000 A 
ATOM     16  C   UNL     1       3.560   2.041  17.846  0.00  0.00    +0.000 A 
ATOM     17  N   UNL     1       2.730   2.718  17.005  0.00  0.00    +0.000 N 
ATOM     18  N   UNL     1       1.683   3.285  17.627  0.00  0.00    +0.000 NA
ATOM     19  H   UNL     1       2.813   2.836  16.001  0.00  0.00    +0.000 HD
ENDBRANCH  13  14
ENDBRANCH  12  13
ENDBRANCH  11  12
ENDBRANCH   5  11
TORSDOF 5
ENDMDL
MODEL 2
REMARK VINA RESULT:      -6.3      1.107      1.110
REMARK  Name = 
REMARK  5 active torsions:
REMARK  status: ('A' for Active; 'I' for Inactive)
REMARK    1  A    between atoms: C_2  and  C_3
REMARK    2  A    between atoms: N_7  and  C_8
REMARK    3  A    between atoms: C_8  and  C_9
REMARK    4  A    between atoms: C_9  and  C_10
REMARK    5  A    between atoms: C_10  and  C_11
REMARK                            x       y       z     vdW  Elec       q    Type
REMARK                         _______ _______ _______ _____ _____    ______ ____
ROOT
ATOM      1  C   UNL     1       5.772   4.947  16.842  0.00  0.00    +0.000 A 
ATOM      2  C   UNL     1       6.321   4.791  18.110  0.00  0.00    +0.000 A 
ATOM      3  C   UNL     1       5.541   5.081  19.229  0.00  0.00    +0.000 A 
ATOM      4  C   UNL     1       4.226   5.515  19.065  0.00  0.00    +0.000 A 
ATOM      5  N   UNL     1       3.449   5.723  20.181  0.00  0.00    +0.000 N 
ATOM      6  N   UNL     1       3.682   5.639  17.837  0.00  0.00    +0.000 NA
ATOM      7  C   UNL     1       4.458   5.372  16.759  0.00  0.00    +0.000 A 
ATOM      8  H   UNL     1       3.885   6.021  21.041  0.00  0.00    +0.000 HD
ENDROOT
BRANCH   1  10
ATOM      9  N   UNL     1       7.139   4.458  14.706  0.00  0.00    +0.000 NA
ATOM     10  C   UNL     1       6.527   4.679  15.663  0.00  0.00    +0.000 C 
ENDBRANCH   1  10
BRANCH   5  11
ATOM     11  C   UNL     1       2.005   5.646  20.114  0.00  0.00    +0.000 C 
BRANCH  11  12
ATOM     12  C   UNL     1       1.554   4.447  20.946  0.00  0.00    +0.000 C 
BRANCH  12  13
ATOM     13  C   UNL     1       1.107   3.288  20.062  0.00  0.00    +0.000 C 
BRANCH  13  14
ATOM     14  C   UNL     1       2.259   2.634  19.377  0.00  0.00    +0.000 A 
ATOM     15  C   UNL     1       2.359   2.240  18.022  0.00  0.00    +0.000 A 
ATOM     16  C   UNL     1       3.612   1.689  17.905  0.00  0.00    +0.000 A 
ATOM     17  N   UNL     1       4.177   1.776  19.141  0.00  0.00    +0.000 N 
ATOM     18  N   UNL     1       3.378   2.349  20.057  0.00  0.00    +0.000 NA
ATOM     19  H   UNL     1       5.097   1.467  19.433  0.00  0.00    +0.000 HD
ENDBRANCH  13  14
ENDBRANCH  12  13
ENDBRANCH  11  12
ENDBRANCH   5  11
TORSDOF 5
ENDMDL
MODEL 3
REMARK VINA RESULT:      -6.1      1.798      3.265
REMARK  Name = 
REMARK  5 active torsions:
REMARK  status: ('A' for Active; 'I' for Inactive)
REMARK    1  A    between atoms: C_2  and  C_3
REMARK    2  A    between atoms: N_7  and  C_8
REMARK    3  A    between atoms: C_8  and  C_9
REMARK    4  A    between atoms: C_9  and  C_10
REMARK    5  A    between atoms: C_10  and  C_11
REMARK                            x       y       z     vdW  Elec       q    Type
REMARK                         _______ _______ _______ _____ _____    ______ ____
ROOT
ATOM      1  C   UNL     1       6.493   6.007  17.491  0.00  0.00    +0.000 A 
ATOM      2  C   UNL     1       5.800   5.540  16.379  0.00  0.00    +0.000 A 
ATOM      3  C   UNL     1       5.051   4.368  16.489  0.00  0.00    +0.000 A 
ATOM      4  C   UNL     1       5.001   3.688  17.704  0.00  0.00    +0.000 A 
ATOM      5  N   UNL     1       4.197   2.577  17.813  0.00  0.00    +0.000 N 
ATOM      6  N   UNL     1       5.649   4.156  18.791  0.00  0.00    +0.000 NA
ATOM      7  C   UNL     1       6.387   5.284  18.665  0.00  0.00    +0.000 A 
ATOM      8  H   UNL     1       4.037   1.999  17.002  0.00  0.00    +0.000 HD
ENDROOT
BRANCH   1  10
ATOM      9  N   UNL     1       7.926   8.154  17.384  0.00  0.00    +0.000 NA
ATOM     10  C   UNL     1       7.286   7.191  17.433  0.00  0.00    +0.000 C 
ENDBRANCH   1  10
BRANCH   5  11
ATOM     11  C   UNL     1       3.679   2.150  19.095  0.00  0.00    +0.000 C 
BRANCH  11  12
ATOM     12  C   UNL     1       2.153   2.177  19.024  0.00  0.00    +0.000 C 
BRANCH  12  13
ATOM     13  C   UNL     1       1.649   3.430  18.315  0.00  0.00    +0.000 C 
BRANCH  13  14
ATOM     14  C   UNL     1       1.862   4.657  19.136  0.00  0.00    +0.000 A 
ATOM     15  C   UNL     1       2.412   5.894  18.728  0.00  0.00    +0.000 A 
ATOM     16  C   UNL     1       2.387   6.682  19.853  0.00  0.00    +0.000 A 
ATOM     17  N   UNL     1       1.846   5.912  20.837  0.00  0.00    +0.000 N 
ATOM     18  N   UNL     1       1.513   4.676  20.429  0.00  0.00    +0.000 NA
ATOM     19  H   UNL     1       1.673   6.160  21.806  0.00  0.00    +0.000 HD
ENDBRANCH  13  14
ENDBRANCH  12  13
ENDBRANCH  11  12
ENDBRANCH   5  11
TORSDOF 5
ENDMDL
MODEL 4
REMARK VINA RESULT:      -6.1      1.042      1.336
REMARK  Name = 
REMARK  5 active torsions:
REMARK  status: ('A' for Active; 'I' for Inactive)
REMARK    1  A    between atoms: C_2  and  C_3
REMARK    2  A    between atoms: N_7  and  C_8
REMARK    3  A    between atoms: C_8  and  C_9
REMARK    4  A    between atoms: C_9  and  C_10
REMARK    5  A    between atoms: C_10  and  C_11
REMARK                            x       y       z     vdW  Elec       q    Type
REMARK                         _______ _______ _______ _____ _____    ______ ____
ROOT
ATOM      1  C   UNL     1       5.691   5.600  16.367  0.00  0.00    +0.000 A 
ATOM      2  C   UNL     1       5.026   6.819  16.432  0.00  0.00    +0.000 A 
ATOM      3  C   UNL     1       3.984   6.976  17.346  0.00  0.00    +0.000 A 
ATOM      4  C   UNL     1       3.630   5.919  18.182  0.00  0.00    +0.000 A 
ATOM      5  N   UNL     1       2.651   6.117  19.129  0.00  0.00    +0.000 N 
ATOM      6  N   UNL     1       4.293   4.745  18.141  0.00  0.00    +0.000 NA
ATOM      7  C   UNL     1       5.290   4.601  17.235  0.00  0.00    +0.000 A 
ATOM      8  H   UNL     1       1.907   6.773  18.944  0.00  0.00    +0.000 HD
ENDROOT
BRANCH   1  10
ATOM      9  N   UNL     1       7.614   5.200  14.689  0.00  0.00    +0.000 NA
ATOM     10  C   UNL     1       6.754   5.379  15.442  0.00  0.00    +0.000 C 
ENDBRANCH   1  10
BRANCH   5  11
ATOM     11  C   UNL     1       2.596   5.312  20.331  0.00  0.00    +0.000 C 
BRANCH  11  12
ATOM     12  C   UNL     1       1.174   4.776  20.479  0.00  0.00    +0.000 C 
BRANCH  12  13
ATOM     13  C   UNL     1       1.160   3.257  20.612  0.00  0.00    +0.000 C 
BRANCH  13  14
ATOM     14  C   UNL     1       1.933   2.596  19.521  0.00  0.00    +0.000 A 
ATOM     15  C   UNL     1       3.157   1.895  19.623  0.00  0.00    +0.000 A 
ATOM     16  C   UNL     1       3.440   1.488  18.341  0.00  0.00    +0.000 A 
ATOM     17  N   UNL     1       2.416   1.946  17.568  0.00  0.00    +0.000 N 
ATOM     18  N   UNL     1       1.483   2.621  18.260  0.00  0.00    +0.000 NA
ATOM     19  H   UNL     1       2.287   1.836  16.568  0.00  0.00    +0.000 HD
ENDBRANCH  13  14
ENDBRANCH  12  13
ENDBRANCH  11  12
ENDBRANCH   5  11
TORSDOF 5
ENDMDL
MODEL 5
REMARK VINA RESULT:      -6.0      2.178      3.284
REMARK  Name = 
REMARK  5 active torsions:
REMARK  status: ('A' for Active; 'I' for Inactive)
REMARK    1  A    between atoms: C_2  and  C_3
REMARK    2  A    between atoms: N_7  and  C_8
REMARK    3  A    between atoms: C_8  and  C_9
REMARK    4  A    between atoms: C_9  and  C_10
REMARK    5  A    between atoms: C_10  and  C_11
REMARK                            x       y       z     vdW  Elec       q    Type
REMARK                         _______ _______ _______ _____ _____    ______ ____
ROOT
ATOM      1  C   UNL     1       7.025   6.593  17.555  0.00  0.00    +0.000 A 
ATOM      2  C   UNL     1       7.049   5.970  16.312  0.00  0.00    +0.000 A 
ATOM      3  C   UNL     1       6.355   4.773  16.139  0.00  0.00    +0.000 A 
ATOM      4  C   UNL     1       5.645   4.223  17.205  0.00  0.00    +0.000 A 
ATOM      5  N   UNL     1       4.906   3.082  16.994  0.00  0.00    +0.000 N 
ATOM      6  N   UNL     1       5.597   4.841  18.403  0.00  0.00    +0.000 NA
ATOM      7  C   UNL     1       6.292   5.993  18.561  0.00  0.00    +0.000 A 
ATOM      8  H   UNL     1       5.210   2.413  16.303  0.00  0.00    +0.000 HD
ENDROOT
BRANCH   1  10
ATOM      9  N   UNL     1       8.295   8.801  17.986  0.00  0.00    +0.000 NA
ATOM     10  C   UNL     1       7.728   7.812  17.793  0.00  0.00    +0.000 C 
ENDBRANCH   1  10
BRANCH   5  11
ATOM     11  C   UNL     1       3.769   2.760  17.831  0.00  0.00    +0.000 C 
BRANCH  11  12
ATOM     12  C   UNL     1       2.519   3.354  17.183  0.00  0.00    +0.000 C 
BRANCH  12  13
ATOM     13  C   UNL     1       1.869   4.403  18.079  0.00  0.00    +0.000 C 
BRANCH  13  14
ATOM     14  C   UNL     1       1.748   3.931  19.489  0.00  0.00    +0.000 A 
ATOM     15  C   UNL     1       2.510   4.334  20.611  0.00  0.00    +0.000 A 
ATOM     16  C   UNL     1       2.006   3.606  21.661  0.00  0.00    +0.000 A 
ATOM     17  N   UNL     1       1.010   2.836  21.140  0.00  0.00    +0.000 N 
ATOM     18  N   UNL     1       0.829   3.016  19.821  0.00  0.00    +0.000 NA
ATOM     19  H   UNL     1       0.416   2.170  21.620  0.00  0.00    +0.000 HD
ENDBRANCH  13  14
ENDBRANCH  12  13
ENDBRANCH  11  12
ENDBRANCH   5  11
TORSDOF 5
ENDMDL
MODEL 6
REMARK VINA RESULT:      -6.0      1.599      5.293
REMARK  Name = 
REMARK  5 active torsions:
REMARK  status: ('A' for Active; 'I' for Inactive)
REMARK    1  A    between atoms: C_2  and  C_3
REMARK    2  A    between atoms: N_7  and  C_8
REMARK    3  A    between atoms: C_8  and  C_9
REMARK    4  A    between atoms: C_9  and  C_10
REMARK    5  A    between atoms: C_10  and  C_11
REMARK                            x       y       z     vdW  Elec       q    Type
REMARK                         _______ _______ _______ _____ _____    ______ ____
ROOT
ATOM      1  C   UNL     1       2.428   3.468  18.890  0.00  0.00    +0.000 A 
ATOM      2  C   UNL     1       2.350   4.805  19.265  0.00  0.00    +0.000 A 
ATOM      3  C   UNL     1       3.528   5.515  19.496  0.00  0.00    +0.000 A 
ATOM      4  C   UNL     1       4.760   4.883  19.343  0.00  0.00    +0.000 A 
ATOM      5  N   UNL     1       5.911   5.621  19.501  0.00  0.00    +0.000 N 
ATOM      6  N   UNL     1       4.839   3.595  18.951  0.00  0.00    +0.000 NA
ATOM      7  C   UNL     1       3.686   2.912  18.749  0.00  0.00    +0.000 A 
ATOM      8  H   UNL     1       5.917   6.401  20.140  0.00  0.00    +0.000 HD
ENDROOT
BRANCH   1  10
ATOM      9  N   UNL     1       0.309   2.054  18.463  0.00  0.00    +0.000 NA
ATOM     10  C   UNL     1       1.256   2.689  18.655  0.00  0.00    +0.000 C 
ENDBRANCH   1  10
BRANCH   5  11
ATOM     11  C   UNL     1       7.150   5.223  18.866  0.00  0.00    +0.000 C 
BRANCH  11  12
ATOM     12  C   UNL     1       7.690   6.420  18.087  0.00  0.00    +0.000 C 
BRANCH  12  13
ATOM     13  C   UNL     1       6.697   6.894  17.031  0.00  0.00    +0.000 C 
BRANCH  13  14
ATOM     14  C   UNL     1       6.465   5.860  15.982  0.00  0.00    +0.000 A 
ATOM     15  C   UNL     1       5.259   5.189  15.672  0.00  0.00    +0.000 A 
ATOM     16  C   UNL     1       5.579   4.343  14.638  0.00  0.00    +0.000 A 
ATOM     17  N   UNL     1       6.904   4.540  14.390  0.00  0.00    +0.000 N 
ATOM     18  N   UNL     1       7.468   5.460  15.190  0.00  0.00    +0.000 NA
ATOM     19  H   UNL     1       7.487   4.087  13.694  0.00  0.00    +0.000 HD
ENDBRANCH  13  14
ENDBRANCH  12  13
ENDBRANCH  11  12
ENDBRANCH   5  11
TORSDOF 5
ENDMDL
MODEL 7
REMARK VINA RESULT:      -5.8      2.088      5.923
REMARK  Name = 
REMARK  5 active torsions:
REMARK  status: ('A' for Active; 'I' for Inactive)
REMARK    1  A    between atoms: C_2  and  C_3
REMARK    2  A    between atoms: N_7  and  C_8
REMARK    3  A    between atoms: C_8  and  C_9
REMARK    4  A    between atoms: C_9  and  C_10
REMARK    5  A    between atoms: C_10  and  C_11
REMARK                            x       y       z     vdW  Elec       q    Type
REMARK                         _______ _______ _______ _____ _____    ______ ____
ROOT
ATOM      1  C   UNL     1       2.373   3.392  20.225  0.00  0.00    +0.000 A 
ATOM      2  C   UNL     1       1.838   4.499  19.576  0.00  0.00    +0.000 A 
ATOM      3  C   UNL     1       2.450   4.967  18.413  0.00  0.00    +0.000 A 
ATOM      4  C   UNL     1       3.579   4.319  17.916  0.00  0.00    +0.000 A 
ATOM      5  N   UNL     1       4.124   4.749  16.728  0.00  0.00    +0.000 N 
ATOM      6  N   UNL     1       4.082   3.227  18.528  0.00  0.00    +0.000 NA
ATOM      7  C   UNL     1       3.488   2.795  19.666  0.00  0.00    +0.000 A 
ATOM      8  H   UNL     1       4.052   5.721  16.471  0.00  0.00    +0.000 HD
ENDROOT
BRANCH   1  10
ATOM      9  N   UNL     1       1.332   2.461  22.399  0.00  0.00    +0.000 NA
ATOM     10  C   UNL     1       1.796   2.879  21.425  0.00  0.00    +0.000 C 
ENDBRANCH   1  10
BRANCH   5  11
ATOM     11  C   UNL     1       4.909   3.859  15.898  0.00  0.00    +0.000 C 
BRANCH  11  12
ATOM     12  C   UNL     1       5.616   4.700  14.837  0.00  0.00    +0.000 C 
BRANCH  12  13
ATOM     13  C   UNL     1       7.091   4.897  15.172  0.00  0.00    +0.000 C 
BRANCH  13  14
ATOM     14  C   UNL     1       7.283   5.400  16.563  0.00  0.00    +0.000 A 
ATOM     15  C   UNL     1       7.664   4.665  17.710  0.00  0.00    +0.000 A 
ATOM     16  C   UNL     1       7.696   5.588  18.727  0.00  0.00    +0.000 A 
ATOM     17  N   UNL     1       7.348   6.778  18.164  0.00  0.00    +0.000 N 
ATOM     18  N   UNL     1       7.094   6.695  16.847  0.00  0.00    +0.000 NA
ATOM     19  H   UNL     1       7.263   7.684  18.613  0.00  0.00    +0.000 HD
ENDBRANCH  13  14
ENDBRANCH  12  13
ENDBRANCH  11  12
ENDBRANCH   5  11
TORSDOF 5
ENDMDL
MODEL 8
REMARK VINA RESULT:      -5.8      2.398      3.522
REMARK  Name = 
REMARK  5 active torsions:
REMARK  status: ('A' for Active; 'I' for Inactive)
REMARK    1  A    between atoms: C_2  and  C_3
REMARK    2  A    between atoms: N_7  and  C_8
REMARK    3  A    between atoms: C_8  and  C_9
REMARK    4  A    between atoms: C_9  and  C_10
REMARK    5  A    between atoms: C_10  and  C_11
REMARK                            x       y       z     vdW  Elec       q    Type
REMARK                         _______ _______ _______ _____ _____    ______ ____
ROOT
ATOM      1  C   UNL     1       7.557   7.584  17.987  0.00  0.00    +0.000 A 
ATOM      2  C   UNL     1       8.061   6.505  18.704  0.00  0.00    +0.000 A 
ATOM      3  C   UNL     1       7.369   5.294  18.685  0.00  0.00    +0.000 A 
ATOM      4  C   UNL     1       6.192   5.179  17.947  0.00  0.00    +0.000 A 
ATOM      5  N   UNL     1       5.565   3.956  17.879  0.00  0.00    +0.000 N 
ATOM      6  N   UNL     1       5.718   6.216  17.227  0.00  0.00    +0.000 NA
ATOM      7  C   UNL     1       6.390   7.392  17.270  0.00  0.00    +0.000 A 
ATOM      8  H   UNL     1       5.636   3.318  18.657  0.00  0.00    +0.000 HD
ENDROOT
BRANCH   1  10
ATOM      9  N   UNL     1       8.750   9.875  17.975  0.00  0.00    +0.000 NA
ATOM     10  C   UNL     1       8.214   8.850  17.982  0.00  0.00    +0.000 C 
ENDBRANCH   1  10
BRANCH   5  11
ATOM     11  C   UNL     1       4.702   3.617  16.768  0.00  0.00    +0.000 C 
BRANCH  11  12
ATOM     12  C   UNL     1       3.440   2.964  17.329  0.00  0.00    +0.000 C 
BRANCH  12  13
ATOM     13  C   UNL     1       2.312   3.977  17.492  0.00  0.00    +0.000 C 
BRANCH  13  14
ATOM     14  C   UNL     1       2.223   4.490  18.890  0.00  0.00    +0.000 A 
ATOM     15  C   UNL     1       1.470   3.964  19.965  0.00  0.00    +0.000 A 
ATOM     16  C   UNL     1       1.733   4.799  21.024  0.00  0.00    +0.000 A 
ATOM     17  N   UNL     1       2.594   5.744  20.552  0.00  0.00    +0.000 N 
ATOM     18  N   UNL     1       2.912   5.579  19.257  0.00  0.00    +0.000 NA
ATOM     19  H   UNL     1       3.003   6.525  21.051  0.00  0.00    +0.000 HD
ENDBRANCH  13  14
ENDBRANCH  12  13
ENDBRANCH  11  12
ENDBRANCH   5  11
TORSDOF 5
ENDMDL
MODEL 9
REMARK VINA RESULT:      -5.8      2.036      6.142
REMARK  Name = 
REMARK  5 active torsions:
REMARK  status: ('A' for Active; 'I' for Inactive)
REMARK    1  A    between atoms: C_2  and  C_3
REMARK    2  A    between atoms: N_7  and  C_8
REMARK    3  A    between atoms: C_8  and  C_9
REMARK    4  A    between atoms: C_9  and  C_10
REMARK    5  A    between atoms: C_10  and  C_11
REMARK                            x       y       z     vdW  Elec       q    Type
REMARK                         _______ _______ _______ _____ _____    ______ ____
ROOT
ATOM      1  C   UNL     1       2.149   3.170  20.353  0.00  0.00    +0.000 A 
ATOM      2  C   UNL     1       2.282   2.368  19.225  0.00  0.00    +0.000 A 
ATOM      3  C   UNL     1       2.850   2.908  18.071  0.00  0.00    +0.000 A 
ATOM      4  C   UNL     1       3.282   4.233  18.065  0.00  0.00    +0.000 A 
ATOM      5  N   UNL     1       3.908   4.725  16.943  0.00  0.00    +0.000 N 
ATOM      6  N   UNL     1       3.180   5.004  19.168  0.00  0.00    +0.000 NA
ATOM      7  C   UNL     1       2.609   4.472  20.275  0.00  0.00    +0.000 A 
ATOM      8  H   UNL     1       3.659   4.361  16.036  0.00  0.00    +0.000 HD
ENDROOT
BRANCH   1  10
ATOM      9  N   UNL     1       1.090   2.276  22.533  0.00  0.00    +0.000 NA
ATOM     10  C   UNL     1       1.563   2.675  21.556  0.00  0.00    +0.000 C 
ENDBRANCH   1  10
BRANCH   5  11
ATOM     11  C   UNL     1       4.825   5.842  17.025  0.00  0.00    +0.000 C 
BRANCH  11  12
ATOM     12  C   UNL     1       6.212   5.348  16.616  0.00  0.00    +0.000 C 
BRANCH  12  13
ATOM     13  C   UNL     1       6.124   4.177  15.643  0.00  0.00    +0.000 C 
BRANCH  13  14
ATOM     14  C   UNL     1       6.737   4.503  14.323  0.00  0.00    +0.000 A 
ATOM     15  C   UNL     1       6.454   3.925  13.064  0.00  0.00    +0.000 A 
ATOM     16  C   UNL     1       7.285   4.572  12.182  0.00  0.00    +0.000 A 
ATOM     17  N   UNL     1       7.995   5.467  12.924  0.00  0.00    +0.000 N 
ATOM     18  N   UNL     1       7.680   5.450  14.230  0.00  0.00    +0.000 NA
ATOM     19  H   UNL     1       8.706   6.119  12.610  0.00  0.00    +0.000 HD
ENDBRANCH  13  14
ENDBRANCH  12  13
ENDBRANCH  11  12
ENDBRANCH   5  11
TORSDOF 5
ENDMDL
