MODEL 1
REMARK VINA RESULT:      -6.7      0.000      0.000
REMARK  Name = 
REMARK  3 active torsions:
REMARK  status: ('A' for Active; 'I' for Inactive)
REMARK    1  A    between atoms: N_2  and  N_4
REMARK    2  A    between atoms: N_10  and  C_11
REMARK    3  A    between atoms: C_11  and  C_12
REMARK                            x       y       z     vdW  Elec       q    Type
REMARK                         _______ _______ _______ _____ _____    ______ ____
ROOT
ATOM      1  N   UNL     1       3.316   6.490  19.270  0.00  0.00    +0.000 NA
ATOM      2  C   UNL     1       3.046   5.219  19.405  0.00  0.00    +0.000 A 
ATOM      3  C   UNL     1       1.649   4.627  19.539  0.00  0.00    +0.000 A 
ATOM      4  C   UNL     1       1.526   3.303  19.717  0.00  0.00    +0.000 A 
ATOM      5  C   UNL     1       2.668   2.425  19.761  0.00  0.00    +0.000 A 
ATOM      6  C   UNL     1       3.896   2.945  19.614  0.00  0.00    +0.000 A 
ATOM      7  N   UNL     1       4.129   4.305  19.428  0.00  0.00    +0.000 N 
ENDROOT
BRANCH   1   9
ATOM      8  O   UNL     1       2.014   7.838  18.119  0.00  0.00    +0.000 OA
ATOM      9  N   UNL     1       2.335   7.401  19.233  0.00  0.00    +0.000 N 
ATOM     10  O   UNL     1       1.840   7.825  20.283  0.00  0.00    +0.000 OA
ENDBRANCH   1   9
BRANCH   7  11
ATOM     11  C   UNL     1       5.510   4.800  19.270  0.00  0.00    +0.000 C 
BRANCH  11  12
ATOM     12  C   UNL     1       6.121   4.618  17.912  0.00  0.00    +0.000 A 
ATOM     13  C   UNL     1       7.441   4.680  17.501  0.00  0.00    +0.000 A 
ATOM     14  N   UNL     1       7.662   4.474  16.152  0.00  0.00    +0.000 NA
ATOM     15  C   UNL     1       6.509   4.272  15.567  0.00  0.00    +0.000 A 
ATOM     16 CL   UNL     1       6.361   4.007  13.879  0.00  0.00    +0.000 Cl
ATOM     17  S   UNL     1       5.124   4.276  16.549  0.00  0.00    +0.000 S 
ENDBRANCH  11  12
ENDBRANCH   7  11
TORSDOF 3
ENDMDL
MODEL 2
REMARK VINA RESULT:      -6.7      2.538      3.232
REMARK  Name = 
REMARK  3 active torsions:
REMARK  status: ('A' for Active; 'I' for Inactive)
REMARK    1  A    between atoms: N_2  and  N_4
REMARK    2  A    between atoms: N_10  and  C_11
REMARK    3  A    between atoms: C_11  and  C_12
REMARK                            x       y       z     vdW  Elec       q    Type
REMARK                         _______ _______ _______ _____ _____    ______ ____
ROOT
ATOM      1  N   UNL     1       2.930   3.162  19.718  0.00  0.00    +0.000 NA
ATOM      2  C   UNL     1       2.960   4.415  19.349  0.00  0.00    +0.000 A 
ATOM      3  C   UNL     1       2.319   5.570  20.108  0.00  0.00    +0.000 A 
ATOM      4  C   UNL     1       2.393   6.803  19.585  0.00  0.00    +0.000 A 
ATOM      5  C   UNL     1       3.077   7.072  18.346  0.00  0.00    +0.000 A 
ATOM      6  C   UNL     1       3.666   6.058  17.694  0.00  0.00    +0.000 A 
ATOM      7  N   UNL     1       3.644   4.743  18.152  0.00  0.00    +0.000 N 
ENDROOT
BRANCH   1   9
ATOM      8  O   UNL     1       3.017   2.585  21.838  0.00  0.00    +0.000 OA
ATOM      9  N   UNL     1       2.308   2.791  20.844  0.00  0.00    +0.000 N 
ATOM     10  O   UNL     1       1.086   2.599  20.846  0.00  0.00    +0.000 OA
ENDBRANCH   1   9
BRANCH   7  11
ATOM     11  C   UNL     1       4.319   3.683  17.379  0.00  0.00    +0.000 C 
BRANCH  11  12
ATOM     12  C   UNL     1       5.515   4.112  16.583  0.00  0.00    +0.000 A 
ATOM     13  C   UNL     1       6.802   4.424  16.985  0.00  0.00    +0.000 A 
ATOM     14  N   UNL     1       7.673   4.802  15.979  0.00  0.00    +0.000 NA
ATOM     15  C   UNL     1       7.027   4.780  14.840  0.00  0.00    +0.000 A 
ATOM     16 CL   UNL     1       7.761   5.217  13.353  0.00  0.00    +0.000 Cl
ATOM     17  S   UNL     1       5.402   4.290  14.873  0.00  0.00    +0.000 S 
ENDBRANCH  11  12
ENDBRANCH   7  11
TORSDOF 3
ENDMDL
MODEL 3
REMARK VINA RESULT:      -6.5      2.930      3.641
REMARK  Name = 
REMARK  3 active torsions:
REMARK  status: ('A' for Active; 'I' for Inactive)
REMARK    1  A    between atoms: N_2  and  N_4
REMARK    2  A    between atoms: N_10  and  C_11
REMARK    3  A    between atoms: C_11  and  C_12
REMARK                            x       y       z     vdW  Elec       q    Type
REMARK                         _______ _______ _______ _____ _____    ______ ____
ROOT
ATOM      1  N   UNL     1       4.886   3.037  19.752  0.00  0.00    +0.000 NA
ATOM      2  C   UNL     1       3.895   3.874  19.905  0.00  0.00    +0.000 A 
ATOM      3  C   UNL     1       2.525   3.519  20.471  0.00  0.00    +0.000 A 
ATOM      4  C   UNL     1       1.586   4.475  20.528  0.00  0.00    +0.000 A 
ATOM      5  C   UNL     1       1.838   5.826  20.095  0.00  0.00    +0.000 A 
ATOM      6  C   UNL     1       3.054   6.143  19.625  0.00  0.00    +0.000 A 
ATOM      7  N   UNL     1       4.095   5.224  19.522  0.00  0.00    +0.000 N 
ENDROOT
BRANCH   1   9
ATOM      8  O   UNL     1       5.229   1.419  21.201  0.00  0.00    +0.000 OA
ATOM      9  N   UNL     1       4.761   1.751  20.103  0.00  0.00    +0.000 N 
ATOM     10  O   UNL     1       4.263   0.937  19.318  0.00  0.00    +0.000 OA
ENDBRANCH   1   9
BRANCH   7  11
ATOM     11  C   UNL     1       5.406   5.651  18.998  0.00  0.00    +0.000 C 
BRANCH  11  12
ATOM     12  C   UNL     1       5.541   5.669  17.504  0.00  0.00    +0.000 A 
ATOM     13  C   UNL     1       5.052   6.559  16.565  0.00  0.00    +0.000 A 
ATOM     14  N   UNL     1       5.353   6.270  15.246  0.00  0.00    +0.000 NA
ATOM     15  C   UNL     1       6.052   5.164  15.212  0.00  0.00    +0.000 A 
ATOM     16 CL   UNL     1       6.594   4.457  13.746  0.00  0.00    +0.000 Cl
ATOM     17  S   UNL     1       6.422   4.427  16.697  0.00  0.00    +0.000 S 
ENDBRANCH  11  12
ENDBRANCH   7  11
TORSDOF 3
ENDMDL
MODEL 4
REMARK VINA RESULT:      -6.5      3.830      5.560
REMARK  Name = 
REMARK  3 active torsions:
REMARK  status: ('A' for Active; 'I' for Inactive)
REMARK    1  A    between atoms: N_2  and  N_4
REMARK    2  A    between atoms: N_10  and  C_11
REMARK    3  A    between atoms: C_11  and  C_12
REMARK                            x       y       z     vdW  Elec       q    Type
REMARK                         _______ _______ _______ _____ _____    ______ ____
ROOT
ATOM      1  N   UNL     1       6.238   5.720  18.745  0.00  0.00    +0.000 NA
ATOM      2  C   UNL     1       6.154   5.191  17.555  0.00  0.00    +0.000 A 
ATOM      3  C   UNL     1       7.339   4.742  16.707  0.00  0.00    +0.000 A 
ATOM      4  C   UNL     1       7.103   4.256  15.480  0.00  0.00    +0.000 A 
ATOM      5  C   UNL     1       5.770   4.121  14.949  0.00  0.00    +0.000 A 
ATOM      6  C   UNL     1       4.727   4.489  15.709  0.00  0.00    +0.000 A 
ATOM      7  N   UNL     1       4.865   5.008  16.993  0.00  0.00    +0.000 N 
ENDROOT
BRANCH   1   9
ATOM      8  O   UNL     1       8.160   6.783  18.851  0.00  0.00    +0.000 OA
ATOM      9  N   UNL     1       7.426   5.909  19.333  0.00  0.00    +0.000 N 
ATOM     10  O   UNL     1       7.781   5.182  20.267  0.00  0.00    +0.000 OA
ENDBRANCH   1   9
BRANCH   7  11
ATOM     11  C   UNL     1       3.668   5.386  17.768  0.00  0.00    +0.000 C 
BRANCH  11  12
ATOM     12  C   UNL     1       3.066   4.305  18.616  0.00  0.00    +0.000 A 
ATOM     13  C   UNL     1       2.779   2.984  18.323  0.00  0.00    +0.000 A 
ATOM     14  N   UNL     1       2.204   2.252  19.346  0.00  0.00    +0.000 NA
ATOM     15  C   UNL     1       2.058   3.033  20.386  0.00  0.00    +0.000 A 
ATOM     16 CL   UNL     1       1.348   2.497  21.853  0.00  0.00    +0.000 Cl
ATOM     17  S   UNL     1       2.605   4.634  20.243  0.00  0.00    +0.000 S 
ENDBRANCH  11  12
ENDBRANCH   7  11
TORSDOF 3
ENDMDL
MODEL 5
REMARK VINA RESULT:      -6.5      1.291      1.490
REMARK  Name = 
REMARK  3 active torsions:
REMARK  status: ('A' for Active; 'I' for Inactive)
REMARK    1  A    between atoms: N_2  and  N_4
REMARK    2  A    between atoms: N_10  and  C_11
REMARK    3  A    between atoms: C_11  and  C_12
REMARK                            x       y       z     vdW  Elec       q    Type
REMARK                         _______ _______ _______ _____ _____    ______ ____
ROOT
ATOM      1  N   UNL     1       3.653   6.300  18.427  0.00  0.00    +0.000 NA
ATOM      2  C   UNL     1       3.172   5.099  18.252  0.00  0.00    +0.000 A 
ATOM      3  C   UNL     1       1.693   4.755  18.127  0.00  0.00    +0.000 A 
ATOM      4  C   UNL     1       1.341   3.467  17.995  0.00  0.00    +0.000 A 
ATOM      5  C   UNL     1       2.315   2.406  17.945  0.00  0.00    +0.000 A 
ATOM      6  C   UNL     1       3.618   2.714  18.027  0.00  0.00    +0.000 A 
ATOM      7  N   UNL     1       4.085   4.018  18.168  0.00  0.00    +0.000 N 
ENDROOT
BRANCH   1   9
ATOM      8  O   UNL     1       2.246   7.538  19.577  0.00  0.00    +0.000 OA
ATOM      9  N   UNL     1       2.842   7.362  18.505  0.00  0.00    +0.000 N 
ATOM     10  O   UNL     1       2.657   8.078  17.515  0.00  0.00    +0.000 OA
ENDBRANCH   1   9
BRANCH   7  11
ATOM     11  C   UNL     1       5.536   4.276  18.246  0.00  0.00    +0.000 C 
BRANCH  11  12
ATOM     12  C   UNL     1       6.205   4.662  16.961  0.00  0.00    +0.000 A 
ATOM     13  C   UNL     1       7.103   5.676  16.680  0.00  0.00    +0.000 A 
ATOM     14  N   UNL     1       7.521   5.765  15.365  0.00  0.00    +0.000 NA
ATOM     15  C   UNL     1       6.923   4.826  14.675  0.00  0.00    +0.000 A 
ATOM     16 CL   UNL     1       7.160   4.626  12.988  0.00  0.00    +0.000 Cl
ATOM     17  S   UNL     1       5.883   3.781  15.515  0.00  0.00    +0.000 S 
ENDBRANCH  11  12
ENDBRANCH   7  11
TORSDOF 3
ENDMDL
MODEL 6
REMARK VINA RESULT:      -6.4      2.892      3.582
REMARK  Name = 
REMARK  3 active torsions:
REMARK  status: ('A' for Active; 'I' for Inactive)
REMARK    1  A    between atoms: N_2  and  N_4
REMARK    2  A    between atoms: N_10  and  C_11
REMARK    3  A    between atoms: C_11  and  C_12
REMARK                            x       y       z     vdW  Elec       q    Type
REMARK                         _______ _______ _______ _____ _____    ______ ____
ROOT
ATOM      1  N   UNL     1       5.005   2.777  19.782  0.00  0.00    +0.000 NA
ATOM      2  C   UNL     1       3.873   3.256  19.342  0.00  0.00    +0.000 A 
ATOM      3  C   UNL     1       2.528   2.544  19.419  0.00  0.00    +0.000 A 
ATOM      4  C   UNL     1       1.453   3.140  18.882  0.00  0.00    +0.000 A 
ATOM      5  C   UNL     1       1.525   4.438  18.260  0.00  0.00    +0.000 A 
ATOM      6  C   UNL     1       2.705   5.076  18.219  0.00  0.00    +0.000 A 
ATOM      7  N   UNL     1       3.878   4.541  18.744  0.00  0.00    +0.000 N 
ENDROOT
BRANCH   1   9
ATOM      8  O   UNL     1       5.298   1.545  21.581  0.00  0.00    +0.000 OA
ATOM      9  N   UNL     1       5.063   1.573  20.365  0.00  0.00    +0.000 N 
ATOM     10  O   UNL     1       4.956   0.547  19.684  0.00  0.00    +0.000 OA
ENDBRANCH   1   9
BRANCH   7  11
ATOM     11  C   UNL     1       5.137   5.307  18.664  0.00  0.00    +0.000 C 
BRANCH  11  12
ATOM     12  C   UNL     1       5.855   5.254  17.348  0.00  0.00    +0.000 A 
ATOM     13  C   UNL     1       6.952   5.961  16.890  0.00  0.00    +0.000 A 
ATOM     14  N   UNL     1       7.358   5.674  15.600  0.00  0.00    +0.000 NA
ATOM     15  C   UNL     1       6.557   4.766  15.104  0.00  0.00    +0.000 A 
ATOM     16 CL   UNL     1       6.716   4.165  13.505  0.00  0.00    +0.000 Cl
ATOM     17  S   UNL     1       5.322   4.179  16.111  0.00  0.00    +0.000 S 
ENDBRANCH  11  12
ENDBRANCH   7  11
TORSDOF 3
ENDMDL
MODEL 7
REMARK VINA RESULT:      -6.3      2.560      3.311
REMARK  Name = 
REMARK  3 active torsions:
REMARK  status: ('A' for Active; 'I' for Inactive)
REMARK    1  A    between atoms: N_2  and  N_4
REMARK    2  A    between atoms: N_10  and  C_11
REMARK    3  A    between atoms: C_11  and  C_12
REMARK                            x       y       z     vdW  Elec       q    Type
REMARK                         _______ _______ _______ _____ _____    ______ ____
ROOT
ATOM      1  N   UNL     1       3.770   3.308  19.117  0.00  0.00    +0.000 NA
ATOM      2  C   UNL     1       3.528   4.541  18.763  0.00  0.00    +0.000 A 
ATOM      3  C   UNL     1       2.223   5.287  19.012  0.00  0.00    +0.000 A 
ATOM      4  C   UNL     1       2.100   6.540  18.550  0.00  0.00    +0.000 A 
ATOM      5  C   UNL     1       3.167   7.209  17.850  0.00  0.00    +0.000 A 
ATOM      6  C   UNL     1       4.326   6.561  17.657  0.00  0.00    +0.000 A 
ATOM      7  N   UNL     1       4.552   5.258  18.094  0.00  0.00    +0.000 N 
ENDROOT
BRANCH   1   9
ATOM      8  O   UNL     1       2.867   2.612  20.997  0.00  0.00    +0.000 OA
ATOM      9  N   UNL     1       2.847   2.582  19.759  0.00  0.00    +0.000 N 
ATOM     10  O   UNL     1       2.066   1.865  19.123  0.00  0.00    +0.000 OA
ENDBRANCH   1   9
BRANCH   7  11
ATOM     11  C   UNL     1       5.856   4.614  17.847  0.00  0.00    +0.000 C 
BRANCH  11  12
ATOM     12  C   UNL     1       6.360   4.673  16.435  0.00  0.00    +0.000 A 
ATOM     13  C   UNL     1       7.348   5.453  15.861  0.00  0.00    +0.000 A 
ATOM     14  N   UNL     1       7.555   5.263  14.507  0.00  0.00    +0.000 NA
ATOM     15  C   UNL     1       6.715   4.354  14.081  0.00  0.00    +0.000 A 
ATOM     16 CL   UNL     1       6.640   3.860  12.440  0.00  0.00    +0.000 Cl
ATOM     17  S   UNL     1       5.674   3.654  15.226  0.00  0.00    +0.000 S 
ENDBRANCH  11  12
ENDBRANCH   7  11
TORSDOF 3
ENDMDL
MODEL 8
REMARK VINA RESULT:      -6.2      1.126      1.248
REMARK  Name = 
REMARK  3 active torsions:
REMARK  status: ('A' for Active; 'I' for Inactive)
REMARK    1  A    between atoms: N_2  and  N_4
REMARK    2  A    between atoms: N_10  and  C_11
REMARK    3  A    between atoms: C_11  and  C_12
REMARK                            x       y       z     vdW  Elec       q    Type
REMARK                         _______ _______ _______ _____ _____    ______ ____
ROOT
ATOM      1  N   UNL     1       3.199   6.347  19.349  0.00  0.00    +0.000 NA
ATOM      2  C   UNL     1       2.810   5.154  19.710  0.00  0.00    +0.000 A 
ATOM      3  C   UNL     1       1.396   4.784  20.142  0.00  0.00    +0.000 A 
ATOM      4  C   UNL     1       1.152   3.524  20.531  0.00  0.00    +0.000 A 
ATOM      5  C   UNL     1       2.173   2.508  20.530  0.00  0.00    +0.000 A 
ATOM      6  C   UNL     1       3.410   2.829  20.122  0.00  0.00    +0.000 A 
ATOM      7  N   UNL     1       3.766   4.108  19.703  0.00  0.00    +0.000 N 
ENDROOT
BRANCH   1   9
ATOM      8  O   UNL     1       2.020   7.818  18.216  0.00  0.00    +0.000 OA
ATOM      9  N   UNL     1       2.340   7.374  19.327  0.00  0.00    +0.000 N 
ATOM     10  O   UNL     1       1.954   7.885  20.384  0.00  0.00    +0.000 OA
ENDBRANCH   1   9
BRANCH   7  11
ATOM     11  C   UNL     1       5.148   4.381  19.264  0.00  0.00    +0.000 C 
BRANCH  11  12
ATOM     12  C   UNL     1       5.376   4.397  17.782  0.00  0.00    +0.000 A 
ATOM     13  C   UNL     1       4.556   4.004  16.739  0.00  0.00    +0.000 A 
ATOM     14  N   UNL     1       5.087   4.141  15.470  0.00  0.00    +0.000 NA
ATOM     15  C   UNL     1       6.300   4.623  15.576  0.00  0.00    +0.000 A 
ATOM     16 CL   UNL     1       7.304   4.908  14.216  0.00  0.00    +0.000 Cl
ATOM     17  S   UNL     1       6.867   4.971  17.138  0.00  0.00    +0.000 S 
ENDBRANCH  11  12
ENDBRANCH   7  11
TORSDOF 3
ENDMDL
MODEL 9
REMARK VINA RESULT:      -6.2      4.219      5.982
REMARK  Name = 
REMARK  3 active torsions:
REMARK  status: ('A' for Active; 'I' for Inactive)
REMARK    1  A    between atoms: N_2  and  N_4
REMARK    2  A    between atoms: N_10  and  C_11
REMARK    3  A    between atoms: C_11  and  C_12
REMARK                            x       y       z     vdW  Elec       q    Type
REMARK                         _______ _______ _______ _____ _____    ______ ____
ROOT
ATOM      1  N   UNL     1       5.814   4.172  15.496  0.00  0.00    +0.000 NA
ATOM      2  C   UNL     1       5.146   5.094  16.135  0.00  0.00    +0.000 A 
ATOM      3  C   UNL     1       5.253   6.593  15.880  0.00  0.00    +0.000 A 
ATOM      4  C   UNL     1       4.537   7.428  16.647  0.00  0.00    +0.000 A 
ATOM      5  C   UNL     1       3.656   6.955  17.683  0.00  0.00    +0.000 A 
ATOM      6  C   UNL     1       3.541   5.634  17.887  0.00  0.00    +0.000 A 
ATOM      7  N   UNL     1       4.243   4.685  17.148  0.00  0.00    +0.000 N 
ENDROOT
BRANCH   1   9
ATOM      8  O   UNL     1       6.444   4.043  13.393  0.00  0.00    +0.000 OA
ATOM      9  N   UNL     1       6.675   4.495  14.523  0.00  0.00    +0.000 N 
ATOM     10  O   UNL     1       7.687   5.156  14.782  0.00  0.00    +0.000 OA
ENDBRANCH   1   9
BRANCH   7  11
ATOM     11  C   UNL     1       4.059   3.249  17.430  0.00  0.00    +0.000 C 
BRANCH  11  12
ATOM     12  C   UNL     1       3.012   2.908  18.448  0.00  0.00    +0.000 A 
ATOM     13  C   UNL     1       1.691   2.529  18.291  0.00  0.00    +0.000 A 
ATOM     14  N   UNL     1       0.987   2.298  19.459  0.00  0.00    +0.000 NA
ATOM     15  C   UNL     1       1.784   2.518  20.475  0.00  0.00    +0.000 A 
ATOM     16 CL   UNL     1       1.268   2.367  22.104  0.00  0.00    +0.000 Cl
ATOM     17  S   UNL     1       3.384   2.966  20.130  0.00  0.00    +0.000 S 
ENDBRANCH  11  12
ENDBRANCH   7  11
TORSDOF 3
ENDMDL
