MODEL 1
REMARK VINA RESULT:      -7.9      0.000      0.000
REMARK  Name = 
REMARK  8 active torsions:
REMARK  status: ('A' for Active; 'I' for Inactive)
REMARK    1  A    between atoms: C_1  and  C_2
REMARK    2  A    between atoms: C_2  and  N_3
REMARK    3  A    between atoms: C_5  and  C_6
REMARK    4  A    between atoms: C_6  and  O_8
REMARK    5  A    between atoms: C_15  and  N_16
REMARK    6  A    between atoms: C_23  and  C_24
REMARK    7  A    between atoms: C_27  and  O_28
REMARK    8  A    between atoms: O_28  and  C_29
REMARK                            x       y       z     vdW  Elec       q    Type
REMARK                         _______ _______ _______ _____ _____    ______ ____
ROOT
ATOM      1  N   UNL     1       0.702   9.722  19.988  0.00  0.00    +0.000 N 
ATOM      2  C   UNL     1       0.878  10.283  21.336  0.00  0.00    +0.000 C 
ATOM      3  C   UNL     1       0.559  11.792  21.283  0.00  0.00    +0.000 C 
ATOM      4  N   UNL     1      -0.800  11.980  20.755  0.00  0.00    +0.000 N 
ATOM      5  C   UNL     1      -1.518  13.050  21.138  0.00  0.00    +0.000 A 
ATOM      6  N   UNL     1      -2.545  13.656  20.583  0.00  0.00    +0.000 NA
ATOM      7  N   UNL     1      -2.855  14.735  21.394  0.00  0.00    +0.000 NA
ATOM      8  C   UNL     1      -2.013  14.685  22.405  0.00  0.00    +0.000 A 
ATOM      9  O   UNL     1      -1.160  13.625  22.322  0.00  0.00    +0.000 OA
ATOM     10  C   UNL     1      -0.975  11.448  19.392  0.00  0.00    +0.000 C 
ATOM     11  C   UNL     1      -0.641   9.941  19.394  0.00  0.00    +0.000 C 
ENDROOT
BRANCH   1  21
ATOM     12  N   UNL     1       2.599   5.212  19.910  0.00  0.00    +0.000 N 
ATOM     13  C   UNL     1       3.276   4.253  19.161  0.00  0.00    +0.000 A 
ATOM     14  C   UNL     1       3.943   4.455  18.007  0.00  0.00    +0.000 A 
ATOM     15  C   UNL     1       3.941   5.829  17.476  0.00  0.00    +0.000 A 
ATOM     16  O   UNL     1       4.564   6.094  16.454  0.00  0.00    +0.000 OA
ATOM     17  C   UNL     1       3.153   6.850  18.192  0.00  0.00    +0.000 A 
ATOM     18  C   UNL     1       2.998   8.093  17.584  0.00  0.00    +0.000 A 
ATOM     19  C   UNL     1       2.173   9.028  18.182  0.00  0.00    +0.000 A 
ATOM     20  F   UNL     1       1.990  10.191  17.537  0.00  0.00    +0.000 F 
ATOM     21  C   UNL     1       1.557   8.795  19.422  0.00  0.00    +0.000 A 
ATOM     22  C   UNL     1       1.826   7.571  20.056  0.00  0.00    +0.000 A 
ATOM     23  C   UNL     1       2.532   6.534  19.416  0.00  0.00    +0.000 A 
BRANCH  12  25
ATOM     24  C   UNL     1       1.275   3.394  20.994  0.00  0.00    +0.000 C 
ATOM     25  C   UNL     1       1.762   4.837  21.074  0.00  0.00    +0.000 C 
ENDBRANCH  12  25
BRANCH  14  26
ATOM     26  C   UNL     1       4.619   3.346  17.300  0.00  0.00    +0.000 C 
ATOM     27  O   UNL     1       4.141   2.218  17.226  0.00  0.00    +0.000 OA
BRANCH  26  28
ATOM     28  O   UNL     1       5.801   3.651  16.727  0.00  0.00    +0.000 OA
ATOM     29  H   UNL     1       6.420   4.167  17.302  0.00  0.00    +0.000 HD
ENDBRANCH  26  28
ENDBRANCH  14  26
ENDBRANCH   1  21
BRANCH   8  30
ATOM     30  C   UNL     1      -1.834  15.558  23.557  0.00  0.00    +0.000 A 
ATOM     31  C   UNL     1      -1.714  16.941  23.390  0.00  0.00    +0.000 A 
ATOM     32  C   UNL     1      -1.513  17.774  24.498  0.00  0.00    +0.000 A 
ATOM     33  C   UNL     1      -1.446  17.244  25.789  0.00  0.00    +0.000 A 
ATOM     34  C   UNL     1      -1.574  15.870  25.967  0.00  0.00    +0.000 A 
ATOM     35  C   UNL     1      -1.763  15.036  24.858  0.00  0.00    +0.000 A 
BRANCH  33  36
ATOM     36  O   UNL     1      -1.195  18.150  26.781  0.00  0.00    +0.000 OA
ATOM     37  C   UNL     1      -0.066  17.889  27.607  0.00  0.00    +0.000 C 
ENDBRANCH  33  36
ENDBRANCH   8  30
TORSDOF 6
ENDMDL
MODEL 2
REMARK VINA RESULT:      -7.9      2.676     12.059
REMARK  Name = 
REMARK  8 active torsions:
REMARK  status: ('A' for Active; 'I' for Inactive)
REMARK    1  A    between atoms: C_1  and  C_2
REMARK    2  A    between atoms: C_2  and  N_3
REMARK    3  A    between atoms: C_5  and  C_6
REMARK    4  A    between atoms: C_6  and  O_8
REMARK    5  A    between atoms: C_15  and  N_16
REMARK    6  A    between atoms: C_23  and  C_24
REMARK    7  A    between atoms: C_27  and  O_28
REMARK    8  A    between atoms: O_28  and  C_29
REMARK                            x       y       z     vdW  Elec       q    Type
REMARK                         _______ _______ _______ _____ _____    ______ ____
ROOT
ATOM      1  N   UNL     1      -0.938  12.009  21.137  0.00  0.00    +0.000 N 
ATOM      2  C   UNL     1      -0.497  10.714  21.677  0.00  0.00    +0.000 C 
ATOM      3  C   UNL     1      -0.301   9.735  20.500  0.00  0.00    +0.000 C 
ATOM      4  N   UNL     1       0.655  10.315  19.544  0.00  0.00    +0.000 N 
ATOM      5  C   UNL     1       1.423   9.501  18.800  0.00  0.00    +0.000 A 
ATOM      6  N   UNL     1       2.053   9.697  17.662  0.00  0.00    +0.000 NA
ATOM      7  N   UNL     1       2.658   8.495  17.332  0.00  0.00    +0.000 NA
ATOM      8  C   UNL     1       2.378   7.664  18.314  0.00  0.00    +0.000 A 
ATOM      9  O   UNL     1       1.627   8.245  19.291  0.00  0.00    +0.000 OA
ATOM     10  C   UNL     1       0.204  11.597  18.975  0.00  0.00    +0.000 C 
ATOM     11  C   UNL     1      -0.029  12.602  20.124  0.00  0.00    +0.000 C 
ENDROOT
BRANCH   1  21
ATOM     12  N   UNL     1      -2.269  15.359  24.446  0.00  0.00    +0.000 N 
ATOM     13  C   UNL     1      -3.225  16.298  24.824  0.00  0.00    +0.000 A 
ATOM     14  C   UNL     1      -4.478  16.413  24.338  0.00  0.00    +0.000 A 
ATOM     15  C   UNL     1      -4.867  15.456  23.289  0.00  0.00    +0.000 A 
ATOM     16  O   UNL     1      -6.006  15.474  22.832  0.00  0.00    +0.000 OA
ATOM     17  C   UNL     1      -3.849  14.510  22.795  0.00  0.00    +0.000 A 
ATOM     18  C   UNL     1      -4.164  13.743  21.678  0.00  0.00    +0.000 A 
ATOM     19  C   UNL     1      -3.186  12.931  21.131  0.00  0.00    +0.000 A 
ATOM     20  F   UNL     1      -3.500  12.257  20.013  0.00  0.00    +0.000 F 
ATOM     21  C   UNL     1      -1.919  12.792  21.717  0.00  0.00    +0.000 A 
ATOM     22  C   UNL     1      -1.676  13.498  22.906  0.00  0.00    +0.000 A 
ATOM     23  C   UNL     1      -2.584  14.450  23.411  0.00  0.00    +0.000 A 
BRANCH  12  25
ATOM     24  C   UNL     1      -0.779  16.036  26.332  0.00  0.00    +0.000 C 
ATOM     25  C   UNL     1      -0.871  15.438  24.932  0.00  0.00    +0.000 C 
ENDBRANCH  12  25
BRANCH  14  26
ATOM     26  C   UNL     1      -5.400  17.463  24.819  0.00  0.00    +0.000 C 
ATOM     27  O   UNL     1      -5.344  17.925  25.955  0.00  0.00    +0.000 OA
BRANCH  26  28
ATOM     28  O   UNL     1      -6.311  17.897  23.925  0.00  0.00    +0.000 OA
ATOM     29  H   UNL     1      -7.233  17.976  24.278  0.00  0.00    +0.000 HD
ENDBRANCH  26  28
ENDBRANCH  14  26
ENDBRANCH   1  21
BRANCH   8  30
ATOM     30  C   UNL     1       2.713   6.261  18.517  0.00  0.00    +0.000 A 
ATOM     31  C   UNL     1       3.860   5.898  19.229  0.00  0.00    +0.000 A 
ATOM     32  C   UNL     1       4.193   4.548  19.397  0.00  0.00    +0.000 A 
ATOM     33  C   UNL     1       3.380   3.540  18.874  0.00  0.00    +0.000 A 
ATOM     34  C   UNL     1       2.230   3.890  18.172  0.00  0.00    +0.000 A 
ATOM     35  C   UNL     1       1.903   5.240  17.994  0.00  0.00    +0.000 A 
BRANCH  33  36
ATOM     36  O   UNL     1       3.836   2.265  19.058  0.00  0.00    +0.000 OA
ATOM     37  C   UNL     1       4.515   2.006  20.282  0.00  0.00    +0.000 C 
ENDBRANCH  33  36
ENDBRANCH   8  30
TORSDOF 6
ENDMDL
MODEL 3
REMARK VINA RESULT:      -7.8      2.486     11.975
REMARK  Name = 
REMARK  8 active torsions:
REMARK  status: ('A' for Active; 'I' for Inactive)
REMARK    1  A    between atoms: C_1  and  C_2
REMARK    2  A    between atoms: C_2  and  N_3
REMARK    3  A    between atoms: C_5  and  C_6
REMARK    4  A    between atoms: C_6  and  O_8
REMARK    5  A    between atoms: C_15  and  N_16
REMARK    6  A    between atoms: C_23  and  C_24
REMARK    7  A    between atoms: C_27  and  O_28
REMARK    8  A    between atoms: O_28  and  C_29
REMARK                            x       y       z     vdW  Elec       q    Type
REMARK                         _______ _______ _______ _____ _____    ______ ____
ROOT
ATOM      1  N   UNL     1       0.024  10.538  19.696  0.00  0.00    +0.000 N 
ATOM      2  C   UNL     1       0.490  10.119  18.365  0.00  0.00    +0.000 C 
ATOM      3  C   UNL     1       1.833   9.377  18.528  0.00  0.00    +0.000 C 
ATOM      4  N   UNL     1       1.652   8.249  19.454  0.00  0.00    +0.000 N 
ATOM      5  C   UNL     1       2.420   7.154  19.323  0.00  0.00    +0.000 A 
ATOM      6  N   UNL     1       2.739   6.205  20.176  0.00  0.00    +0.000 NA
ATOM      7  N   UNL     1       3.599   5.346  19.511  0.00  0.00    +0.000 NA
ATOM      8  C   UNL     1       3.714   5.820  18.288  0.00  0.00    +0.000 A 
ATOM      9  O   UNL     1       2.969   6.945  18.092  0.00  0.00    +0.000 OA
ATOM     10  C   UNL     1       1.216   8.664  20.799  0.00  0.00    +0.000 C 
ATOM     11  C   UNL     1      -0.116   9.434  20.679  0.00  0.00    +0.000 C 
ENDROOT
BRANCH   1  21
ATOM     12  N   UNL     1      -2.817  13.361  22.507  0.00  0.00    +0.000 N 
ATOM     13  C   UNL     1      -3.164  14.660  22.868  0.00  0.00    +0.000 A 
ATOM     14  C   UNL     1      -2.857  15.790  22.200  0.00  0.00    +0.000 A 
ATOM     15  C   UNL     1      -2.059  15.635  20.972  0.00  0.00    +0.000 A 
ATOM     16  O   UNL     1      -1.781  16.616  20.291  0.00  0.00    +0.000 OA
ATOM     17  C   UNL     1      -1.591  14.283  20.612  0.00  0.00    +0.000 A 
ATOM     18  C   UNL     1      -0.683  14.169  19.565  0.00  0.00    +0.000 A 
ATOM     19  C   UNL     1      -0.145  12.926  19.282  0.00  0.00    +0.000 A 
ATOM     20  F   UNL     1       0.780  12.860  18.311  0.00  0.00    +0.000 F 
ATOM     21  C   UNL     1      -0.551  11.766  19.960  0.00  0.00    +0.000 A 
ATOM     22  C   UNL     1      -1.551  11.906  20.936  0.00  0.00    +0.000 A 
ATOM     23  C   UNL     1      -2.012  13.167  21.361  0.00  0.00    +0.000 A 
BRANCH  12  25
ATOM     24  C   UNL     1      -4.140  12.520  24.451  0.00  0.00    +0.000 C 
ATOM     25  C   UNL     1      -3.067  12.212  23.411  0.00  0.00    +0.000 C 
ENDBRANCH  12  25
BRANCH  14  26
ATOM     26  C   UNL     1      -3.281  17.118  22.693  0.00  0.00    +0.000 C 
ATOM     27  O   UNL     1      -4.448  17.382  22.967  0.00  0.00    +0.000 OA
BRANCH  26  28
ATOM     28  O   UNL     1      -2.299  18.032  22.833  0.00  0.00    +0.000 OA
ATOM     29  H   UNL     1      -2.419  18.855  22.296  0.00  0.00    +0.000 HD
ENDBRANCH  26  28
ENDBRANCH  14  26
ENDBRANCH   1  21
BRANCH   8  30
ATOM     30  C   UNL     1       4.495   5.366  17.146  0.00  0.00    +0.000 A 
ATOM     31  C   UNL     1       4.949   6.276  16.186  0.00  0.00    +0.000 A 
ATOM     32  C   UNL     1       5.676   5.831  15.074  0.00  0.00    +0.000 A 
ATOM     33  C   UNL     1       5.976   4.477  14.911  0.00  0.00    +0.000 A 
ATOM     34  C   UNL     1       5.538   3.564  15.866  0.00  0.00    +0.000 A 
ATOM     35  C   UNL     1       4.801   4.007  16.971  0.00  0.00    +0.000 A 
BRANCH  33  36
ATOM     36  O   UNL     1       6.644   4.160  13.762  0.00  0.00    +0.000 OA
ATOM     37  C   UNL     1       5.886   3.514  12.745  0.00  0.00    +0.000 C 
ENDBRANCH  33  36
ENDBRANCH   8  30
TORSDOF 6
ENDMDL
MODEL 4
REMARK VINA RESULT:      -7.7      3.316     11.850
REMARK  Name = 
REMARK  8 active torsions:
REMARK  status: ('A' for Active; 'I' for Inactive)
REMARK    1  A    between atoms: C_1  and  C_2
REMARK    2  A    between atoms: C_2  and  N_3
REMARK    3  A    between atoms: C_5  and  C_6
REMARK    4  A    between atoms: C_6  and  O_8
REMARK    5  A    between atoms: C_15  and  N_16
REMARK    6  A    between atoms: C_23  and  C_24
REMARK    7  A    between atoms: C_27  and  O_28
REMARK    8  A    between atoms: O_28  and  C_29
REMARK                            x       y       z     vdW  Elec       q    Type
REMARK                         _______ _______ _______ _____ _____    ______ ____
ROOT
ATOM      1  N   UNL     1      -0.720  11.845  20.778  0.00  0.00    +0.000 N 
ATOM      2  C   UNL     1      -0.206  10.612  21.392  0.00  0.00    +0.000 C 
ATOM      3  C   UNL     1      -0.001   9.561  20.281  0.00  0.00    +0.000 C 
ATOM      4  N   UNL     1       0.900  10.111  19.256  0.00  0.00    +0.000 N 
ATOM      5  C   UNL     1       1.682   9.280  18.546  0.00  0.00    +0.000 A 
ATOM      6  N   UNL     1       2.269   9.421  17.378  0.00  0.00    +0.000 NA
ATOM      7  N   UNL     1       2.917   8.226  17.112  0.00  0.00    +0.000 NA
ATOM      8  C   UNL     1       2.704   7.455  18.159  0.00  0.00    +0.000 A 
ATOM      9  O   UNL     1       1.956   8.072  19.117  0.00  0.00    +0.000 OA
ATOM     10  C   UNL     1       0.375  11.329  18.614  0.00  0.00    +0.000 C 
ATOM     11  C   UNL     1       0.131  12.402  19.697  0.00  0.00    +0.000 C 
ENDROOT
BRANCH   1  21
ATOM     12  N   UNL     1      -5.401  13.265  20.904  0.00  0.00    +0.000 N 
ATOM     13  C   UNL     1      -6.408  13.873  21.649  0.00  0.00    +0.000 A 
ATOM     14  C   UNL     1      -6.249  14.610  22.767  0.00  0.00    +0.000 A 
ATOM     15  C   UNL     1      -4.870  14.775  23.257  0.00  0.00    +0.000 A 
ATOM     16  O   UNL     1      -4.647  15.470  24.243  0.00  0.00    +0.000 OA
ATOM     17  C   UNL     1      -3.789  14.065  22.547  0.00  0.00    +0.000 A 
ATOM     18  C   UNL     1      -2.523  14.069  23.125  0.00  0.00    +0.000 A 
ATOM     19  C   UNL     1      -1.521  13.318  22.537  0.00  0.00    +0.000 A 
ATOM     20  F   UNL     1      -0.330  13.287  23.155  0.00  0.00    +0.000 F 
ATOM     21  C   UNL     1      -1.718  12.624  21.333  0.00  0.00    +0.000 A 
ATOM     22  C   UNL     1      -2.978  12.735  20.723  0.00  0.00    +0.000 A 
ATOM     23  C   UNL     1      -4.067  13.359  21.361  0.00  0.00    +0.000 A 
BRANCH  12  25
ATOM     24  C   UNL     1      -6.679  11.235  20.208  0.00  0.00    +0.000 C 
ATOM     25  C   UNL     1      -5.714  12.340  19.788  0.00  0.00    +0.000 C 
ENDBRANCH  12  25
BRANCH  14  26
ATOM     26  C   UNL     1      -7.405  15.200  23.475  0.00  0.00    +0.000 C 
ATOM     27  O   UNL     1      -7.917  16.264  23.138  0.00  0.00    +0.000 OA
BRANCH  26  28
ATOM     28  O   UNL     1      -7.877  14.489  24.519  0.00  0.00    +0.000 OA
ATOM     29  H   UNL     1      -7.430  14.675  25.383  0.00  0.00    +0.000 HD
ENDBRANCH  26  28
ENDBRANCH  14  26
ENDBRANCH   1  21
BRANCH   8  30
ATOM     30  C   UNL     1       3.107   6.087  18.449  0.00  0.00    +0.000 A 
ATOM     31  C   UNL     1       4.404   5.803  18.886  0.00  0.00    +0.000 A 
ATOM     32  C   UNL     1       4.796   4.482  19.135  0.00  0.00    +0.000 A 
ATOM     33  C   UNL     1       3.897   3.425  18.971  0.00  0.00    +0.000 A 
ATOM     34  C   UNL     1       2.599   3.697  18.546  0.00  0.00    +0.000 A 
ATOM     35  C   UNL     1       2.211   5.017  18.285  0.00  0.00    +0.000 A 
BRANCH  33  36
ATOM     36  O   UNL     1       4.410   2.179  19.195  0.00  0.00    +0.000 OA
ATOM     37  C   UNL     1       3.689   1.087  18.637  0.00  0.00    +0.000 C 
ENDBRANCH  33  36
ENDBRANCH   8  30
TORSDOF 6
ENDMDL
MODEL 5
REMARK VINA RESULT:      -7.6      2.900      3.832
REMARK  Name = 
REMARK  8 active torsions:
REMARK  status: ('A' for Active; 'I' for Inactive)
REMARK    1  A    between atoms: C_1  and  C_2
REMARK    2  A    between atoms: C_2  and  N_3
REMARK    3  A    between atoms: C_5  and  C_6
REMARK    4  A    between atoms: C_6  and  O_8
REMARK    5  A    between atoms: C_15  and  N_16
REMARK    6  A    between atoms: C_23  and  C_24
REMARK    7  A    between atoms: C_27  and  O_28
REMARK    8  A    between atoms: O_28  and  C_29
REMARK                            x       y       z     vdW  Elec       q    Type
REMARK                         _______ _______ _______ _____ _____    ______ ____
ROOT
ATOM      1  N   UNL     1       0.883   9.619  19.990  0.00  0.00    +0.000 N 
ATOM      2  C   UNL     1       0.097  10.585  19.208  0.00  0.00    +0.000 C 
ATOM      3  C   UNL     1      -1.286  10.743  19.874  0.00  0.00    +0.000 C 
ATOM      4  N   UNL     1      -1.104  11.150  21.276  0.00  0.00    +0.000 N 
ATOM      5  C   UNL     1      -2.047  11.895  21.877  0.00  0.00    +0.000 A 
ATOM      6  N   UNL     1      -2.333  12.080  23.148  0.00  0.00    +0.000 NA
ATOM      7  N   UNL     1      -3.436  12.918  23.188  0.00  0.00    +0.000 NA
ATOM      8  C   UNL     1      -3.718  13.210  21.935  0.00  0.00    +0.000 A 
ATOM      9  O   UNL     1      -2.859  12.621  21.056  0.00  0.00    +0.000 OA
ATOM     10  C   UNL     1      -0.345  10.171  22.072  0.00  0.00    +0.000 C 
ATOM     11  C   UNL     1       1.042   9.964  21.425  0.00  0.00    +0.000 C 
ENDROOT
BRANCH   1  21
ATOM     12  N   UNL     1       2.584   5.031  19.968  0.00  0.00    +0.000 N 
ATOM     13  C   UNL     1       3.206   4.029  19.228  0.00  0.00    +0.000 A 
ATOM     14  C   UNL     1       3.861   4.181  18.058  0.00  0.00    +0.000 A 
ATOM     15  C   UNL     1       3.908   5.544  17.502  0.00  0.00    +0.000 A 
ATOM     16  O   UNL     1       4.525   5.763  16.464  0.00  0.00    +0.000 OA
ATOM     17  C   UNL     1       3.177   6.612  18.210  0.00  0.00    +0.000 A 
ATOM     18  C   UNL     1       3.065   7.848  17.581  0.00  0.00    +0.000 A 
ATOM     19  C   UNL     1       2.291   8.829  18.174  0.00  0.00    +0.000 A 
ATOM     20  F   UNL     1       2.147   9.986  17.509  0.00  0.00    +0.000 F 
ATOM     21  C   UNL     1       1.687   8.646  19.428  0.00  0.00    +0.000 A 
ATOM     22  C   UNL     1       1.915   7.424  20.081  0.00  0.00    +0.000 A 
ATOM     23  C   UNL     1       2.565   6.346  19.450  0.00  0.00    +0.000 A 
BRANCH  12  25
ATOM     24  C   UNL     1       1.795   3.232  21.510  0.00  0.00    +0.000 C 
ATOM     25  C   UNL     1       1.751   4.714  21.153  0.00  0.00    +0.000 C 
ENDBRANCH  12  25
BRANCH  14  26
ATOM     26  C   UNL     1       4.477   3.031  17.363  0.00  0.00    +0.000 C 
ATOM     27  O   UNL     1       3.985   1.907  17.379  0.00  0.00    +0.000 OA
BRANCH  26  28
ATOM     28  O   UNL     1       5.618   3.294  16.694  0.00  0.00    +0.000 OA
ATOM     29  H   UNL     1       5.822   2.664  15.958  0.00  0.00    +0.000 HD
ENDBRANCH  26  28
ENDBRANCH  14  26
ENDBRANCH   1  21
BRANCH   8  30
ATOM     30  C   UNL     1      -4.776  14.019  21.348  0.00  0.00    +0.000 A 
ATOM     31  C   UNL     1      -4.581  15.382  21.108  0.00  0.00    +0.000 A 
ATOM     32  C   UNL     1      -5.611  16.163  20.569  0.00  0.00    +0.000 A 
ATOM     33  C   UNL     1      -6.845  15.594  20.244  0.00  0.00    +0.000 A 
ATOM     34  C   UNL     1      -7.047  14.236  20.469  0.00  0.00    +0.000 A 
ATOM     35  C   UNL     1      -6.021  13.458  21.019  0.00  0.00    +0.000 A 
BRANCH  33  36
ATOM     36  O   UNL     1      -7.786  16.466  19.775  0.00  0.00    +0.000 OA
ATOM     37  C   UNL     1      -7.783  16.708  18.372  0.00  0.00    +0.000 C 
ENDBRANCH  33  36
ENDBRANCH   8  30
TORSDOF 6
ENDMDL
MODEL 6
REMARK VINA RESULT:      -7.6      2.919     12.031
REMARK  Name = 
REMARK  8 active torsions:
REMARK  status: ('A' for Active; 'I' for Inactive)
REMARK    1  A    between atoms: C_1  and  C_2
REMARK    2  A    between atoms: C_2  and  N_3
REMARK    3  A    between atoms: C_5  and  C_6
REMARK    4  A    between atoms: C_6  and  O_8
REMARK    5  A    between atoms: C_15  and  N_16
REMARK    6  A    between atoms: C_23  and  C_24
REMARK    7  A    between atoms: C_27  and  O_28
REMARK    8  A    between atoms: O_28  and  C_29
REMARK                            x       y       z     vdW  Elec       q    Type
REMARK                         _______ _______ _______ _____ _____    ______ ____
ROOT
ATOM      1  N   UNL     1      -0.160  10.496  19.887  0.00  0.00    +0.000 N 
ATOM      2  C   UNL     1       0.312  10.116  18.547  0.00  0.00    +0.000 C 
ATOM      3  C   UNL     1       1.681   9.418  18.689  0.00  0.00    +0.000 C 
ATOM      4  N   UNL     1       1.545   8.270  19.598  0.00  0.00    +0.000 N 
ATOM      5  C   UNL     1       2.350   7.204  19.444  0.00  0.00    +0.000 A 
ATOM      6  N   UNL     1       2.706   6.253  20.279  0.00  0.00    +0.000 NA
ATOM      7  N   UNL     1       3.592   5.436  19.595  0.00  0.00    +0.000 NA
ATOM      8  C   UNL     1       3.682   5.933  18.379  0.00  0.00    +0.000 A 
ATOM      9  O   UNL     1       2.897   7.034  18.206  0.00  0.00    +0.000 OA
ATOM     10  C   UNL     1       1.104   8.647  20.952  0.00  0.00    +0.000 C 
ATOM     11  C   UNL     1      -0.255   9.373  20.853  0.00  0.00    +0.000 C 
ENDROOT
BRANCH   1  21
ATOM     12  N   UNL     1      -4.205  13.243  20.059  0.00  0.00    +0.000 N 
ATOM     13  C   UNL     1      -4.816  14.375  20.593  0.00  0.00    +0.000 A 
ATOM     14  C   UNL     1      -4.203  15.398  21.223  0.00  0.00    +0.000 A 
ATOM     15  C   UNL     1      -2.742  15.299  21.374  0.00  0.00    +0.000 A 
ATOM     16  O   UNL     1      -2.115  16.214  21.898  0.00  0.00    +0.000 OA
ATOM     17  C   UNL     1      -2.075  14.069  20.907  0.00  0.00    +0.000 A 
ATOM     18  C   UNL     1      -0.731  13.900  21.225  0.00  0.00    +0.000 A 
ATOM     19  C   UNL     1      -0.114  12.706  20.894  0.00  0.00    +0.000 A 
ATOM     20  F   UNL     1       1.163  12.547  21.275  0.00  0.00    +0.000 F 
ATOM     21  C   UNL     1      -0.775  11.699  20.175  0.00  0.00    +0.000 A 
ATOM     22  C   UNL     1      -2.098  11.953  19.776  0.00  0.00    +0.000 A 
ATOM     23  C   UNL     1      -2.811  13.084  20.221  0.00  0.00    +0.000 A 
BRANCH  12  25
ATOM     24  C   UNL     1      -6.263  11.860  20.361  0.00  0.00    +0.000 C 
ATOM     25  C   UNL     1      -5.002  12.106  19.538  0.00  0.00    +0.000 C 
ENDBRANCH  12  25
BRANCH  14  26
ATOM     26  C   UNL     1      -4.968  16.546  21.754  0.00  0.00    +0.000 C 
ATOM     27  O   UNL     1      -5.572  17.333  21.031  0.00  0.00    +0.000 OA
BRANCH  26  28
ATOM     28  O   UNL     1      -4.971  16.677  23.097  0.00  0.00    +0.000 OA
ATOM     29  H   UNL     1      -4.615  17.539  23.430  0.00  0.00    +0.000 HD
ENDBRANCH  26  28
ENDBRANCH  14  26
ENDBRANCH   1  21
BRANCH   8  30
ATOM     30  C   UNL     1       4.470   5.525  17.225  0.00  0.00    +0.000 A 
ATOM     31  C   UNL     1       4.898   6.467  16.285  0.00  0.00    +0.000 A 
ATOM     32  C   UNL     1       5.632   6.067  15.161  0.00  0.00    +0.000 A 
ATOM     33  C   UNL     1       5.966   4.724  14.966  0.00  0.00    +0.000 A 
ATOM     34  C   UNL     1       5.554   3.779  15.901  0.00  0.00    +0.000 A 
ATOM     35  C   UNL     1       4.810   4.178  17.018  0.00  0.00    +0.000 A 
BRANCH  33  36
ATOM     36  O   UNL     1       6.638   4.450  13.809  0.00  0.00    +0.000 OA
ATOM     37  C   UNL     1       5.974   3.608  12.874  0.00  0.00    +0.000 C 
ENDBRANCH  33  36
ENDBRANCH   8  30
TORSDOF 6
ENDMDL
MODEL 7
REMARK VINA RESULT:      -7.4      3.169     11.834
REMARK  Name = 
REMARK  8 active torsions:
REMARK  status: ('A' for Active; 'I' for Inactive)
REMARK    1  A    between atoms: C_1  and  C_2
REMARK    2  A    between atoms: C_2  and  N_3
REMARK    3  A    between atoms: C_5  and  C_6
REMARK    4  A    between atoms: C_6  and  O_8
REMARK    5  A    between atoms: C_15  and  N_16
REMARK    6  A    between atoms: C_23  and  C_24
REMARK    7  A    between atoms: C_27  and  O_28
REMARK    8  A    between atoms: O_28  and  C_29
REMARK                            x       y       z     vdW  Elec       q    Type
REMARK                         _______ _______ _______ _____ _____    ______ ____
ROOT
ATOM      1  N   UNL     1      -0.497  11.949  20.786  0.00  0.00    +0.000 N 
ATOM      2  C   UNL     1      -0.009  10.720  21.430  0.00  0.00    +0.000 C 
ATOM      3  C   UNL     1       0.149   9.631  20.348  0.00  0.00    +0.000 C 
ATOM      4  N   UNL     1       1.049  10.124  19.294  0.00  0.00    +0.000 N 
ATOM      5  C   UNL     1       1.796   9.250  18.598  0.00  0.00    +0.000 A 
ATOM      6  N   UNL     1       2.369   9.339  17.418  0.00  0.00    +0.000 NA
ATOM      7  N   UNL     1       2.978   8.118  17.179  0.00  0.00    +0.000 NA
ATOM      8  C   UNL     1       2.759   7.386  18.252  0.00  0.00    +0.000 A 
ATOM      9  O   UNL     1       2.044   8.052  19.201  0.00  0.00    +0.000 OA
ATOM     10  C   UNL     1       0.550  11.337  18.623  0.00  0.00    +0.000 C 
ATOM     11  C   UNL     1       0.353  12.449  19.676  0.00  0.00    +0.000 C 
ENDROOT
BRANCH   1  21
ATOM     12  N   UNL     1      -5.199  13.222  21.253  0.00  0.00    +0.000 N 
ATOM     13  C   UNL     1      -6.144  13.906  22.012  0.00  0.00    +0.000 A 
ATOM     14  C   UNL     1      -5.897  14.813  22.979  0.00  0.00    +0.000 A 
ATOM     15  C   UNL     1      -4.481  15.096  23.270  0.00  0.00    +0.000 A 
ATOM     16  O   UNL     1      -4.183  15.943  24.106  0.00  0.00    +0.000 OA
ATOM     17  C   UNL     1      -3.453  14.319  22.553  0.00  0.00    +0.000 A 
ATOM     18  C   UNL     1      -2.132  14.453  22.968  0.00  0.00    +0.000 A 
ATOM     19  C   UNL     1      -1.167  13.652  22.385  0.00  0.00    +0.000 A 
ATOM     20  F   UNL     1       0.087  13.756  22.855  0.00  0.00    +0.000 F 
ATOM     21  C   UNL     1      -1.463  12.773  21.332  0.00  0.00    +0.000 A 
ATOM     22  C   UNL     1      -2.788  12.747  20.867  0.00  0.00    +0.000 A 
ATOM     23  C   UNL     1      -3.828  13.428  21.529  0.00  0.00    +0.000 A 
BRANCH  12  25
ATOM     24  C   UNL     1      -5.949  12.635  18.944  0.00  0.00    +0.000 C 
ATOM     25  C   UNL     1      -5.589  12.124  20.335  0.00  0.00    +0.000 C 
ENDBRANCH  12  25
BRANCH  14  26
ATOM     26  C   UNL     1      -6.994  15.469  23.722  0.00  0.00    +0.000 C 
ATOM     27  O   UNL     1      -7.916  14.840  24.233  0.00  0.00    +0.000 OA
BRANCH  26  28
ATOM     28  O   UNL     1      -6.917  16.812  23.816  0.00  0.00    +0.000 OA
ATOM     29  H   UNL     1      -6.400  17.249  23.093  0.00  0.00    +0.000 HD
ENDBRANCH  26  28
ENDBRANCH  14  26
ENDBRANCH   1  21
BRANCH   8  30
ATOM     30  C   UNL     1       3.127   6.015  18.576  0.00  0.00    +0.000 A 
ATOM     31  C   UNL     1       2.163   5.003  18.592  0.00  0.00    +0.000 A 
ATOM     32  C   UNL     1       2.517   3.691  18.934  0.00  0.00    +0.000 A 
ATOM     33  C   UNL     1       3.839   3.365  19.247  0.00  0.00    +0.000 A 
ATOM     34  C   UNL     1       4.808   4.363  19.224  0.00  0.00    +0.000 A 
ATOM     35  C   UNL     1       4.453   5.677  18.895  0.00  0.00    +0.000 A 
BRANCH  33  36
ATOM     36  O   UNL     1       4.049   2.066  19.613  0.00  0.00    +0.000 OA
ATOM     37  C   UNL     1       3.740   1.074  18.640  0.00  0.00    +0.000 C 
ENDBRANCH  33  36
ENDBRANCH   8  30
TORSDOF 6
ENDMDL
MODEL 8
REMARK VINA RESULT:      -7.4      2.911     11.939
REMARK  Name = 
REMARK  8 active torsions:
REMARK  status: ('A' for Active; 'I' for Inactive)
REMARK    1  A    between atoms: C_1  and  C_2
REMARK    2  A    between atoms: C_2  and  N_3
REMARK    3  A    between atoms: C_5  and  C_6
REMARK    4  A    between atoms: C_6  and  O_8
REMARK    5  A    between atoms: C_15  and  N_16
REMARK    6  A    between atoms: C_23  and  C_24
REMARK    7  A    between atoms: C_27  and  O_28
REMARK    8  A    between atoms: O_28  and  C_29
REMARK                            x       y       z     vdW  Elec       q    Type
REMARK                         _______ _______ _______ _____ _____    ______ ____
ROOT
ATOM      1  N   UNL     1      -0.164   9.558  20.807  0.00  0.00    +0.000 N 
ATOM      2  C   UNL     1       0.541   9.567  19.516  0.00  0.00    +0.000 C 
ATOM      3  C   UNL     1       1.871   8.803  19.680  0.00  0.00    +0.000 C 
ATOM      4  N   UNL     1       1.591   7.446  20.173  0.00  0.00    +0.000 N 
ATOM      5  C   UNL     1       2.423   6.440  19.852  0.00  0.00    +0.000 A 
ATOM      6  N   UNL     1       2.638   5.272  20.419  0.00  0.00    +0.000 NA
ATOM      7  N   UNL     1       3.640   4.655  19.687  0.00  0.00    +0.000 NA
ATOM      8  C   UNL     1       3.937   5.481  18.706  0.00  0.00    +0.000 A 
ATOM      9  O   UNL     1       3.182   6.616  18.733  0.00  0.00    +0.000 OA
ATOM     10  C   UNL     1       0.914   7.429  21.481  0.00  0.00    +0.000 C 
ATOM     11  C   UNL     1      -0.415   8.207  21.368  0.00  0.00    +0.000 C 
ENDROOT
BRANCH   1  21
ATOM     12  N   UNL     1      -3.592  13.021  20.359  0.00  0.00    +0.000 N 
ATOM     13  C   UNL     1      -4.398  13.945  21.018  0.00  0.00    +0.000 A 
ATOM     14  C   UNL     1      -4.253  14.380  22.286  0.00  0.00    +0.000 A 
ATOM     15  C   UNL     1      -3.137  13.806  23.057  0.00  0.00    +0.000 A 
ATOM     16  O   UNL     1      -2.920  14.189  24.202  0.00  0.00    +0.000 OA
ATOM     17  C   UNL     1      -2.322  12.753  22.422  0.00  0.00    +0.000 A 
ATOM     18  C   UNL     1      -1.397  12.083  23.217  0.00  0.00    +0.000 A 
ATOM     19  C   UNL     1      -0.701  11.018  22.673  0.00  0.00    +0.000 A 
ATOM     20  F   UNL     1       0.134  10.349  23.485  0.00  0.00    +0.000 F 
ATOM     21  C   UNL     1      -0.835  10.649  21.326  0.00  0.00    +0.000 A 
ATOM     22  C   UNL     1      -1.696  11.420  20.528  0.00  0.00    +0.000 A 
ATOM     23  C   UNL     1      -2.537  12.410  21.073  0.00  0.00    +0.000 A 
BRANCH  12  25
ATOM     24  C   UNL     1      -5.426  12.120  18.924  0.00  0.00    +0.000 C 
ATOM     25  C   UNL     1      -3.951  12.496  19.020  0.00  0.00    +0.000 C 
ENDBRANCH  12  25
BRANCH  14  26
ATOM     26  C   UNL     1      -5.185  15.365  22.877  0.00  0.00    +0.000 C 
ATOM     27  O   UNL     1      -5.484  16.415  22.315  0.00  0.00    +0.000 OA
BRANCH  26  28
ATOM     28  O   UNL     1      -5.702  15.035  24.078  0.00  0.00    +0.000 OA
ATOM     29  H   UNL     1      -6.672  15.207  24.174  0.00  0.00    +0.000 HD
ENDBRANCH  26  28
ENDBRANCH  14  26
ENDBRANCH   1  21
BRANCH   8  30
ATOM     30  C   UNL     1       4.921   5.397  17.636  0.00  0.00    +0.000 A 
ATOM     31  C   UNL     1       6.112   6.125  17.705  0.00  0.00    +0.000 A 
ATOM     32  C   UNL     1       7.044   6.063  16.660  0.00  0.00    +0.000 A 
ATOM     33  C   UNL     1       6.810   5.260  15.540  0.00  0.00    +0.000 A 
ATOM     34  C   UNL     1       5.632   4.523  15.467  0.00  0.00    +0.000 A 
ATOM     35  C   UNL     1       4.696   4.595  16.505  0.00  0.00    +0.000 A 
BRANCH  33  36
ATOM     36  O   UNL     1       7.766   5.323  14.566  0.00  0.00    +0.000 OA
ATOM     37  C   UNL     1       7.355   4.967  13.251  0.00  0.00    +0.000 C 
ENDBRANCH  33  36
ENDBRANCH   8  30
TORSDOF 6
ENDMDL
MODEL 9
REMARK VINA RESULT:      -7.4      2.561     12.092
REMARK  Name = 
REMARK  8 active torsions:
REMARK  status: ('A' for Active; 'I' for Inactive)
REMARK    1  A    between atoms: C_1  and  C_2
REMARK    2  A    between atoms: C_2  and  N_3
REMARK    3  A    between atoms: C_5  and  C_6
REMARK    4  A    between atoms: C_6  and  O_8
REMARK    5  A    between atoms: C_15  and  N_16
REMARK    6  A    between atoms: C_23  and  C_24
REMARK    7  A    between atoms: C_27  and  O_28
REMARK    8  A    between atoms: O_28  and  C_29
REMARK                            x       y       z     vdW  Elec       q    Type
REMARK                         _______ _______ _______ _____ _____    ______ ____
ROOT
ATOM      1  N   UNL     1       0.137   9.991  20.885  0.00  0.00    +0.000 N 
ATOM      2  C   UNL     1       0.654   9.869  19.514  0.00  0.00    +0.000 C 
ATOM      3  C   UNL     1       1.925   8.995  19.545  0.00  0.00    +0.000 C 
ATOM      4  N   UNL     1       1.602   7.696  20.155  0.00  0.00    +0.000 N 
ATOM      5  C   UNL     1       2.293   6.602  19.789  0.00  0.00    +0.000 A 
ATOM      6  N   UNL     1       2.485   5.450  20.393  0.00  0.00    +0.000 NA
ATOM      7  N   UNL     1       3.319   4.707  19.574  0.00  0.00    +0.000 NA
ATOM      8  C   UNL     1       3.546   5.452  18.512  0.00  0.00    +0.000 A 
ATOM      9  O   UNL     1       2.901   6.651  18.569  0.00  0.00    +0.000 OA
ATOM     10  C   UNL     1       1.114   7.807  21.540  0.00  0.00    +0.000 C 
ATOM     11  C   UNL     1      -0.147   8.698  21.558  0.00  0.00    +0.000 C 
ENDROOT
BRANCH   1  21
ATOM     12  N   UNL     1      -0.890  14.752  20.416  0.00  0.00    +0.000 N 
ATOM     13  C   UNL     1      -1.621  15.833  20.902  0.00  0.00    +0.000 A 
ATOM     14  C   UNL     1      -2.264  15.904  22.085  0.00  0.00    +0.000 A 
ATOM     15  C   UNL     1      -2.198  14.709  22.944  0.00  0.00    +0.000 A 
ATOM     16  O   UNL     1      -2.722  14.719  24.053  0.00  0.00    +0.000 OA
ATOM     17  C   UNL     1      -1.514  13.511  22.420  0.00  0.00    +0.000 A 
ATOM     18  C   UNL     1      -1.621  12.332  23.151  0.00  0.00    +0.000 A 
ATOM     19  C   UNL     1      -1.083  11.172  22.624  0.00  0.00    +0.000 A 
ATOM     20  F   UNL     1      -1.262  10.038  23.320  0.00  0.00    +0.000 F 
ATOM     21  C   UNL     1      -0.360  11.164  21.421  0.00  0.00    +0.000 A 
ATOM     22  C   UNL     1      -0.180  12.394  20.768  0.00  0.00    +0.000 A 
ATOM     23  C   UNL     1      -0.837  13.568  21.186  0.00  0.00    +0.000 A 
BRANCH  12  25
ATOM     24  C   UNL     1      -0.004  16.123  18.526  0.00  0.00    +0.000 C 
ATOM     25  C   UNL     1      -0.369  14.730  19.028  0.00  0.00    +0.000 C 
ENDBRANCH  12  25
BRANCH  14  26
ATOM     26  C   UNL     1      -3.016  17.112  22.485  0.00  0.00    +0.000 C 
ATOM     27  O   UNL     1      -3.835  17.656  21.750  0.00  0.00    +0.000 OA
BRANCH  26  28
ATOM     28  O   UNL     1      -2.754  17.583  23.721  0.00  0.00    +0.000 OA
ATOM     29  H   UNL     1      -3.406  18.247  24.059  0.00  0.00    +0.000 HD
ENDBRANCH  26  28
ENDBRANCH  14  26
ENDBRANCH   1  21
BRANCH   8  30
ATOM     30  C   UNL     1       4.361   5.223  17.328  0.00  0.00    +0.000 A 
ATOM     31  C   UNL     1       4.757   6.291  16.518  0.00  0.00    +0.000 A 
ATOM     32  C   UNL     1       5.518   6.063  15.364  0.00  0.00    +0.000 A 
ATOM     33  C   UNL     1       5.910   4.769  15.009  0.00  0.00    +0.000 A 
ATOM     34  C   UNL     1       5.530   3.700  15.815  0.00  0.00    +0.000 A 
ATOM     35  C   UNL     1       4.759   3.927  16.962  0.00  0.00    +0.000 A 
BRANCH  33  36
ATOM     36  O   UNL     1       6.604   4.669  13.837  0.00  0.00    +0.000 OA
ATOM     37  C   UNL     1       6.187   3.647  12.939  0.00  0.00    +0.000 C 
ENDBRANCH  33  36
ENDBRANCH   8  30
TORSDOF 6
ENDMDL
