MODEL 1
REMARK VINA RESULT:      -9.0      0.000      0.000
REMARK  Name = 
REMARK  6 active torsions:
REMARK  status: ('A' for Active; 'I' for Inactive)
REMARK    1  A    between atoms: C_2  and  O_3
REMARK    2  A    between atoms: C_2  and  C_4
REMARK    3  A    between atoms: N_6  and  C_7
REMARK    4  A    between atoms: C_7  and  C_8
REMARK    5  A    between atoms: C_11  and  C_12
REMARK    6  A    between atoms: C_17  and  C_18
REMARK                            x       y       z     vdW  Elec       q    Type
REMARK                         _______ _______ _______ _____ _____    ______ ____
ROOT
ATOM      1  C   UNL     1       3.612   6.130  18.452  0.00  0.00    +0.000 A 
ATOM      2  C   UNL     1       3.008   5.864  19.687  0.00  0.00    +0.000 A 
ATOM      3  C   UNL     1       2.123   6.785  20.252  0.00  0.00    +0.000 A 
ATOM      4  C   UNL     1       1.822   7.992  19.601  0.00  0.00    +0.000 A 
ATOM      5  C   UNL     1       2.430   8.246  18.369  0.00  0.00    +0.000 A 
ATOM      6  F   UNL     1       2.209   9.391  17.705  0.00  0.00    +0.000 F 
ATOM      7  C   UNL     1       3.314   7.332  17.798  0.00  0.00    +0.000 A 
ENDROOT
BRANCH   4   8
ATOM      8  C   UNL     1       0.939   8.947  20.274  0.00  0.00    +0.000 A 
ATOM      9  N   UNL     1       0.287   9.895  19.631  0.00  0.00    +0.000 NA
ATOM     10  C   UNL     1      -0.478  10.632  20.511  0.00  0.00    +0.000 A 
ATOM     11  C   UNL     1      -1.337  11.693  20.167  0.00  0.00    +0.000 A 
ATOM     12  C   UNL     1      -2.084  12.328  21.169  0.00  0.00    +0.000 A 
ATOM     13  C   UNL     1      -1.970  11.929  22.504  0.00  0.00    +0.000 A 
ATOM     14  C   UNL     1      -1.064  10.923  22.868  0.00  0.00    +0.000 A 
ATOM     15  C   UNL     1      -0.359  10.267  21.851  0.00  0.00    +0.000 A 
ATOM     16  S   UNL     1       0.747   8.957  21.980  0.00  0.00    +0.000 S 
BRANCH  13  17
ATOM     17  C   UNL     1      -2.784  12.638  23.527  0.00  0.00    +0.000 C 
ATOM     18  O   UNL     1      -3.750  12.044  24.004  0.00  0.00    +0.000 OA
ATOM     19  N   UNL     1      -2.428  13.916  23.926  0.00  0.00    +0.000 N 
ATOM     20  C   UNL     1      -1.229  14.674  23.610  0.00  0.00    +0.000 C 
ATOM     21  C   UNL     1      -0.996  15.520  24.846  0.00  0.00    +0.000 C 
ATOM     22  C   UNL     1      -2.408  15.836  25.324  0.00  0.00    +0.000 C 
ATOM     23  C   UNL     1      -3.237  14.626  24.904  0.00  0.00    +0.000 C 
ENDBRANCH  13  17
ENDBRANCH   4   8
BRANCH   1  24
ATOM     24  C   UNL     1       4.570   5.140  17.827  0.00  0.00    +0.000 C 
BRANCH  24  27
ATOM     25  C   UNL     1       5.960   4.591  15.323  0.00  0.00    +0.000 C 
ATOM     26  C   UNL     1       6.706   4.840  16.645  0.00  0.00    +0.000 C 
ATOM     27  N   UNL     1       5.651   5.789  17.064  0.00  0.00    +0.000 NA
ATOM     28  C   UNL     1       5.252   5.931  15.640  0.00  0.00    +0.000 C 
BRANCH  25  30
ATOM     29  O   UNL     1       7.542   5.335  13.607  0.00  0.00    +0.000 OA
ATOM     30  C   UNL     1       6.722   4.502  13.996  0.00  0.00    +0.000 C 
BRANCH  30  31
ATOM     31  O   UNL     1       6.420   3.433  13.212  0.00  0.00    +0.000 OA
ATOM     32  H   UNL     1       7.188   2.909  12.919  0.00  0.00    +0.000 HD
ENDBRANCH  30  31
ENDBRANCH  25  30
ENDBRANCH  24  27
ENDBRANCH   1  24
TORSDOF 6
ENDMDL
MODEL 2
REMARK VINA RESULT:      -8.6      1.048      1.358
REMARK  Name = 
REMARK  6 active torsions:
REMARK  status: ('A' for Active; 'I' for Inactive)
REMARK    1  A    between atoms: C_2  and  O_3
REMARK    2  A    between atoms: C_2  and  C_4
REMARK    3  A    between atoms: N_6  and  C_7
REMARK    4  A    between atoms: C_7  and  C_8
REMARK    5  A    between atoms: C_11  and  C_12
REMARK    6  A    between atoms: C_17  and  C_18
REMARK                            x       y       z     vdW  Elec       q    Type
REMARK                         _______ _______ _______ _____ _____    ______ ____
ROOT
ATOM      1  C   UNL     1       3.002   6.594  18.284  0.00  0.00    +0.000 A 
ATOM      2  C   UNL     1       2.685   7.833  17.715  0.00  0.00    +0.000 A 
ATOM      3  C   UNL     1       1.923   8.762  18.427  0.00  0.00    +0.000 A 
ATOM      4  C   UNL     1       1.459   8.477  19.721  0.00  0.00    +0.000 A 
ATOM      5  C   UNL     1       1.783   7.237  20.279  0.00  0.00    +0.000 A 
ATOM      6  F   UNL     1       1.350   6.889  21.500  0.00  0.00    +0.000 F 
ATOM      7  C   UNL     1       2.543   6.305  19.576  0.00  0.00    +0.000 A 
ENDROOT
BRANCH   4   8
ATOM      8  C   UNL     1       0.610   9.463  20.392  0.00  0.00    +0.000 A 
ATOM      9  N   UNL     1      -0.115  10.347  19.736  0.00  0.00    +0.000 NA
ATOM     10  C   UNL     1      -0.825  11.135  20.617  0.00  0.00    +0.000 A 
ATOM     11  C   UNL     1      -1.735  12.151  20.268  0.00  0.00    +0.000 A 
ATOM     12  C   UNL     1      -2.413  12.846  21.277  0.00  0.00    +0.000 A 
ATOM     13  C   UNL     1      -2.183  12.553  22.624  0.00  0.00    +0.000 A 
ATOM     14  C   UNL     1      -1.226  11.595  22.987  0.00  0.00    +0.000 A 
ATOM     15  C   UNL     1      -0.589  10.876  21.967  0.00  0.00    +0.000 A 
ATOM     16  S   UNL     1       0.555   9.600  22.102  0.00  0.00    +0.000 S 
BRANCH  13  17
ATOM     17  C   UNL     1      -2.929  13.322  23.655  0.00  0.00    +0.000 C 
ATOM     18  O   UNL     1      -3.983  12.847  24.075  0.00  0.00    +0.000 OA
ATOM     19  N   UNL     1      -2.418  14.521  24.124  0.00  0.00    +0.000 N 
ATOM     20  C   UNL     1      -1.116  15.120  23.880  0.00  0.00    +0.000 C 
ATOM     21  C   UNL     1      -0.815  15.874  25.160  0.00  0.00    +0.000 C 
ATOM     22  C   UNL     1      -2.187  16.359  25.610  0.00  0.00    +0.000 C 
ATOM     23  C   UNL     1      -3.157  15.293  25.109  0.00  0.00    +0.000 C 
ENDBRANCH  13  17
ENDBRANCH   4   8
BRANCH   1  24
ATOM     24  C   UNL     1       3.829   5.580  17.525  0.00  0.00    +0.000 C 
BRANCH  24  27
ATOM     25  C   UNL     1       5.782   4.881  15.475  0.00  0.00    +0.000 C 
ATOM     26  C   UNL     1       6.162   5.046  16.957  0.00  0.00    +0.000 C 
ATOM     27  N   UNL     1       5.140   6.106  17.103  0.00  0.00    +0.000 NA
ATOM     28  C   UNL     1       5.160   6.291  15.629  0.00  0.00    +0.000 C 
BRANCH  25  30
ATOM     29  O   UNL     1       7.827   5.462  14.259  0.00  0.00    +0.000 OA
ATOM     30  C   UNL     1       6.863   4.710  14.402  0.00  0.00    +0.000 C 
BRANCH  30  31
ATOM     31  O   UNL     1       6.690   3.662  13.552  0.00  0.00    +0.000 OA
ATOM     32  H   UNL     1       7.335   3.615  12.822  0.00  0.00    +0.000 HD
ENDBRANCH  30  31
ENDBRANCH  25  30
ENDBRANCH  24  27
ENDBRANCH   1  24
TORSDOF 6
ENDMDL
MODEL 3
REMARK VINA RESULT:      -8.4      1.812      2.217
REMARK  Name = 
REMARK  6 active torsions:
REMARK  status: ('A' for Active; 'I' for Inactive)
REMARK    1  A    between atoms: C_2  and  O_3
REMARK    2  A    between atoms: C_2  and  C_4
REMARK    3  A    between atoms: N_6  and  C_7
REMARK    4  A    between atoms: C_7  and  C_8
REMARK    5  A    between atoms: C_11  and  C_12
REMARK    6  A    between atoms: C_17  and  C_18
REMARK                            x       y       z     vdW  Elec       q    Type
REMARK                         _______ _______ _______ _____ _____    ______ ____
ROOT
ATOM      1  C   UNL     1       2.510   6.823  18.611  0.00  0.00    +0.000 A 
ATOM      2  C   UNL     1       2.188   6.746  19.971  0.00  0.00    +0.000 A 
ATOM      3  C   UNL     1       1.581   7.826  20.615  0.00  0.00    +0.000 A 
ATOM      4  C   UNL     1       1.282   9.009  19.919  0.00  0.00    +0.000 A 
ATOM      5  C   UNL     1       1.606   9.074  18.562  0.00  0.00    +0.000 A 
ATOM      6  F   UNL     1       1.374  10.182  17.842  0.00  0.00    +0.000 F 
ATOM      7  C   UNL     1       2.212   8.000  17.911  0.00  0.00    +0.000 A 
ENDROOT
BRANCH   4   8
ATOM      8  C   UNL     1       0.707  10.131  20.664  0.00  0.00    +0.000 A 
ATOM      9  N   UNL     1       1.100  11.377  20.497  0.00  0.00    +0.000 NA
ATOM     10  C   UNL     1       0.377  12.222  21.313  0.00  0.00    +0.000 A 
ATOM     11  C   UNL     1       0.499  13.623  21.364  0.00  0.00    +0.000 A 
ATOM     12  C   UNL     1      -0.333  14.357  22.220  0.00  0.00    +0.000 A 
ATOM     13  C   UNL     1      -1.269  13.710  23.033  0.00  0.00    +0.000 A 
ATOM     14  C   UNL     1      -1.349  12.311  23.044  0.00  0.00    +0.000 A 
ATOM     15  C   UNL     1      -0.543  11.593  22.151  0.00  0.00    +0.000 A 
ATOM     16  S   UNL     1      -0.480   9.897  21.882  0.00  0.00    +0.000 S 
BRANCH  13  17
ATOM     17  C   UNL     1      -2.126  14.537  23.923  0.00  0.00    +0.000 C 
ATOM     18  O   UNL     1      -1.635  14.944  24.975  0.00  0.00    +0.000 OA
ATOM     19  N   UNL     1      -3.423  14.842  23.543  0.00  0.00    +0.000 N 
ATOM     20  C   UNL     1      -4.083  14.607  22.269  0.00  0.00    +0.000 C 
ATOM     21  C   UNL     1      -5.051  15.766  22.141  0.00  0.00    +0.000 C 
ATOM     22  C   UNL     1      -5.484  16.019  23.580  0.00  0.00    +0.000 C 
ATOM     23  C   UNL     1      -4.275  15.625  24.422  0.00  0.00    +0.000 C 
ENDBRANCH  13  17
ENDBRANCH   4   8
BRANCH   1  24
ATOM     24  C   UNL     1       3.164   5.660  17.900  0.00  0.00    +0.000 C 
BRANCH  24  27
ATOM     25  C   UNL     1       5.693   5.075  16.569  0.00  0.00    +0.000 C 
ATOM     26  C   UNL     1       5.148   4.218  17.725  0.00  0.00    +0.000 C 
ATOM     27  N   UNL     1       4.551   5.423  18.341  0.00  0.00    +0.000 NA
ATOM     28  C   UNL     1       5.486   6.260  17.545  0.00  0.00    +0.000 C 
BRANCH  25  30
ATOM     29  O   UNL     1       7.511   5.268  14.940  0.00  0.00    +0.000 OA
ATOM     30  C   UNL     1       7.110   4.857  16.029  0.00  0.00    +0.000 C 
BRANCH  30  31
ATOM     31  O   UNL     1       7.939   4.128  16.824  0.00  0.00    +0.000 OA
ATOM     32  H   UNL     1       7.508   3.707  17.590  0.00  0.00    +0.000 HD
ENDBRANCH  30  31
ENDBRANCH  25  30
ENDBRANCH  24  27
ENDBRANCH   1  24
TORSDOF 6
ENDMDL
MODEL 4
REMARK VINA RESULT:      -8.4      2.310     11.520
REMARK  Name = 
REMARK  6 active torsions:
REMARK  status: ('A' for Active; 'I' for Inactive)
REMARK    1  A    between atoms: C_2  and  O_3
REMARK    2  A    between atoms: C_2  and  C_4
REMARK    3  A    between atoms: N_6  and  C_7
REMARK    4  A    between atoms: C_7  and  C_8
REMARK    5  A    between atoms: C_11  and  C_12
REMARK    6  A    between atoms: C_17  and  C_18
REMARK                            x       y       z     vdW  Elec       q    Type
REMARK                         _______ _______ _______ _____ _____    ______ ____
ROOT
ATOM      1  C   UNL     1      -1.799  12.798  22.793  0.00  0.00    +0.000 A 
ATOM      2  C   UNL     1      -1.642  11.491  23.268  0.00  0.00    +0.000 A 
ATOM      3  C   UNL     1      -0.855  10.575  22.566  0.00  0.00    +0.000 A 
ATOM      4  C   UNL     1      -0.207  10.941  21.375  0.00  0.00    +0.000 A 
ATOM      5  C   UNL     1      -0.370  12.249  20.911  0.00  0.00    +0.000 A 
ATOM      6  F   UNL     1       0.197  12.658  19.766  0.00  0.00    +0.000 F 
ATOM      7  C   UNL     1      -1.154  13.169  21.606  0.00  0.00    +0.000 A 
ENDROOT
BRANCH   4   8
ATOM      8  C   UNL     1       0.550   9.919  20.649  0.00  0.00    +0.000 A 
ATOM      9  N   UNL     1       0.904  10.052  19.387  0.00  0.00    +0.000 NA
ATOM     10  C   UNL     1       1.619   8.949  18.970  0.00  0.00    +0.000 A 
ATOM     11  C   UNL     1       2.191   8.770  17.697  0.00  0.00    +0.000 A 
ATOM     12  C   UNL     1       2.925   7.607  17.428  0.00  0.00    +0.000 A 
ATOM     13  C   UNL     1       3.079   6.619  18.405  0.00  0.00    +0.000 A 
ATOM     14  C   UNL     1       2.452   6.752  19.651  0.00  0.00    +0.000 A 
ATOM     15  C   UNL     1       1.760   7.939  19.922  0.00  0.00    +0.000 A 
ATOM     16  S   UNL     1       0.968   8.419  21.370  0.00  0.00    +0.000 S 
BRANCH  13  17
ATOM     17  C   UNL     1       3.866   5.404  18.066  0.00  0.00    +0.000 C 
ATOM     18  O   UNL     1       3.251   4.357  17.871  0.00  0.00    +0.000 OA
ATOM     19  N   UNL     1       5.245   5.484  17.957  0.00  0.00    +0.000 N 
ATOM     20  C   UNL     1       6.097   6.662  17.965  0.00  0.00    +0.000 C 
ATOM     21  C   UNL     1       7.250   6.285  17.057  0.00  0.00    +0.000 C 
ATOM     22  C   UNL     1       7.424   4.794  17.315  0.00  0.00    +0.000 C 
ATOM     23  C   UNL     1       6.024   4.294  17.655  0.00  0.00    +0.000 C 
ENDBRANCH  13  17
ENDBRANCH   4   8
BRANCH   1  24
ATOM     24  C   UNL     1      -2.645  13.801  23.545  0.00  0.00    +0.000 C 
BRANCH  24  27
ATOM     25  C   UNL     1      -5.429  12.999  23.881  0.00  0.00    +0.000 C 
ATOM     26  C   UNL     1      -4.696  12.896  22.532  0.00  0.00    +0.000 C 
ATOM     27  N   UNL     1      -3.915  14.109  22.862  0.00  0.00    +0.000 NA
ATOM     28  C   UNL     1      -4.953  14.473  23.861  0.00  0.00    +0.000 C 
BRANCH  25  30
ATOM     29  O   UNL     1      -7.781  13.646  24.107  0.00  0.00    +0.000 OA
ATOM     30  C   UNL     1      -6.939  12.757  23.974  0.00  0.00    +0.000 C 
BRANCH  30  31
ATOM     31  O   UNL     1      -7.332  11.455  23.936  0.00  0.00    +0.000 OA
ATOM     32  H   UNL     1      -6.652  10.813  24.211  0.00  0.00    +0.000 HD
ENDBRANCH  30  31
ENDBRANCH  25  30
ENDBRANCH  24  27
ENDBRANCH   1  24
TORSDOF 6
ENDMDL
MODEL 5
REMARK VINA RESULT:      -8.4      1.094      1.384
REMARK  Name = 
REMARK  6 active torsions:
REMARK  status: ('A' for Active; 'I' for Inactive)
REMARK    1  A    between atoms: C_2  and  O_3
REMARK    2  A    between atoms: C_2  and  C_4
REMARK    3  A    between atoms: N_6  and  C_7
REMARK    4  A    between atoms: C_7  and  C_8
REMARK    5  A    between atoms: C_11  and  C_12
REMARK    6  A    between atoms: C_17  and  C_18
REMARK                            x       y       z     vdW  Elec       q    Type
REMARK                         _______ _______ _______ _____ _____    ______ ____
ROOT
ATOM      1  C   UNL     1       3.855   5.806  17.941  0.00  0.00    +0.000 A 
ATOM      2  C   UNL     1       3.805   7.152  17.560  0.00  0.00    +0.000 A 
ATOM      3  C   UNL     1       2.993   8.052  18.254  0.00  0.00    +0.000 A 
ATOM      4  C   UNL     1       2.212   7.631  19.342  0.00  0.00    +0.000 A 
ATOM      5  C   UNL     1       2.271   6.286  19.715  0.00  0.00    +0.000 A 
ATOM      6  F   UNL     1       1.531   5.810  20.727  0.00  0.00    +0.000 F 
ATOM      7  C   UNL     1       3.079   5.381  19.027  0.00  0.00    +0.000 A 
ENDROOT
BRANCH   4   8
ATOM      8  C   UNL     1       1.331   8.606  19.988  0.00  0.00    +0.000 A 
ATOM      9  N   UNL     1       0.675   9.532  19.318  0.00  0.00    +0.000 NA
ATOM     10  C   UNL     1      -0.087  10.296  20.177  0.00  0.00    +0.000 A 
ATOM     11  C   UNL     1      -0.949  11.345  19.803  0.00  0.00    +0.000 A 
ATOM     12  C   UNL     1      -1.691  12.011  20.787  0.00  0.00    +0.000 A 
ATOM     13  C   UNL     1      -1.570  11.656  22.134  0.00  0.00    +0.000 A 
ATOM     14  C   UNL     1      -0.661  10.664  22.526  0.00  0.00    +0.000 A 
ATOM     15  C   UNL     1       0.040   9.976  21.528  0.00  0.00    +0.000 A 
ATOM     16  S   UNL     1       1.148   8.672  21.694  0.00  0.00    +0.000 S 
BRANCH  13  17
ATOM     17  C   UNL     1      -2.380  12.398  23.137  0.00  0.00    +0.000 C 
ATOM     18  O   UNL     1      -3.215  11.764  23.781  0.00  0.00    +0.000 OA
ATOM     19  N   UNL     1      -2.162  13.752  23.335  0.00  0.00    +0.000 N 
ATOM     20  C   UNL     1      -1.104  14.596  22.805  0.00  0.00    +0.000 C 
ATOM     21  C   UNL     1      -0.879  15.626  23.895  0.00  0.00    +0.000 C 
ATOM     22  C   UNL     1      -2.274  15.834  24.470  0.00  0.00    +0.000 C 
ATOM     23  C   UNL     1      -2.971  14.488  24.292  0.00  0.00    +0.000 C 
ENDBRANCH  13  17
ENDBRANCH   4   8
BRANCH   1  24
ATOM     24  C   UNL     1       4.732   4.821  17.201  0.00  0.00    +0.000 C 
BRANCH  24  27
ATOM     25  C   UNL     1       6.044   4.254  14.658  0.00  0.00    +0.000 C 
ATOM     26  C   UNL     1       6.831   4.538  15.950  0.00  0.00    +0.000 C 
ATOM     27  N   UNL     1       5.775   5.476  16.389  0.00  0.00    +0.000 NA
ATOM     28  C   UNL     1       5.324   5.587  14.978  0.00  0.00    +0.000 C 
BRANCH  25  30
ATOM     29  O   UNL     1       7.605   4.959  12.907  0.00  0.00    +0.000 OA
ATOM     30  C   UNL     1       6.761   4.156  13.308  0.00  0.00    +0.000 C 
BRANCH  30  31
ATOM     31  O   UNL     1       6.388   3.115  12.515  0.00  0.00    +0.000 OA
ATOM     32  H   UNL     1       5.674   3.317  11.882  0.00  0.00    +0.000 HD
ENDBRANCH  30  31
ENDBRANCH  25  30
ENDBRANCH  24  27
ENDBRANCH   1  24
TORSDOF 6
ENDMDL
MODEL 6
REMARK VINA RESULT:      -8.4      2.751     11.778
REMARK  Name = 
REMARK  6 active torsions:
REMARK  status: ('A' for Active; 'I' for Inactive)
REMARK    1  A    between atoms: C_2  and  O_3
REMARK    2  A    between atoms: C_2  and  C_4
REMARK    3  A    between atoms: N_6  and  C_7
REMARK    4  A    between atoms: C_7  and  C_8
REMARK    5  A    between atoms: C_11  and  C_12
REMARK    6  A    between atoms: C_17  and  C_18
REMARK                            x       y       z     vdW  Elec       q    Type
REMARK                         _______ _______ _______ _____ _____    ______ ____
ROOT
ATOM      1  C   UNL     1      -1.656  13.515  22.857  0.00  0.00    +0.000 A 
ATOM      2  C   UNL     1      -0.930  13.732  21.680  0.00  0.00    +0.000 A 
ATOM      3  C   UNL     1      -0.300  12.666  21.034  0.00  0.00    +0.000 A 
ATOM      4  C   UNL     1      -0.377  11.361  21.547  0.00  0.00    +0.000 A 
ATOM      5  C   UNL     1      -1.105  11.157  22.721  0.00  0.00    +0.000 A 
ATOM      6  F   UNL     1      -1.198   9.941  23.281  0.00  0.00    +0.000 F 
ATOM      7  C   UNL     1      -1.738  12.214  23.372  0.00  0.00    +0.000 A 
ENDROOT
BRANCH   4   8
ATOM      8  C   UNL     1       0.360  10.297  20.862  0.00  0.00    +0.000 A 
ATOM      9  N   UNL     1       0.660  10.346  19.580  0.00  0.00    +0.000 NA
ATOM     10  C   UNL     1       1.368   9.221  19.210  0.00  0.00    +0.000 A 
ATOM     11  C   UNL     1       1.889   8.959  17.929  0.00  0.00    +0.000 A 
ATOM     12  C   UNL     1       2.623   7.786  17.709  0.00  0.00    +0.000 A 
ATOM     13  C   UNL     1       2.825   6.868  18.744  0.00  0.00    +0.000 A 
ATOM     14  C   UNL     1       2.249   7.081  20.003  0.00  0.00    +0.000 A 
ATOM     15  C   UNL     1       1.558   8.280  20.221  0.00  0.00    +0.000 A 
ATOM     16  S   UNL     1       0.822   8.852  21.665  0.00  0.00    +0.000 S 
BRANCH  13  17
ATOM     17  C   UNL     1       3.610   5.638  18.456  0.00  0.00    +0.000 C 
ATOM     18  O   UNL     1       4.833   5.697  18.571  0.00  0.00    +0.000 OA
ATOM     19  N   UNL     1       2.956   4.471  18.095  0.00  0.00    +0.000 N 
ATOM     20  C   UNL     1       1.531   4.181  18.099  0.00  0.00    +0.000 C 
ATOM     21  C   UNL     1       1.461   2.701  18.416  0.00  0.00    +0.000 C 
ATOM     22  C   UNL     1       2.700   2.139  17.732  0.00  0.00    +0.000 C 
ATOM     23  C   UNL     1       3.719   3.274  17.783  0.00  0.00    +0.000 C 
ENDBRANCH  13  17
ENDBRANCH   4   8
BRANCH   1  24
ATOM     24  C   UNL     1      -2.347  14.659  23.566  0.00  0.00    +0.000 C 
BRANCH  24  27
ATOM     25  C   UNL     1      -5.251  14.662  23.828  0.00  0.00    +0.000 C 
ATOM     26  C   UNL     1      -4.538  14.232  22.535  0.00  0.00    +0.000 C 
ATOM     27  N   UNL     1      -3.469  15.221  22.792  0.00  0.00    +0.000 NA
ATOM     28  C   UNL     1      -4.396  15.947  23.699  0.00  0.00    +0.000 C 
BRANCH  25  30
ATOM     29  O   UNL     1      -7.386  15.725  23.267  0.00  0.00    +0.000 OA
ATOM     30  C   UNL     1      -6.773  14.839  23.865  0.00  0.00    +0.000 C 
BRANCH  30  31
ATOM     31  O   UNL     1      -7.452  13.958  24.647  0.00  0.00    +0.000 OA
ATOM     32  H   UNL     1      -7.966  14.362  25.370  0.00  0.00    +0.000 HD
ENDBRANCH  30  31
ENDBRANCH  25  30
ENDBRANCH  24  27
ENDBRANCH   1  24
TORSDOF 6
ENDMDL
MODEL 7
REMARK VINA RESULT:      -8.4      1.928      2.627
REMARK  Name = 
REMARK  6 active torsions:
REMARK  status: ('A' for Active; 'I' for Inactive)
REMARK    1  A    between atoms: C_2  and  O_3
REMARK    2  A    between atoms: C_2  and  C_4
REMARK    3  A    between atoms: N_6  and  C_7
REMARK    4  A    between atoms: C_7  and  C_8
REMARK    5  A    between atoms: C_11  and  C_12
REMARK    6  A    between atoms: C_17  and  C_18
REMARK                            x       y       z     vdW  Elec       q    Type
REMARK                         _______ _______ _______ _____ _____    ______ ____
ROOT
ATOM      1  C   UNL     1       3.976   5.509  17.500  0.00  0.00    +0.000 A 
ATOM      2  C   UNL     1       4.005   6.886  17.247  0.00  0.00    +0.000 A 
ATOM      3  C   UNL     1       3.270   7.765  18.045  0.00  0.00    +0.000 A 
ATOM      4  C   UNL     1       2.490   7.293  19.113  0.00  0.00    +0.000 A 
ATOM      5  C   UNL     1       2.470   5.918  19.357  0.00  0.00    +0.000 A 
ATOM      6  F   UNL     1       1.725   5.396  20.343  0.00  0.00    +0.000 F 
ATOM      7  C   UNL     1       3.200   5.033  18.565  0.00  0.00    +0.000 A 
ENDROOT
BRANCH   4   8
ATOM      8  C   UNL     1       1.690   8.257  19.873  0.00  0.00    +0.000 A 
ATOM      9  N   UNL     1       1.159   7.978  21.046  0.00  0.00    +0.000 NA
ATOM     10  C   UNL     1       0.476   9.072  21.535  0.00  0.00    +0.000 A 
ATOM     11  C   UNL     1      -0.176   9.148  22.781  0.00  0.00    +0.000 A 
ATOM     12  C   UNL     1      -0.800  10.343  23.161  0.00  0.00    +0.000 A 
ATOM     13  C   UNL     1      -0.796  11.452  22.309  0.00  0.00    +0.000 A 
ATOM     14  C   UNL     1      -0.214  11.366  21.037  0.00  0.00    +0.000 A 
ATOM     15  C   UNL     1       0.445  10.179  20.689  0.00  0.00    +0.000 A 
ATOM     16  S   UNL     1       1.310   9.811  19.250  0.00  0.00    +0.000 S 
BRANCH  13  17
ATOM     17  C   UNL     1      -1.475  12.695  22.761  0.00  0.00    +0.000 C 
ATOM     18  O   UNL     1      -0.889  13.404  23.579  0.00  0.00    +0.000 OA
ATOM     19  N   UNL     1      -2.715  13.031  22.244  0.00  0.00    +0.000 N 
ATOM     20  C   UNL     1      -3.447  12.417  21.148  0.00  0.00    +0.000 C 
ATOM     21  C   UNL     1      -4.215  13.569  20.531  0.00  0.00    +0.000 C 
ATOM     22  C   UNL     1      -4.552  14.445  21.730  0.00  0.00    +0.000 C 
ATOM     23  C   UNL     1      -3.398  14.229  22.704  0.00  0.00    +0.000 C 
ENDBRANCH  13  17
ENDBRANCH   4   8
BRANCH   1  24
ATOM     24  C   UNL     1       4.769   4.546  16.645  0.00  0.00    +0.000 C 
BRANCH  24  27
ATOM     25  C   UNL     1       5.972   3.818  14.090  0.00  0.00    +0.000 C 
ATOM     26  C   UNL     1       6.791   4.403  15.253  0.00  0.00    +0.000 C 
ATOM     27  N   UNL     1       5.631   5.225  15.661  0.00  0.00    +0.000 NA
ATOM     28  C   UNL     1       5.069   5.059  14.295  0.00  0.00    +0.000 C 
BRANCH  25  30
ATOM     29  O   UNL     1       7.342   4.452  12.161  0.00  0.00    +0.000 OA
ATOM     30  C   UNL     1       6.597   3.634  12.703  0.00  0.00    +0.000 C 
BRANCH  30  31
ATOM     31  O   UNL     1       6.257   2.491  12.049  0.00  0.00    +0.000 OA
ATOM     32  H   UNL     1       5.342   2.468  11.713  0.00  0.00    +0.000 HD
ENDBRANCH  30  31
ENDBRANCH  25  30
ENDBRANCH  24  27
ENDBRANCH   1  24
TORSDOF 6
ENDMDL
MODEL 8
REMARK VINA RESULT:      -8.4      2.004      2.735
REMARK  Name = 
REMARK  6 active torsions:
REMARK  status: ('A' for Active; 'I' for Inactive)
REMARK    1  A    between atoms: C_2  and  O_3
REMARK    2  A    between atoms: C_2  and  C_4
REMARK    3  A    between atoms: N_6  and  C_7
REMARK    4  A    between atoms: C_7  and  C_8
REMARK    5  A    between atoms: C_11  and  C_12
REMARK    6  A    between atoms: C_17  and  C_18
REMARK                            x       y       z     vdW  Elec       q    Type
REMARK                         _______ _______ _______ _____ _____    ______ ____
ROOT
ATOM      1  C   UNL     1       3.249   6.469  18.245  0.00  0.00    +0.000 A 
ATOM      2  C   UNL     1       2.979   7.684  17.605  0.00  0.00    +0.000 A 
ATOM      3  C   UNL     1       2.180   8.647  18.226  0.00  0.00    +0.000 A 
ATOM      4  C   UNL     1       1.632   8.420  19.499  0.00  0.00    +0.000 A 
ATOM      5  C   UNL     1       1.910   7.205  20.129  0.00  0.00    +0.000 A 
ATOM      6  F   UNL     1       1.397   6.911  21.334  0.00  0.00    +0.000 F 
ATOM      7  C   UNL     1       2.706   6.239  19.516  0.00  0.00    +0.000 A 
ENDROOT
BRANCH   4   8
ATOM      8  C   UNL     1       0.750   9.439  20.071  0.00  0.00    +0.000 A 
ATOM      9  N   UNL     1       0.410   9.459  21.344  0.00  0.00    +0.000 NA
ATOM     10  C   UNL     1      -0.413  10.535  21.604  0.00  0.00    +0.000 A 
ATOM     11  C   UNL     1      -0.931  10.892  22.864  0.00  0.00    +0.000 A 
ATOM     12  C   UNL     1      -1.727  12.039  22.982  0.00  0.00    +0.000 A 
ATOM     13  C   UNL     1      -2.026  12.819  21.861  0.00  0.00    +0.000 A 
ATOM     14  C   UNL     1      -1.577  12.433  20.590  0.00  0.00    +0.000 A 
ATOM     15  C   UNL     1      -0.745  11.311  20.494  0.00  0.00    +0.000 A 
ATOM     16  S   UNL     1       0.016  10.651  19.101  0.00  0.00    +0.000 S 
BRANCH  13  17
ATOM     17  C   UNL     1      -2.877  14.025  22.043  0.00  0.00    +0.000 C 
ATOM     18  O   UNL     1      -2.313  15.110  22.177  0.00  0.00    +0.000 OA
ATOM     19  N   UNL     1      -4.257  13.902  22.034  0.00  0.00    +0.000 N 
ATOM     20  C   UNL     1      -5.071  12.745  21.702  0.00  0.00    +0.000 C 
ATOM     21  C   UNL     1      -6.322  13.343  21.089  0.00  0.00    +0.000 C 
ATOM     22  C   UNL     1      -6.508  14.637  21.871  0.00  0.00    +0.000 C 
ATOM     23  C   UNL     1      -5.094  15.072  22.242  0.00  0.00    +0.000 C 
ENDBRANCH  13  17
ENDBRANCH   4   8
BRANCH   1  24
ATOM     24  C   UNL     1       4.115   5.419  17.586  0.00  0.00    +0.000 C 
BRANCH  24  27
ATOM     25  C   UNL     1       5.832   4.815  15.307  0.00  0.00    +0.000 C 
ATOM     26  C   UNL     1       6.370   4.916  16.745  0.00  0.00    +0.000 C 
ATOM     27  N   UNL     1       5.373   5.966  17.046  0.00  0.00    +0.000 NA
ATOM     28  C   UNL     1       5.234   6.215  15.588  0.00  0.00    +0.000 C 
BRANCH  25  30
ATOM     29  O   UNL     1       6.639   3.906  13.181  0.00  0.00    +0.000 OA
ATOM     30  C   UNL     1       6.789   4.692  14.117  0.00  0.00    +0.000 C 
BRANCH  30  31
ATOM     31  O   UNL     1       7.882   5.501  14.152  0.00  0.00    +0.000 OA
ATOM     32  H   UNL     1       7.930   6.156  13.431  0.00  0.00    +0.000 HD
ENDBRANCH  30  31
ENDBRANCH  25  30
ENDBRANCH  24  27
ENDBRANCH   1  24
TORSDOF 6
ENDMDL
MODEL 9
REMARK VINA RESULT:      -8.3      1.760      2.322
REMARK  Name = 
REMARK  6 active torsions:
REMARK  status: ('A' for Active; 'I' for Inactive)
REMARK    1  A    between atoms: C_2  and  O_3
REMARK    2  A    between atoms: C_2  and  C_4
REMARK    3  A    between atoms: N_6  and  C_7
REMARK    4  A    between atoms: C_7  and  C_8
REMARK    5  A    between atoms: C_11  and  C_12
REMARK    6  A    between atoms: C_17  and  C_18
REMARK                            x       y       z     vdW  Elec       q    Type
REMARK                         _______ _______ _______ _____ _____    ______ ____
ROOT
ATOM      1  C   UNL     1       4.323   5.625  17.449  0.00  0.00    +0.000 A 
ATOM      2  C   UNL     1       4.116   6.961  17.086  0.00  0.00    +0.000 A 
ATOM      3  C   UNL     1       3.302   7.786  17.866  0.00  0.00    +0.000 A 
ATOM      4  C   UNL     1       2.675   7.298  19.023  0.00  0.00    +0.000 A 
ATOM      5  C   UNL     1       2.890   5.963  19.377  0.00  0.00    +0.000 A 
ATOM      6  F   UNL     1       2.302   5.424  20.455  0.00  0.00    +0.000 F 
ATOM      7  C   UNL     1       3.701   5.134  18.604  0.00  0.00    +0.000 A 
ENDROOT
BRANCH   4   8
ATOM      8  C   UNL     1       1.781   8.191  19.763  0.00  0.00    +0.000 A 
ATOM      9  N   UNL     1       1.414   7.966  21.008  0.00  0.00    +0.000 NA
ATOM     10  C   UNL     1       0.587   8.976  21.454  0.00  0.00    +0.000 A 
ATOM     11  C   UNL     1       0.042   9.085  22.748  0.00  0.00    +0.000 A 
ATOM     12  C   UNL     1      -0.755  10.191  23.069  0.00  0.00    +0.000 A 
ATOM     13  C   UNL     1      -1.029  11.174  22.115  0.00  0.00    +0.000 A 
ATOM     14  C   UNL     1      -0.554  11.040  20.803  0.00  0.00    +0.000 A 
ATOM     15  C   UNL     1       0.280   9.953  20.509  0.00  0.00    +0.000 A 
ATOM     16  S   UNL     1       1.070   9.572  19.031  0.00  0.00    +0.000 S 
BRANCH  13  17
ATOM     17  C   UNL     1      -1.883  12.327  22.509  0.00  0.00    +0.000 C 
ATOM     18  O   UNL     1      -2.996  12.083  22.972  0.00  0.00    +0.000 OA
ATOM     19  N   UNL     1      -1.404  13.619  22.369  0.00  0.00    +0.000 N 
ATOM     20  C   UNL     1      -0.065  14.067  22.025  0.00  0.00    +0.000 C 
ATOM     21  C   UNL     1       0.086  15.376  22.776  0.00  0.00    +0.000 C 
ATOM     22  C   UNL     1      -1.319  15.963  22.737  0.00  0.00    +0.000 C 
ATOM     23  C   UNL     1      -2.245  14.750  22.724  0.00  0.00    +0.000 C 
ENDBRANCH  13  17
ENDBRANCH   4   8
BRANCH   1  24
ATOM     24  C   UNL     1       5.205   4.722  16.616  0.00  0.00    +0.000 C 
BRANCH  24  27
ATOM     25  C   UNL     1       6.147   3.760  14.029  0.00  0.00    +0.000 C 
ATOM     26  C   UNL     1       6.929   4.789  14.864  0.00  0.00    +0.000 C 
ATOM     27  N   UNL     1       5.656   5.354  15.363  0.00  0.00    +0.000 NA
ATOM     28  C   UNL     1       4.960   4.738  14.205  0.00  0.00    +0.000 C 
BRANCH  25  30
ATOM     29  O   UNL     1       7.290   4.144  11.897  0.00  0.00    +0.000 OA
ATOM     30  C   UNL     1       6.570   3.428  12.594  0.00  0.00    +0.000 C 
BRANCH  30  31
ATOM     31  O   UNL     1       6.069   2.272  12.083  0.00  0.00    +0.000 OA
ATOM     32  H   UNL     1       5.192   2.018  12.424  0.00  0.00    +0.000 HD
ENDBRANCH  30  31
ENDBRANCH  25  30
ENDBRANCH  24  27
ENDBRANCH   1  24
TORSDOF 6
ENDMDL
