MODEL 1
REMARK VINA RESULT:      -7.3      0.000      0.000
REMARK  Name = 
REMARK  5 active torsions:
REMARK  status: ('A' for Active; 'I' for Inactive)
REMARK    1  A    between atoms: C_1  and  C_2
REMARK    2  A    between atoms: C_2  and  C_3
REMARK    3  A    between atoms: C_5  and  C_6
REMARK    4  A    between atoms: C_5  and  C_7
REMARK    5  A    between atoms: C_12  and  C_13
REMARK                            x       y       z     vdW  Elec       q    Type
REMARK                         _______ _______ _______ _____ _____    ______ ____
ROOT
ATOM      1  C   UNL     1       1.378  12.305  19.847  0.00  0.00    +0.000 C 
ATOM      2  C   UNL     1       0.403  11.188  19.459  0.00  0.00    +0.000 C 
ATOM      3  C   UNL     1      -0.603  11.723  18.434  0.00  0.00    +0.000 C 
ATOM      4  C   UNL     1      -0.329  10.587  20.696  0.00  0.00    +0.000 C 
ATOM      5  C   UNL     1       0.454   9.321  21.170  0.00  0.00    +0.000 C 
ATOM      6  C   UNL     1      -0.539   8.257  21.660  0.00  0.00    +0.000 C 
ATOM      7  C   UNL     1       1.456   9.644  22.284  0.00  0.00    +0.000 C 
ATOM      8  C   UNL     1       1.159   8.958  19.890  0.00  0.00    +0.000 A 
ATOM      9  C   UNL     1       1.134   9.968  18.955  0.00  0.00    +0.000 A 
ATOM     10  N   UNL     1       1.734   9.860  17.770  0.00  0.00    +0.000 NA
ATOM     11  N   UNL     1       2.365   8.682  17.474  0.00  0.00    +0.000 NA
ATOM     12  C   UNL     1       2.414   7.633  18.367  0.00  0.00    +0.000 A 
ATOM     13  N   UNL     1       1.826   7.782  19.629  0.00  0.00    +0.000 N 
ATOM     14  O   UNL     1       1.895   6.889  20.536  0.00  0.00    +0.000 OA
ENDROOT
BRANCH  12  15
ATOM     15  C   UNL     1       3.075   6.392  17.935  0.00  0.00    +0.000 A 
ATOM     16  C   UNL     1       4.417   6.401  17.512  0.00  0.00    +0.000 A 
ATOM     17  C   UNL     1       5.055   5.232  17.080  0.00  0.00    +0.000 A 
ATOM     18  C   UNL     1       4.361   4.026  17.055  0.00  0.00    +0.000 A 
ATOM     19  C   UNL     1       3.031   3.989  17.456  0.00  0.00    +0.000 A 
ATOM     20  C   UNL     1       2.397   5.159  17.886  0.00  0.00    +0.000 A 
ENDBRANCH  12  15
TORSDOF 1
ENDMDL
MODEL 2
REMARK VINA RESULT:      -7.2      0.055      1.076
REMARK  Name = 
REMARK  5 active torsions:
REMARK  status: ('A' for Active; 'I' for Inactive)
REMARK    1  A    between atoms: C_1  and  C_2
REMARK    2  A    between atoms: C_2  and  C_3
REMARK    3  A    between atoms: C_5  and  C_6
REMARK    4  A    between atoms: C_5  and  C_7
REMARK    5  A    between atoms: C_12  and  C_13
REMARK                            x       y       z     vdW  Elec       q    Type
REMARK                         _______ _______ _______ _____ _____    ______ ____
ROOT
ATOM      1  C   UNL     1       1.350  12.294  19.939  0.00  0.00    +0.000 C 
ATOM      2  C   UNL     1       0.385  11.180  19.519  0.00  0.00    +0.000 C 
ATOM      3  C   UNL     1      -0.617  11.731  18.499  0.00  0.00    +0.000 C 
ATOM      4  C   UNL     1      -0.352  10.545  20.735  0.00  0.00    +0.000 C 
ATOM      5  C   UNL     1       0.437   9.273  21.186  0.00  0.00    +0.000 C 
ATOM      6  C   UNL     1      -0.552   8.192  21.644  0.00  0.00    +0.000 C 
ATOM      7  C   UNL     1       1.429   9.576  22.314  0.00  0.00    +0.000 C 
ATOM      8  C   UNL     1       1.153   8.945  19.903  0.00  0.00    +0.000 A 
ATOM      9  C   UNL     1       1.129   9.977  18.991  0.00  0.00    +0.000 A 
ATOM     10  N   UNL     1       1.738   9.900  17.809  0.00  0.00    +0.000 NA
ATOM     11  N   UNL     1       2.379   8.734  17.490  0.00  0.00    +0.000 NA
ATOM     12  C   UNL     1       2.429   7.665  18.358  0.00  0.00    +0.000 A 
ATOM     13  N   UNL     1       1.830   7.780  19.619  0.00  0.00    +0.000 N 
ATOM     14  O   UNL     1       1.899   6.867  20.506  0.00  0.00    +0.000 OA
ENDROOT
BRANCH  12  15
ATOM     15  C   UNL     1       3.101   6.439  17.902  0.00  0.00    +0.000 A 
ATOM     16  C   UNL     1       2.423   5.205  17.900  0.00  0.00    +0.000 A 
ATOM     17  C   UNL     1       3.055   4.025  17.488  0.00  0.00    +0.000 A 
ATOM     18  C   UNL     1       4.384   4.052  17.075  0.00  0.00    +0.000 A 
ATOM     19  C   UNL     1       5.081   5.255  17.077  0.00  0.00    +0.000 A 
ATOM     20  C   UNL     1       4.447   6.430  17.491  0.00  0.00    +0.000 A 
ENDBRANCH  12  15
TORSDOF 1
ENDMDL
MODEL 3
REMARK VINA RESULT:      -7.1      1.358      3.077
REMARK  Name = 
REMARK  5 active torsions:
REMARK  status: ('A' for Active; 'I' for Inactive)
REMARK    1  A    between atoms: C_1  and  C_2
REMARK    2  A    between atoms: C_2  and  C_3
REMARK    3  A    between atoms: C_5  and  C_6
REMARK    4  A    between atoms: C_5  and  C_7
REMARK    5  A    between atoms: C_12  and  C_13
REMARK                            x       y       z     vdW  Elec       q    Type
REMARK                         _______ _______ _______ _____ _____    ______ ____
ROOT
ATOM      1  C   UNL     1      -0.812   8.609  21.602  0.00  0.00    +0.000 C 
ATOM      2  C   UNL     1       0.613   9.148  21.438  0.00  0.00    +0.000 C 
ATOM      3  C   UNL     1       1.264   9.297  22.817  0.00  0.00    +0.000 C 
ATOM      4  C   UNL     1       0.650  10.495  20.657  0.00  0.00    +0.000 C 
ATOM      5  C   UNL     1       0.920  10.188  19.148  0.00  0.00    +0.000 C 
ATOM      6  C   UNL     1       1.817  11.283  18.555  0.00  0.00    +0.000 C 
ATOM      7  C   UNL     1      -0.377  10.087  18.338  0.00  0.00    +0.000 C 
ATOM      8  C   UNL     1       1.591   8.846  19.273  0.00  0.00    +0.000 A 
ATOM      9  C   UNL     1       1.430   8.275  20.516  0.00  0.00    +0.000 A 
ATOM     10  N   UNL     1       1.915   7.072  20.817  0.00  0.00    +0.000 NA
ATOM     11  N   UNL     1       2.628   6.406  19.856  0.00  0.00    +0.000 NA
ATOM     12  C   UNL     1       2.830   6.933  18.599  0.00  0.00    +0.000 A 
ATOM     13  N   UNL     1       2.266   8.174  18.280  0.00  0.00    +0.000 N 
ATOM     14  O   UNL     1       2.343   8.692  17.117  0.00  0.00    +0.000 OA
ENDROOT
BRANCH  12  15
ATOM     15  C   UNL     1       3.650   6.161  17.653  0.00  0.00    +0.000 A 
ATOM     16  C   UNL     1       3.483   4.769  17.526  0.00  0.00    +0.000 A 
ATOM     17  C   UNL     1       4.270   4.016  16.645  0.00  0.00    +0.000 A 
ATOM     18  C   UNL     1       5.247   4.640  15.874  0.00  0.00    +0.000 A 
ATOM     19  C   UNL     1       5.441   6.012  15.987  0.00  0.00    +0.000 A 
ATOM     20  C   UNL     1       4.655   6.758  16.870  0.00  0.00    +0.000 A 
ENDBRANCH  12  15
TORSDOF 1
ENDMDL
MODEL 4
REMARK VINA RESULT:      -7.1      1.561      6.508
REMARK  Name = 
REMARK  5 active torsions:
REMARK  status: ('A' for Active; 'I' for Inactive)
REMARK    1  A    between atoms: C_1  and  C_2
REMARK    2  A    between atoms: C_2  and  C_3
REMARK    3  A    between atoms: C_5  and  C_6
REMARK    4  A    between atoms: C_5  and  C_7
REMARK    5  A    between atoms: C_12  and  C_13
REMARK                            x       y       z     vdW  Elec       q    Type
REMARK                         _______ _______ _______ _____ _____    ______ ____
ROOT
ATOM      1  C   UNL     1       5.258   4.335  14.998  0.00  0.00    +0.000 C 
ATOM      2  C   UNL     1       5.593   4.623  16.465  0.00  0.00    +0.000 C 
ATOM      3  C   UNL     1       7.065   5.035  16.580  0.00  0.00    +0.000 C 
ATOM      4  C   UNL     1       5.280   3.411  17.393  0.00  0.00    +0.000 C 
ATOM      5  C   UNL     1       3.853   3.604  17.999  0.00  0.00    +0.000 C 
ATOM      6  C   UNL     1       3.836   3.087  19.444  0.00  0.00    +0.000 C 
ATOM      7  C   UNL     1       2.774   2.886  17.180  0.00  0.00    +0.000 C 
ATOM      8  C   UNL     1       3.722   5.099  17.880  0.00  0.00    +0.000 A 
ATOM      9  C   UNL     1       4.665   5.661  17.049  0.00  0.00    +0.000 A 
ATOM     10  N   UNL     1       4.696   6.965  16.782  0.00  0.00    +0.000 NA
ATOM     11  N   UNL     1       3.771   7.769  17.391  0.00  0.00    +0.000 NA
ATOM     12  C   UNL     1       2.810   7.266  18.240  0.00  0.00    +0.000 A 
ATOM     13  N   UNL     1       2.755   5.884  18.468  0.00  0.00    +0.000 N 
ATOM     14  O   UNL     1       1.850   5.334  19.177  0.00  0.00    +0.000 OA
ENDROOT
BRANCH  12  15
ATOM     15  C   UNL     1       1.891   8.218  18.882  0.00  0.00    +0.000 A 
ATOM     16  C   UNL     1       1.238   9.208  18.125  0.00  0.00    +0.000 A 
ATOM     17  C   UNL     1       0.375  10.135  18.724  0.00  0.00    +0.000 A 
ATOM     18  C   UNL     1       0.152  10.095  20.098  0.00  0.00    +0.000 A 
ATOM     19  C   UNL     1       0.793   9.134  20.871  0.00  0.00    +0.000 A 
ATOM     20  C   UNL     1       1.654   8.213  20.269  0.00  0.00    +0.000 A 
ENDBRANCH  12  15
TORSDOF 1
ENDMDL
MODEL 5
REMARK VINA RESULT:      -7.1      1.550      6.511
REMARK  Name = 
REMARK  5 active torsions:
REMARK  status: ('A' for Active; 'I' for Inactive)
REMARK    1  A    between atoms: C_1  and  C_2
REMARK    2  A    between atoms: C_2  and  C_3
REMARK    3  A    between atoms: C_5  and  C_6
REMARK    4  A    between atoms: C_5  and  C_7
REMARK    5  A    between atoms: C_12  and  C_13
REMARK                            x       y       z     vdW  Elec       q    Type
REMARK                         _______ _______ _______ _____ _____    ______ ____
ROOT
ATOM      1  C   UNL     1       5.295   4.231  15.150  0.00  0.00    +0.000 C 
ATOM      2  C   UNL     1       5.570   4.533  16.627  0.00  0.00    +0.000 C 
ATOM      3  C   UNL     1       7.048   4.898  16.806  0.00  0.00    +0.000 C 
ATOM      4  C   UNL     1       5.172   3.349  17.558  0.00  0.00    +0.000 C 
ATOM      5  C   UNL     1       3.725   3.601  18.091  0.00  0.00    +0.000 C 
ATOM      6  C   UNL     1       3.622   3.110  19.542  0.00  0.00    +0.000 C 
ATOM      7  C   UNL     1       2.662   2.904  17.234  0.00  0.00    +0.000 C 
ATOM      8  C   UNL     1       3.651   5.097  17.943  0.00  0.00    +0.000 A 
ATOM      9  C   UNL     1       4.652   5.612  17.149  0.00  0.00    +0.000 A 
ATOM     10  N   UNL     1       4.740   6.910  16.863  0.00  0.00    +0.000 NA
ATOM     11  N   UNL     1       3.815   7.755  17.414  0.00  0.00    +0.000 NA
ATOM     12  C   UNL     1       2.798   7.299  18.224  0.00  0.00    +0.000 A 
ATOM     13  N   UNL     1       2.686   5.924  18.471  0.00  0.00    +0.000 N 
ATOM     14  O   UNL     1       1.729   5.417  19.145  0.00  0.00    +0.000 OA
ENDROOT
BRANCH  12  15
ATOM     15  C   UNL     1       1.883   8.292  18.806  0.00  0.00    +0.000 A 
ATOM     16  C   UNL     1       1.635   8.317  20.191  0.00  0.00    +0.000 A 
ATOM     17  C   UNL     1       0.752   9.243  20.759  0.00  0.00    +0.000 A 
ATOM     18  C   UNL     1       0.090  10.164  19.950  0.00  0.00    +0.000 A 
ATOM     19  C   UNL     1       0.308  10.155  18.578  0.00  0.00    +0.000 A 
ATOM     20  C   UNL     1       1.189   9.227  18.015  0.00  0.00    +0.000 A 
ENDBRANCH  12  15
TORSDOF 1
ENDMDL
MODEL 6
REMARK VINA RESULT:      -7.0      1.392      2.924
REMARK  Name = 
REMARK  5 active torsions:
REMARK  status: ('A' for Active; 'I' for Inactive)
REMARK    1  A    between atoms: C_1  and  C_2
REMARK    2  A    between atoms: C_2  and  C_3
REMARK    3  A    between atoms: C_5  and  C_6
REMARK    4  A    between atoms: C_5  and  C_7
REMARK    5  A    between atoms: C_12  and  C_13
REMARK                            x       y       z     vdW  Elec       q    Type
REMARK                         _______ _______ _______ _____ _____    ______ ____
ROOT
ATOM      1  C   UNL     1      -0.792   8.550  21.551  0.00  0.00    +0.000 C 
ATOM      2  C   UNL     1       0.633   9.088  21.385  0.00  0.00    +0.000 C 
ATOM      3  C   UNL     1       1.279   9.256  22.765  0.00  0.00    +0.000 C 
ATOM      4  C   UNL     1       0.672  10.424  20.586  0.00  0.00    +0.000 C 
ATOM      5  C   UNL     1       0.948  10.098  19.083  0.00  0.00    +0.000 C 
ATOM      6  C   UNL     1       1.846  11.186  18.478  0.00  0.00    +0.000 C 
ATOM      7  C   UNL     1      -0.346   9.985  18.269  0.00  0.00    +0.000 C 
ATOM      8  C   UNL     1       1.620   8.758  19.229  0.00  0.00    +0.000 A 
ATOM      9  C   UNL     1       1.454   8.203  20.478  0.00  0.00    +0.000 A 
ATOM     10  N   UNL     1       1.940   7.005  20.797  0.00  0.00    +0.000 NA
ATOM     11  N   UNL     1       2.657   6.327  19.848  0.00  0.00    +0.000 NA
ATOM     12  C   UNL     1       2.863   6.837  18.585  0.00  0.00    +0.000 A 
ATOM     13  N   UNL     1       2.300   8.074  18.247  0.00  0.00    +0.000 N 
ATOM     14  O   UNL     1       2.380   8.576  17.077  0.00  0.00    +0.000 OA
ENDROOT
BRANCH  12  15
ATOM     15  C   UNL     1       3.688   6.053  17.653  0.00  0.00    +0.000 A 
ATOM     16  C   UNL     1       4.695   6.672  16.889  0.00  0.00    +0.000 A 
ATOM     17  C   UNL     1       5.476   5.944  15.983  0.00  0.00    +0.000 A 
ATOM     18  C   UNL     1       5.261   4.579  15.815  0.00  0.00    +0.000 A 
ATOM     19  C   UNL     1       4.265   3.944  16.548  0.00  0.00    +0.000 A 
ATOM     20  C   UNL     1       3.487   4.675  17.450  0.00  0.00    +0.000 A 
ENDBRANCH  12  15
TORSDOF 1
ENDMDL
MODEL 7
REMARK VINA RESULT:      -6.8      1.785      6.378
REMARK  Name = 
REMARK  5 active torsions:
REMARK  status: ('A' for Active; 'I' for Inactive)
REMARK    1  A    between atoms: C_1  and  C_2
REMARK    2  A    between atoms: C_2  and  C_3
REMARK    3  A    between atoms: C_5  and  C_6
REMARK    4  A    between atoms: C_5  and  C_7
REMARK    5  A    between atoms: C_12  and  C_13
REMARK                            x       y       z     vdW  Elec       q    Type
REMARK                         _______ _______ _______ _____ _____    ______ ____
ROOT
ATOM      1  C   UNL     1       4.091   3.684  16.608  0.00  0.00    +0.000 C 
ATOM      2  C   UNL     1       4.538   4.070  18.022  0.00  0.00    +0.000 C 
ATOM      3  C   UNL     1       6.054   4.298  18.033  0.00  0.00    +0.000 C 
ATOM      4  C   UNL     1       4.128   3.006  19.083  0.00  0.00    +0.000 C 
ATOM      5  C   UNL     1       2.771   3.440  19.725  0.00  0.00    +0.000 C 
ATOM      6  C   UNL     1       2.768   3.075  21.216  0.00  0.00    +0.000 C 
ATOM      7  C   UNL     1       1.569   2.790  19.031  0.00  0.00    +0.000 C 
ATOM      8  C   UNL     1       2.821   4.921  19.456  0.00  0.00    +0.000 A 
ATOM      9  C   UNL     1       3.780   5.271  18.532  0.00  0.00    +0.000 A 
ATOM     10  N   UNL     1       3.958   6.528  18.129  0.00  0.00    +0.000 NA
ATOM     11  N   UNL     1       3.174   7.501  18.689  0.00  0.00    +0.000 NA
ATOM     12  C   UNL     1       2.205   7.211  19.625  0.00  0.00    +0.000 A 
ATOM     13  N   UNL     1       1.992   5.878  19.998  0.00  0.00    +0.000 N 
ATOM     14  O   UNL     1       1.066   5.521  20.798  0.00  0.00    +0.000 OA
ENDROOT
BRANCH  12  15
ATOM     15  C   UNL     1       1.448   8.333  20.201  0.00  0.00    +0.000 A 
ATOM     16  C   UNL     1       0.934   9.352  19.378  0.00  0.00    +0.000 A 
ATOM     17  C   UNL     1       0.228  10.437  19.913  0.00  0.00    +0.000 A 
ATOM     18  C   UNL     1       0.026  10.529  21.287  0.00  0.00    +0.000 A 
ATOM     19  C   UNL     1       0.532   9.543  22.125  0.00  0.00    +0.000 A 
ATOM     20  C   UNL     1       1.238   8.463  21.587  0.00  0.00    +0.000 A 
ENDBRANCH  12  15
TORSDOF 1
ENDMDL
MODEL 8
REMARK VINA RESULT:      -6.8      1.825      6.785
REMARK  Name = 
REMARK  5 active torsions:
REMARK  status: ('A' for Active; 'I' for Inactive)
REMARK    1  A    between atoms: C_1  and  C_2
REMARK    2  A    between atoms: C_2  and  C_3
REMARK    3  A    between atoms: C_5  and  C_6
REMARK    4  A    between atoms: C_5  and  C_7
REMARK    5  A    between atoms: C_12  and  C_13
REMARK                            x       y       z     vdW  Elec       q    Type
REMARK                         _______ _______ _______ _____ _____    ______ ____
ROOT
ATOM      1  C   UNL     1       4.573   2.362  19.661  0.00  0.00    +0.000 C 
ATOM      2  C   UNL     1       3.762   2.892  18.474  0.00  0.00    +0.000 C 
ATOM      3  C   UNL     1       2.691   1.866  18.088  0.00  0.00    +0.000 C 
ATOM      4  C   UNL     1       4.662   3.243  17.252  0.00  0.00    +0.000 C 
ATOM      5  C   UNL     1       5.004   4.767  17.307  0.00  0.00    +0.000 C 
ATOM      6  C   UNL     1       5.039   5.336  15.882  0.00  0.00    +0.000 C 
ATOM      7  C   UNL     1       6.343   5.035  18.003  0.00  0.00    +0.000 C 
ATOM      8  C   UNL     1       3.849   5.261  18.137  0.00  0.00    +0.000 A 
ATOM      9  C   UNL     1       3.168   4.248  18.773  0.00  0.00    +0.000 A 
ATOM     10  N   UNL     1       2.138   4.479  19.585  0.00  0.00    +0.000 NA
ATOM     11  N   UNL     1       1.731   5.775  19.756  0.00  0.00    +0.000 NA
ATOM     12  C   UNL     1       2.368   6.829  19.137  0.00  0.00    +0.000 A 
ATOM     13  N   UNL     1       3.484   6.574  18.330  0.00  0.00    +0.000 N 
ATOM     14  O   UNL     1       4.172   7.500  17.786  0.00  0.00    +0.000 OA
ENDROOT
BRANCH  12  15
ATOM     15  C   UNL     1       1.825   8.179  19.346  0.00  0.00    +0.000 A 
ATOM     16  C   UNL     1       1.379   8.586  20.617  0.00  0.00    +0.000 A 
ATOM     17  C   UNL     1       0.841   9.862  20.830  0.00  0.00    +0.000 A 
ATOM     18  C   UNL     1       0.732  10.758  19.770  0.00  0.00    +0.000 A 
ATOM     19  C   UNL     1       1.154  10.380  18.501  0.00  0.00    +0.000 A 
ATOM     20  C   UNL     1       1.688   9.104  18.294  0.00  0.00    +0.000 A 
ENDBRANCH  12  15
TORSDOF 1
ENDMDL
MODEL 9
REMARK VINA RESULT:      -6.8      1.792      6.403
REMARK  Name = 
REMARK  5 active torsions:
REMARK  status: ('A' for Active; 'I' for Inactive)
REMARK    1  A    between atoms: C_1  and  C_2
REMARK    2  A    between atoms: C_2  and  C_3
REMARK    3  A    between atoms: C_5  and  C_6
REMARK    4  A    between atoms: C_5  and  C_7
REMARK    5  A    between atoms: C_12  and  C_13
REMARK                            x       y       z     vdW  Elec       q    Type
REMARK                         _______ _______ _______ _____ _____    ______ ____
ROOT
ATOM      1  C   UNL     1       4.178   3.702  16.629  0.00  0.00    +0.000 C 
ATOM      2  C   UNL     1       4.605   4.096  18.047  0.00  0.00    +0.000 C 
ATOM      3  C   UNL     1       6.117   4.348  18.072  0.00  0.00    +0.000 C 
ATOM      4  C   UNL     1       4.202   3.027  19.106  0.00  0.00    +0.000 C 
ATOM      5  C   UNL     1       2.832   3.441  19.733  0.00  0.00    +0.000 C 
ATOM      6  C   UNL     1       2.821   3.077  21.225  0.00  0.00    +0.000 C 
ATOM      7  C   UNL     1       1.647   2.770  19.029  0.00  0.00    +0.000 C 
ATOM      8  C   UNL     1       2.860   4.922  19.463  0.00  0.00    +0.000 A 
ATOM      9  C   UNL     1       3.823   5.286  18.548  0.00  0.00    +0.000 A 
ATOM     10  N   UNL     1       3.985   6.545  18.145  0.00  0.00    +0.000 NA
ATOM     11  N   UNL     1       3.180   7.506  18.695  0.00  0.00    +0.000 NA
ATOM     12  C   UNL     1       2.207   7.202  19.622  0.00  0.00    +0.000 A 
ATOM     13  N   UNL     1       2.012   5.866  19.995  0.00  0.00    +0.000 N 
ATOM     14  O   UNL     1       1.083   5.496  20.787  0.00  0.00    +0.000 OA
ENDROOT
BRANCH  12  15
ATOM     15  C   UNL     1       1.427   8.312  20.190  0.00  0.00    +0.000 A 
ATOM     16  C   UNL     1       1.195   8.393  21.575  0.00  0.00    +0.000 A 
ATOM     17  C   UNL     1       0.437   9.433  22.130  0.00  0.00    +0.000 A 
ATOM     18  C   UNL     1      -0.112  10.412  21.307  0.00  0.00    +0.000 A 
ATOM     19  C   UNL     1       0.092  10.351  19.934  0.00  0.00    +0.000 A 
ATOM     20  C   UNL     1       0.847   9.310  19.385  0.00  0.00    +0.000 A 
ENDBRANCH  12  15
TORSDOF 1
ENDMDL
