MODEL 1
REMARK VINA RESULT:      -7.2      0.000      0.000
REMARK  Name = 
REMARK  10 active torsions:
REMARK  status: ('A' for Active; 'I' for Inactive)
REMARK    1  A    between atoms: C_1  and  S_2
REMARK    2  A    between atoms: S_2  and  C_3
REMARK    3  A    between atoms: C_3  and  C_4
REMARK    4  A    between atoms: C_4  and  C_5
REMARK    5  A    between atoms: C_5  and  N_6
REMARK    6  A    between atoms: C_5  and  C_17
REMARK    7  A    between atoms: C_7  and  C_9
REMARK    8  A    between atoms: C_9  and  O_10
REMARK    9  A    between atoms: O_10  and  C_11
REMARK   10  A    between atoms: C_22  and  C_23
REMARK                            x       y       z     vdW  Elec       q    Type
REMARK                         _______ _______ _______ _____ _____    ______ ____
ROOT
ATOM      1  C   UNL     1       2.786   6.106  19.121  0.00  0.00    +0.000 C 
ENDROOT
BRANCH   1   2
ATOM      2  C   UNL     1       2.433   7.561  18.676  0.00  0.00    +0.000 C 
ATOM      3  O   UNL     1       2.712   7.942  17.536  0.00  0.00    +0.000 OA
ATOM      4  N   UNL     1       1.680   8.364  19.536  0.00  0.00    +0.000 N 
ATOM      5  C   UNL     1       1.482   8.138  20.969  0.00  0.00    +0.000 C 
ATOM      6  C   UNL     1       0.023   8.324  21.377  0.00  0.00    +0.000 C 
ATOM      7  C   UNL     1      -0.543   9.669  20.905  0.00  0.00    +0.000 C 
ATOM      8  C   UNL     1      -0.288   9.835  19.402  0.00  0.00    +0.000 C 
ATOM      9  C   UNL     1       1.193   9.659  19.056  0.00  0.00    +0.000 C 
BRANCH   7  10
ATOM     10  C   UNL     1       0.019  10.825  21.732  0.00  0.00    +0.000 C 
ATOM     11  N   UNL     1      -0.655  11.123  22.874  0.00  0.00    +0.000 N 
ATOM     12  O   UNL     1       1.034  11.448  21.439  0.00  0.00    +0.000 OA
ATOM     13  H   UNL     1      -1.404  10.555  23.247  0.00  0.00    +0.000 HD
ATOM     14  H   UNL     1      -0.262  11.844  23.465  0.00  0.00    +0.000 HD
ENDBRANCH   7  10
ENDBRANCH   1   2
BRANCH   1  15
ATOM     15  N   UNL     1       3.050   5.209  17.987  0.00  0.00    +0.000 N 
ATOM     16  C   UNL     1       4.074   4.304  17.843  0.00  0.00    +0.000 C 
ATOM     17  O   UNL     1       4.111   3.598  16.835  0.00  0.00    +0.000 OA
ATOM     18  H   UNL     1       2.395   5.222  17.210  0.00  0.00    +0.000 HD
BRANCH  16  19
ATOM     19  C   UNL     1       5.119   4.172  18.961  0.00  0.00    +0.000 C 
BRANCH  19  20
ATOM     20  O   UNL     1       6.449   4.267  18.481  0.00  0.00    +0.000 OA
BRANCH  20  21
ATOM     21  C   UNL     1       6.875   5.539  18.197  0.00  0.00    +0.000 A 
ATOM     22  C   UNL     1       7.854   6.044  19.057  0.00  0.00    +0.000 A 
ATOM     23  C   UNL     1       8.382   7.323  18.865  0.00  0.00    +0.000 A 
ATOM     24  C   UNL     1       7.942   8.097  17.794  0.00  0.00    +0.000 A 
ATOM     25  C   UNL     1       6.984   7.598  16.918  0.00  0.00    +0.000 A 
ATOM     26  C   UNL     1       6.454   6.318  17.117  0.00  0.00    +0.000 A 
ENDBRANCH  20  21
ENDBRANCH  19  20
ENDBRANCH  16  19
ENDBRANCH   1  15
BRANCH   1  27
ATOM     27  C   UNL     1       1.680   5.511  20.040  0.00  0.00    +0.000 C 
BRANCH  27  28
ATOM     28  C   UNL     1       2.261   4.577  21.098  0.00  0.00    +0.000 C 
BRANCH  28  30
ATOM     29  C   UNL     1       1.770   2.280  19.728  0.00  0.00    +0.000 C 
ATOM     30  S   UNL     1       1.403   3.005  21.358  0.00  0.00    +0.000 S 
ENDBRANCH  28  30
ENDBRANCH  27  28
ENDBRANCH   1  27
TORSDOF 9
ENDMDL
MODEL 2
REMARK VINA RESULT:      -7.2      2.163      2.758
REMARK  Name = 
REMARK  10 active torsions:
REMARK  status: ('A' for Active; 'I' for Inactive)
REMARK    1  A    between atoms: C_1  and  S_2
REMARK    2  A    between atoms: S_2  and  C_3
REMARK    3  A    between atoms: C_3  and  C_4
REMARK    4  A    between atoms: C_4  and  C_5
REMARK    5  A    between atoms: C_5  and  N_6
REMARK    6  A    between atoms: C_5  and  C_17
REMARK    7  A    between atoms: C_7  and  C_9
REMARK    8  A    between atoms: C_9  and  O_10
REMARK    9  A    between atoms: O_10  and  C_11
REMARK   10  A    between atoms: C_22  and  C_23
REMARK                            x       y       z     vdW  Elec       q    Type
REMARK                         _______ _______ _______ _____ _____    ______ ____
ROOT
ATOM      1  C   UNL     1       2.626   6.008  19.126  0.00  0.00    +0.000 C 
ENDROOT
BRANCH   1   2
ATOM      2  C   UNL     1       2.527   7.484  18.626  0.00  0.00    +0.000 C 
ATOM      3  O   UNL     1       3.010   7.799  17.535  0.00  0.00    +0.000 OA
ATOM      4  N   UNL     1       1.769   8.396  19.365  0.00  0.00    +0.000 N 
ATOM      5  C   UNL     1       1.345   8.230  20.757  0.00  0.00    +0.000 C 
ATOM      6  C   UNL     1      -0.121   8.608  20.952  0.00  0.00    +0.000 C 
ATOM      7  C   UNL     1      -0.440  10.001  20.396  0.00  0.00    +0.000 C 
ATOM      8  C   UNL     1       0.043  10.098  18.943  0.00  0.00    +0.000 C 
ATOM      9  C   UNL     1       1.523   9.729  18.813  0.00  0.00    +0.000 C 
BRANCH   7  10
ATOM     10  C   UNL     1       0.143  11.097  21.287  0.00  0.00    +0.000 C 
ATOM     11  N   UNL     1       0.203  12.340  20.739  0.00  0.00    +0.000 N 
ATOM     12  O   UNL     1       0.512  10.919  22.442  0.00  0.00    +0.000 OA
ATOM     13  H   UNL     1      -0.221  12.583  19.854  0.00  0.00    +0.000 HD
ATOM     14  H   UNL     1       0.528  13.090  21.335  0.00  0.00    +0.000 HD
ENDBRANCH   7  10
ENDBRANCH   1   2
BRANCH   1  15
ATOM     15  N   UNL     1       3.933   5.691  19.720  0.00  0.00    +0.000 N 
ATOM     16  C   UNL     1       5.119   5.440  19.073  0.00  0.00    +0.000 C 
ATOM     17  O   UNL     1       6.133   5.235  19.740  0.00  0.00    +0.000 OA
ATOM     18  H   UNL     1       4.002   5.674  20.734  0.00  0.00    +0.000 HD
BRANCH  16  19
ATOM     19  C   UNL     1       5.153   5.458  17.538  0.00  0.00    +0.000 C 
BRANCH  19  20
ATOM     20  O   UNL     1       5.592   4.230  16.985  0.00  0.00    +0.000 OA
BRANCH  20  21
ATOM     21  C   UNL     1       5.935   4.279  15.658  0.00  0.00    +0.000 A 
ATOM     22  C   UNL     1       7.074   5.034  15.366  0.00  0.00    +0.000 A 
ATOM     23  C   UNL     1       7.536   5.150  14.053  0.00  0.00    +0.000 A 
ATOM     24  C   UNL     1       6.864   4.492  13.024  0.00  0.00    +0.000 A 
ATOM     25  C   UNL     1       5.743   3.719  13.305  0.00  0.00    +0.000 A 
ATOM     26  C   UNL     1       5.281   3.611  14.621  0.00  0.00    +0.000 A 
ENDBRANCH  20  21
ENDBRANCH  19  20
ENDBRANCH  16  19
ENDBRANCH   1  15
BRANCH   1  27
ATOM     27  C   UNL     1       2.289   5.001  17.987  0.00  0.00    +0.000 C 
BRANCH  27  28
ATOM     28  C   UNL     1       1.860   3.643  18.537  0.00  0.00    +0.000 C 
BRANCH  28  30
ATOM     29  C   UNL     1       3.869   2.024  19.394  0.00  0.00    +0.000 C 
ATOM     30  S   UNL     1       2.776   2.199  17.948  0.00  0.00    +0.000 S 
ENDBRANCH  28  30
ENDBRANCH  27  28
ENDBRANCH   1  27
TORSDOF 9
ENDMDL
MODEL 3
REMARK VINA RESULT:      -7.1      3.923      6.381
REMARK  Name = 
REMARK  10 active torsions:
REMARK  status: ('A' for Active; 'I' for Inactive)
REMARK    1  A    between atoms: C_1  and  S_2
REMARK    2  A    between atoms: S_2  and  C_3
REMARK    3  A    between atoms: C_3  and  C_4
REMARK    4  A    between atoms: C_4  and  C_5
REMARK    5  A    between atoms: C_5  and  N_6
REMARK    6  A    between atoms: C_5  and  C_17
REMARK    7  A    between atoms: C_7  and  C_9
REMARK    8  A    between atoms: C_9  and  O_10
REMARK    9  A    between atoms: O_10  and  C_11
REMARK   10  A    between atoms: C_22  and  C_23
REMARK                            x       y       z     vdW  Elec       q    Type
REMARK                         _______ _______ _______ _____ _____    ______ ____
ROOT
ATOM      1  C   UNL     1      -0.081  10.375  19.402  0.00  0.00    +0.000 C 
ENDROOT
BRANCH   1   2
ATOM      2  C   UNL     1       0.532  11.378  20.430  0.00  0.00    +0.000 C 
ATOM      3  O   UNL     1       0.614  11.066  21.621  0.00  0.00    +0.000 OA
ATOM      4  N   UNL     1       1.104  12.562  19.958  0.00  0.00    +0.000 N 
ATOM      5  C   UNL     1       0.880  13.157  18.639  0.00  0.00    +0.000 C 
ATOM      6  C   UNL     1       2.185  13.621  17.997  0.00  0.00    +0.000 C 
ATOM      7  C   UNL     1       2.997  14.531  18.929  0.00  0.00    +0.000 C 
ATOM      8  C   UNL     1       3.178  13.843  20.288  0.00  0.00    +0.000 C 
ATOM      9  C   UNL     1       1.837  13.419  20.891  0.00  0.00    +0.000 C 
BRANCH   7  10
ATOM     10  C   UNL     1       2.357  15.913  19.046  0.00  0.00    +0.000 C 
ATOM     11  N   UNL     1       2.810  16.694  20.062  0.00  0.00    +0.000 N 
ATOM     12  O   UNL     1       1.511  16.346  18.271  0.00  0.00    +0.000 OA
ATOM     13  H   UNL     1       3.606  16.457  20.639  0.00  0.00    +0.000 HD
ATOM     14  H   UNL     1       2.442  17.635  20.117  0.00  0.00    +0.000 HD
ENDBRANCH   7  10
ENDBRANCH   1   2
BRANCH   1  15
ATOM     15  N   UNL     1       0.850  10.024  18.320  0.00  0.00    +0.000 N 
ATOM     16  C   UNL     1       1.760   8.996  18.286  0.00  0.00    +0.000 C 
ATOM     17  O   UNL     1       2.432   8.824  17.269  0.00  0.00    +0.000 OA
ATOM     18  H   UNL     1       0.821  10.581  17.470  0.00  0.00    +0.000 HD
BRANCH  16  19
ATOM     19  C   UNL     1       1.885   8.067  19.502  0.00  0.00    +0.000 C 
BRANCH  19  20
ATOM     20  O   UNL     1       2.806   7.011  19.293  0.00  0.00    +0.000 OA
BRANCH  20  21
ATOM     21  C   UNL     1       2.252   5.757  19.249  0.00  0.00    +0.000 A 
ATOM     22  C   UNL     1       1.810   5.259  20.477  0.00  0.00    +0.000 A 
ATOM     23  C   UNL     1       1.213   3.999  20.562  0.00  0.00    +0.000 A 
ATOM     24  C   UNL     1       1.040   3.237  19.409  0.00  0.00    +0.000 A 
ATOM     25  C   UNL     1       1.456   3.731  18.177  0.00  0.00    +0.000 A 
ATOM     26  C   UNL     1       2.058   4.992  18.097  0.00  0.00    +0.000 A 
ENDBRANCH  20  21
ENDBRANCH  19  20
ENDBRANCH  16  19
ENDBRANCH   1  15
BRANCH   1  27
ATOM     27  C   UNL     1      -1.419  10.913  18.815  0.00  0.00    +0.000 C 
BRANCH  27  28
ATOM     28  C   UNL     1      -1.753  10.266  17.474  0.00  0.00    +0.000 C 
BRANCH  28  30
ATOM     29  C   UNL     1      -2.892  10.262  15.005  0.00  0.00    +0.000 C 
ATOM     30  S   UNL     1      -3.323  10.739  16.709  0.00  0.00    +0.000 S 
ENDBRANCH  28  30
ENDBRANCH  27  28
ENDBRANCH   1  27
TORSDOF 9
ENDMDL
MODEL 4
REMARK VINA RESULT:      -7.1      3.967      6.431
REMARK  Name = 
REMARK  10 active torsions:
REMARK  status: ('A' for Active; 'I' for Inactive)
REMARK    1  A    between atoms: C_1  and  S_2
REMARK    2  A    between atoms: S_2  and  C_3
REMARK    3  A    between atoms: C_3  and  C_4
REMARK    4  A    between atoms: C_4  and  C_5
REMARK    5  A    between atoms: C_5  and  N_6
REMARK    6  A    between atoms: C_5  and  C_17
REMARK    7  A    between atoms: C_7  and  C_9
REMARK    8  A    between atoms: C_9  and  O_10
REMARK    9  A    between atoms: O_10  and  C_11
REMARK   10  A    between atoms: C_22  and  C_23
REMARK                            x       y       z     vdW  Elec       q    Type
REMARK                         _______ _______ _______ _____ _____    ______ ____
ROOT
ATOM      1  C   UNL     1      -0.379  10.191  18.994  0.00  0.00    +0.000 C 
ENDROOT
BRANCH   1   2
ATOM      2  C   UNL     1       0.024  11.146  20.162  0.00  0.00    +0.000 C 
ATOM      3  O   UNL     1      -0.151  10.796  21.332  0.00  0.00    +0.000 OA
ATOM      4  N   UNL     1       0.704  12.328  19.862  0.00  0.00    +0.000 N 
ATOM      5  C   UNL     1       0.772  12.969  18.547  0.00  0.00    +0.000 C 
ATOM      6  C   UNL     1       2.191  13.419  18.208  0.00  0.00    +0.000 C 
ATOM      7  C   UNL     1       2.807  14.279  19.319  0.00  0.00    +0.000 C 
ATOM      8  C   UNL     1       2.687  13.546  20.661  0.00  0.00    +0.000 C 
ATOM      9  C   UNL     1       1.241  13.138  20.956  0.00  0.00    +0.000 C 
BRANCH   7  10
ATOM     10  C   UNL     1       2.182  15.673  19.349  0.00  0.00    +0.000 C 
ATOM     11  N   UNL     1       1.856  16.204  18.141  0.00  0.00    +0.000 N 
ATOM     12  O   UNL     1       1.939  16.294  20.377  0.00  0.00    +0.000 OA
ATOM     13  H   UNL     1       1.891  15.686  17.273  0.00  0.00    +0.000 HD
ATOM     14  H   UNL     1       1.385  17.099  18.144  0.00  0.00    +0.000 HD
ENDBRANCH   7  10
ENDBRANCH   1   2
BRANCH   1  15
ATOM     15  N   UNL     1       0.721   9.947  18.049  0.00  0.00    +0.000 N 
ATOM     16  C   UNL     1       1.747   9.040  18.160  0.00  0.00    +0.000 C 
ATOM     17  O   UNL     1       2.561   8.942  17.241  0.00  0.00    +0.000 OA
ATOM     18  H   UNL     1       0.734  10.486  17.188  0.00  0.00    +0.000 HD
BRANCH  16  19
ATOM     19  C   UNL     1       1.826   8.148  19.407  0.00  0.00    +0.000 C 
BRANCH  19  20
ATOM     20  O   UNL     1       2.733   7.070  19.253  0.00  0.00    +0.000 OA
BRANCH  20  21
ATOM     21  C   UNL     1       2.174   5.821  19.347  0.00  0.00    +0.000 A 
ATOM     22  C   UNL     1       2.140   5.094  18.155  0.00  0.00    +0.000 A 
ATOM     23  C   UNL     1       1.609   3.802  18.122  0.00  0.00    +0.000 A 
ATOM     24  C   UNL     1       1.124   3.225  19.294  0.00  0.00    +0.000 A 
ATOM     25  C   UNL     1       1.174   3.931  20.492  0.00  0.00    +0.000 A 
ATOM     26  C   UNL     1       1.701   5.226  20.519  0.00  0.00    +0.000 A 
ENDBRANCH  20  21
ENDBRANCH  19  20
ENDBRANCH  16  19
ENDBRANCH   1  15
BRANCH   1  27
ATOM     27  C   UNL     1      -1.636  10.716  18.242  0.00  0.00    +0.000 C 
BRANCH  27  28
ATOM     28  C   UNL     1      -1.940   9.889  16.995  0.00  0.00    +0.000 C 
BRANCH  28  30
ATOM     29  C   UNL     1      -4.117  11.509  16.826  0.00  0.00    +0.000 C 
ATOM     30  S   UNL     1      -2.936  10.685  15.711  0.00  0.00    +0.000 S 
ENDBRANCH  28  30
ENDBRANCH  27  28
ENDBRANCH   1  27
TORSDOF 9
ENDMDL
MODEL 5
REMARK VINA RESULT:      -7.1      0.761      1.263
REMARK  Name = 
REMARK  10 active torsions:
REMARK  status: ('A' for Active; 'I' for Inactive)
REMARK    1  A    between atoms: C_1  and  S_2
REMARK    2  A    between atoms: S_2  and  C_3
REMARK    3  A    between atoms: C_3  and  C_4
REMARK    4  A    between atoms: C_4  and  C_5
REMARK    5  A    between atoms: C_5  and  N_6
REMARK    6  A    between atoms: C_5  and  C_17
REMARK    7  A    between atoms: C_7  and  C_9
REMARK    8  A    between atoms: C_9  and  O_10
REMARK    9  A    between atoms: O_10  and  C_11
REMARK   10  A    between atoms: C_22  and  C_23
REMARK                            x       y       z     vdW  Elec       q    Type
REMARK                         _______ _______ _______ _____ _____    ______ ____
ROOT
ATOM      1  C   UNL     1       2.747   6.280  19.091  0.00  0.00    +0.000 C 
ENDROOT
BRANCH   1   2
ATOM      2  C   UNL     1       2.446   7.762  18.698  0.00  0.00    +0.000 C 
ATOM      3  O   UNL     1       2.806   8.193  17.599  0.00  0.00    +0.000 OA
ATOM      4  N   UNL     1       1.652   8.536  19.547  0.00  0.00    +0.000 N 
ATOM      5  C   UNL     1       1.357   8.243  20.951  0.00  0.00    +0.000 C 
ATOM      6  C   UNL     1      -0.123   8.437  21.273  0.00  0.00    +0.000 C 
ATOM      7  C   UNL     1      -0.635   9.815  20.834  0.00  0.00    +0.000 C 
ATOM      8  C   UNL     1      -0.279  10.050  19.360  0.00  0.00    +0.000 C 
ATOM      9  C   UNL     1       1.218   9.862  19.103  0.00  0.00    +0.000 C 
BRANCH   7  10
ATOM     10  C   UNL     1      -0.109  10.917  21.752  0.00  0.00    +0.000 C 
ATOM     11  N   UNL     1      -0.705  11.011  22.971  0.00  0.00    +0.000 N 
ATOM     12  O   UNL     1       0.815  11.669  21.463  0.00  0.00    +0.000 OA
ATOM     13  H   UNL     1      -1.364  10.331  23.326  0.00  0.00    +0.000 HD
ATOM     14  H   UNL     1      -0.328  11.694  23.615  0.00  0.00    +0.000 HD
ENDBRANCH   7  10
ENDBRANCH   1   2
BRANCH   1  15
ATOM     15  N   UNL     1       2.133   5.310  18.173  0.00  0.00    +0.000 N 
ATOM     16  C   UNL     1       2.732   4.247  17.541  0.00  0.00    +0.000 C 
ATOM     17  O   UNL     1       2.046   3.506  16.836  0.00  0.00    +0.000 OA
ATOM     18  H   UNL     1       1.138   5.398  17.985  0.00  0.00    +0.000 HD
BRANCH  16  19
ATOM     19  C   UNL     1       4.230   3.992  17.762  0.00  0.00    +0.000 C 
BRANCH  19  20
ATOM     20  O   UNL     1       5.047   4.701  16.847  0.00  0.00    +0.000 OA
BRANCH  20  21
ATOM     21  C   UNL     1       6.069   5.418  17.416  0.00  0.00    +0.000 A 
ATOM     22  C   UNL     1       6.218   6.722  16.937  0.00  0.00    +0.000 A 
ATOM     23  C   UNL     1       7.212   7.560  17.447  0.00  0.00    +0.000 A 
ATOM     24  C   UNL     1       8.054   7.097  18.457  0.00  0.00    +0.000 A 
ATOM     25  C   UNL     1       7.901   5.809  18.957  0.00  0.00    +0.000 A 
ATOM     26  C   UNL     1       6.907   4.972  18.439  0.00  0.00    +0.000 A 
ENDBRANCH  20  21
ENDBRANCH  19  20
ENDBRANCH  16  19
ENDBRANCH   1  15
BRANCH   1  27
ATOM     27  C   UNL     1       2.319   5.987  20.558  0.00  0.00    +0.000 C 
BRANCH  27  28
ATOM     28  C   UNL     1       1.406   4.767  20.652  0.00  0.00    +0.000 C 
BRANCH  28  30
ATOM     29  C   UNL     1       1.752   2.117  20.153  0.00  0.00    +0.000 C 
ATOM     30  S   UNL     1       2.075   3.310  21.491  0.00  0.00    +0.000 S 
ENDBRANCH  28  30
ENDBRANCH  27  28
ENDBRANCH   1  27
TORSDOF 9
ENDMDL
MODEL 6
REMARK VINA RESULT:      -7.1      1.078      1.238
REMARK  Name = 
REMARK  10 active torsions:
REMARK  status: ('A' for Active; 'I' for Inactive)
REMARK    1  A    between atoms: C_1  and  S_2
REMARK    2  A    between atoms: S_2  and  C_3
REMARK    3  A    between atoms: C_3  and  C_4
REMARK    4  A    between atoms: C_4  and  C_5
REMARK    5  A    between atoms: C_5  and  N_6
REMARK    6  A    between atoms: C_5  and  C_17
REMARK    7  A    between atoms: C_7  and  C_9
REMARK    8  A    between atoms: C_9  and  O_10
REMARK    9  A    between atoms: O_10  and  C_11
REMARK   10  A    between atoms: C_22  and  C_23
REMARK                            x       y       z     vdW  Elec       q    Type
REMARK                         _______ _______ _______ _____ _____    ______ ____
ROOT
ATOM      1  C   UNL     1       2.574   6.089  19.024  0.00  0.00    +0.000 C 
ENDROOT
BRANCH   1   2
ATOM      2  C   UNL     1       2.494   7.524  18.412  0.00  0.00    +0.000 C 
ATOM      3  O   UNL     1       2.954   7.740  17.288  0.00  0.00    +0.000 OA
ATOM      4  N   UNL     1       1.776   8.508  19.095  0.00  0.00    +0.000 N 
ATOM      5  C   UNL     1       1.386   8.463  20.506  0.00  0.00    +0.000 C 
ATOM      6  C   UNL     1      -0.066   8.889  20.707  0.00  0.00    +0.000 C 
ATOM      7  C   UNL     1      -0.369  10.242  20.051  0.00  0.00    +0.000 C 
ATOM      8  C   UNL     1       0.077  10.212  18.583  0.00  0.00    +0.000 C 
ATOM      9  C   UNL     1       1.544   9.799  18.445  0.00  0.00    +0.000 C 
BRANCH   7  10
ATOM     10  C   UNL     1       0.262  11.390  20.837  0.00  0.00    +0.000 C 
ATOM     11  N   UNL     1       0.411  12.561  20.163  0.00  0.00    +0.000 N 
ATOM     12  O   UNL     1       0.594  11.315  22.015  0.00  0.00    +0.000 OA
ATOM     13  H   UNL     1       0.023  12.733  19.245  0.00  0.00    +0.000 HD
ATOM     14  H   UNL     1       0.770  13.350  20.686  0.00  0.00    +0.000 HD
ENDBRANCH   7  10
ENDBRANCH   1   2
BRANCH   1  15
ATOM     15  N   UNL     1       2.122   5.043  18.095  0.00  0.00    +0.000 N 
ATOM     16  C   UNL     1       2.863   4.034  17.531  0.00  0.00    +0.000 C 
ATOM     17  O   UNL     1       2.302   3.214  16.803  0.00  0.00    +0.000 OA
ATOM     18  H   UNL     1       1.138   5.028  17.841  0.00  0.00    +0.000 HD
BRANCH  16  19
ATOM     19  C   UNL     1       4.361   3.934  17.853  0.00  0.00    +0.000 C 
BRANCH  19  20
ATOM     20  O   UNL     1       5.174   4.568  16.882  0.00  0.00    +0.000 OA
BRANCH  20  21
ATOM     21  C   UNL     1       6.097   5.451  17.382  0.00  0.00    +0.000 A 
ATOM     22  C   UNL     1       6.853   4.975  18.457  0.00  0.00    +0.000 A 
ATOM     23  C   UNL     1       7.837   5.772  19.046  0.00  0.00    +0.000 A 
ATOM     24  C   UNL     1       8.081   7.049  18.546  0.00  0.00    +0.000 A 
ATOM     25  C   UNL     1       7.352   7.526  17.462  0.00  0.00    +0.000 A 
ATOM     26  C   UNL     1       6.363   6.726  16.879  0.00  0.00    +0.000 A 
ENDBRANCH  20  21
ENDBRANCH  19  20
ENDBRANCH  16  19
ENDBRANCH   1  15
BRANCH   1  27
ATOM     27  C   UNL     1       1.789   6.001  20.365  0.00  0.00    +0.000 C 
BRANCH  27  28
ATOM     28  C   UNL     1       2.340   4.908  21.277  0.00  0.00    +0.000 C 
BRANCH  28  30
ATOM     29  C   UNL     1       3.130   2.328  20.935  0.00  0.00    +0.000 C 
ATOM     30  S   UNL     1       1.584   3.270  21.135  0.00  0.00    +0.000 S 
ENDBRANCH  28  30
ENDBRANCH  27  28
ENDBRANCH   1  27
TORSDOF 9
ENDMDL
MODEL 7
REMARK VINA RESULT:      -7.0      1.963      2.655
REMARK  Name = 
REMARK  10 active torsions:
REMARK  status: ('A' for Active; 'I' for Inactive)
REMARK    1  A    between atoms: C_1  and  S_2
REMARK    2  A    between atoms: S_2  and  C_3
REMARK    3  A    between atoms: C_3  and  C_4
REMARK    4  A    between atoms: C_4  and  C_5
REMARK    5  A    between atoms: C_5  and  N_6
REMARK    6  A    between atoms: C_5  and  C_17
REMARK    7  A    between atoms: C_7  and  C_9
REMARK    8  A    between atoms: C_9  and  O_10
REMARK    9  A    between atoms: O_10  and  C_11
REMARK   10  A    between atoms: C_22  and  C_23
REMARK                            x       y       z     vdW  Elec       q    Type
REMARK                         _______ _______ _______ _____ _____    ______ ____
ROOT
ATOM      1  C   UNL     1       2.671   5.896  19.213  0.00  0.00    +0.000 C 
ENDROOT
BRANCH   1   2
ATOM      2  C   UNL     1       2.508   7.386  18.774  0.00  0.00    +0.000 C 
ATOM      3  O   UNL     1       2.937   7.756  17.677  0.00  0.00    +0.000 OA
ATOM      4  N   UNL     1       1.754   8.246  19.576  0.00  0.00    +0.000 N 
ATOM      5  C   UNL     1       1.393   8.017  20.977  0.00  0.00    +0.000 C 
ATOM      6  C   UNL     1      -0.075   8.341  21.244  0.00  0.00    +0.000 C 
ATOM      7  C   UNL     1      -0.457   9.744  20.754  0.00  0.00    +0.000 C 
ATOM      8  C   UNL     1      -0.037   9.908  19.288  0.00  0.00    +0.000 C 
ATOM      9  C   UNL     1       1.447   9.590  19.085  0.00  0.00    +0.000 C 
BRANCH   7  10
ATOM     10  C   UNL     1       0.130  10.824  21.662  0.00  0.00    +0.000 C 
ATOM     11  N   UNL     1      -0.585  11.114  22.781  0.00  0.00    +0.000 N 
ATOM     12  O   UNL     1       1.196  11.393  21.452  0.00  0.00    +0.000 OA
ATOM     13  H   UNL     1      -1.387  10.580  23.087  0.00  0.00    +0.000 HD
ATOM     14  H   UNL     1      -0.181  11.782  23.425  0.00  0.00    +0.000 HD
ENDBRANCH   7  10
ENDBRANCH   1   2
BRANCH   1  15
ATOM     15  N   UNL     1       3.994   5.610  19.787  0.00  0.00    +0.000 N 
ATOM     16  C   UNL     1       5.196   5.501  19.131  0.00  0.00    +0.000 C 
ATOM     17  O   UNL     1       6.219   5.300  19.786  0.00  0.00    +0.000 OA
ATOM     18  H   UNL     1       4.060   5.500  20.795  0.00  0.00    +0.000 HD
BRANCH  16  19
ATOM     19  C   UNL     1       5.235   5.671  17.606  0.00  0.00    +0.000 C 
BRANCH  19  20
ATOM     20  O   UNL     1       6.447   5.210  17.034  0.00  0.00    +0.000 OA
BRANCH  20  21
ATOM     21  C   UNL     1       6.363   4.839  15.716  0.00  0.00    +0.000 A 
ATOM     22  C   UNL     1       7.457   5.201  14.926  0.00  0.00    +0.000 A 
ATOM     23  C   UNL     1       7.500   4.867  13.570  0.00  0.00    +0.000 A 
ATOM     24  C   UNL     1       6.450   4.149  13.003  0.00  0.00    +0.000 A 
ATOM     25  C   UNL     1       5.366   3.763  13.784  0.00  0.00    +0.000 A 
ATOM     26  C   UNL     1       5.324   4.105  15.140  0.00  0.00    +0.000 A 
ENDBRANCH  20  21
ENDBRANCH  19  20
ENDBRANCH  16  19
ENDBRANCH   1  15
BRANCH   1  27
ATOM     27  C   UNL     1       2.368   4.923  18.037  0.00  0.00    +0.000 C 
BRANCH  27  28
ATOM     28  C   UNL     1       2.432   3.463  18.475  0.00  0.00    +0.000 C 
BRANCH  28  30
ATOM     29  C   UNL     1       1.292   2.881  20.875  0.00  0.00    +0.000 C 
ATOM     30  S   UNL     1       0.900   2.732  19.102  0.00  0.00    +0.000 S 
ENDBRANCH  28  30
ENDBRANCH  27  28
ENDBRANCH   1  27
TORSDOF 9
ENDMDL
MODEL 8
REMARK VINA RESULT:      -7.0      3.912      6.039
REMARK  Name = 
REMARK  10 active torsions:
REMARK  status: ('A' for Active; 'I' for Inactive)
REMARK    1  A    between atoms: C_1  and  S_2
REMARK    2  A    between atoms: S_2  and  C_3
REMARK    3  A    between atoms: C_3  and  C_4
REMARK    4  A    between atoms: C_4  and  C_5
REMARK    5  A    between atoms: C_5  and  N_6
REMARK    6  A    between atoms: C_5  and  C_17
REMARK    7  A    between atoms: C_7  and  C_9
REMARK    8  A    between atoms: C_9  and  O_10
REMARK    9  A    between atoms: O_10  and  C_11
REMARK   10  A    between atoms: C_22  and  C_23
REMARK                            x       y       z     vdW  Elec       q    Type
REMARK                         _______ _______ _______ _____ _____    ______ ____
ROOT
ATOM      1  C   UNL     1       0.211  10.571  18.699  0.00  0.00    +0.000 C 
ENDROOT
BRANCH   1   2
ATOM      2  C   UNL     1       0.785  11.723  19.584  0.00  0.00    +0.000 C 
ATOM      3  O   UNL     1       1.913  12.170  19.357  0.00  0.00    +0.000 OA
ATOM      4  N   UNL     1      -0.046  12.323  20.533  0.00  0.00    +0.000 N 
ATOM      5  C   UNL     1      -1.292  11.761  21.059  0.00  0.00    +0.000 C 
ATOM      6  C   UNL     1      -2.407  12.803  21.110  0.00  0.00    +0.000 C 
ATOM      7  C   UNL     1      -1.974  14.079  21.844  0.00  0.00    +0.000 C 
ATOM      8  C   UNL     1      -0.661  14.596  21.243  0.00  0.00    +0.000 C 
ATOM      9  C   UNL     1       0.424  13.516  21.238  0.00  0.00    +0.000 C 
BRANCH   7  10
ATOM     10  C   UNL     1      -1.883  13.845  23.351  0.00  0.00    +0.000 C 
ATOM     11  N   UNL     1      -2.888  13.112  23.900  0.00  0.00    +0.000 N 
ATOM     12  O   UNL     1      -0.961  14.242  24.053  0.00  0.00    +0.000 OA
ATOM     13  H   UNL     1      -3.592  12.630  23.357  0.00  0.00    +0.000 HD
ATOM     14  H   UNL     1      -2.812  12.894  24.885  0.00  0.00    +0.000 HD
ENDBRANCH   7  10
ENDBRANCH   1   2
BRANCH   1  15
ATOM     15  N   UNL     1       1.221   9.967  17.819  0.00  0.00    +0.000 N 
ATOM     16  C   UNL     1       1.973   8.839  18.043  0.00  0.00    +0.000 C 
ATOM     17  O   UNL     1       2.746   8.451  17.167  0.00  0.00    +0.000 OA
ATOM     18  H   UNL     1       1.386  10.403  16.916  0.00  0.00    +0.000 HD
BRANCH  16  19
ATOM     19  C   UNL     1       1.801   8.074  19.364  0.00  0.00    +0.000 C 
BRANCH  19  20
ATOM     20  O   UNL     1       2.714   6.999  19.497  0.00  0.00    +0.000 OA
BRANCH  20  21
ATOM     21  C   UNL     1       2.148   5.750  19.482  0.00  0.00    +0.000 A 
ATOM     22  C   UNL     1       2.088   5.140  18.227  0.00  0.00    +0.000 A 
ATOM     23  C   UNL     1       1.547   3.860  18.081  0.00  0.00    +0.000 A 
ATOM     24  C   UNL     1       1.079   3.177  19.201  0.00  0.00    +0.000 A 
ATOM     25  C   UNL     1       1.155   3.764  20.460  0.00  0.00    +0.000 A 
ATOM     26  C   UNL     1       1.692   5.048  20.600  0.00  0.00    +0.000 A 
ENDBRANCH  20  21
ENDBRANCH  19  20
ENDBRANCH  16  19
ENDBRANCH   1  15
BRANCH   1  27
ATOM     27  C   UNL     1      -1.015  11.053  17.869  0.00  0.00    +0.000 C 
BRANCH  27  28
ATOM     28  C   UNL     1      -2.155  10.038  17.897  0.00  0.00    +0.000 C 
BRANCH  28  30
ATOM     29  C   UNL     1      -3.613  10.897  15.769  0.00  0.00    +0.000 C 
ATOM     30  S   UNL     1      -3.818  10.670  17.564  0.00  0.00    +0.000 S 
ENDBRANCH  28  30
ENDBRANCH  27  28
ENDBRANCH   1  27
TORSDOF 9
ENDMDL
MODEL 9
REMARK VINA RESULT:      -7.0      2.510      7.601
REMARK  Name = 
REMARK  10 active torsions:
REMARK  status: ('A' for Active; 'I' for Inactive)
REMARK    1  A    between atoms: C_1  and  S_2
REMARK    2  A    between atoms: S_2  and  C_3
REMARK    3  A    between atoms: C_3  and  C_4
REMARK    4  A    between atoms: C_4  and  C_5
REMARK    5  A    between atoms: C_5  and  N_6
REMARK    6  A    between atoms: C_5  and  C_17
REMARK    7  A    between atoms: C_7  and  C_9
REMARK    8  A    between atoms: C_9  and  O_10
REMARK    9  A    between atoms: O_10  and  C_11
REMARK   10  A    between atoms: C_22  and  C_23
REMARK                            x       y       z     vdW  Elec       q    Type
REMARK                         _______ _______ _______ _____ _____    ______ ____
ROOT
ATOM      1  C   UNL     1       2.638   6.028  19.140  0.00  0.00    +0.000 C 
ENDROOT
BRANCH   1   2
ATOM      2  C   UNL     1       4.069   5.404  19.201  0.00  0.00    +0.000 C 
ATOM      3  O   UNL     1       4.443   4.818  20.220  0.00  0.00    +0.000 OA
ATOM      4  N   UNL     1       4.853   5.402  18.044  0.00  0.00    +0.000 N 
ATOM      5  C   UNL     1       4.641   6.241  16.863  0.00  0.00    +0.000 C 
ATOM      6  C   UNL     1       4.770   5.441  15.569  0.00  0.00    +0.000 C 
ATOM      7  C   UNL     1       6.082   4.648  15.506  0.00  0.00    +0.000 C 
ATOM      8  C   UNL     1       6.234   3.807  16.780  0.00  0.00    +0.000 C 
ATOM      9  C   UNL     1       6.117   4.664  18.042  0.00  0.00    +0.000 C 
BRANCH   7  10
ATOM     10  C   UNL     1       7.274   5.572  15.262  0.00  0.00    +0.000 C 
ATOM     11  N   UNL     1       7.872   5.462  14.046  0.00  0.00    +0.000 N 
ATOM     12  O   UNL     1       7.676   6.402  16.070  0.00  0.00    +0.000 OA
ATOM     13  H   UNL     1       7.499   4.910  13.285  0.00  0.00    +0.000 HD
ATOM     14  H   UNL     1       8.623   6.109  13.843  0.00  0.00    +0.000 HD
ENDBRANCH   7  10
ENDBRANCH   1   2
BRANCH   1  15
ATOM     15  N   UNL     1       2.307   6.817  20.335  0.00  0.00    +0.000 N 
ATOM     16  C   UNL     1       1.794   8.090  20.393  0.00  0.00    +0.000 C 
ATOM     17  O   UNL     1       1.534   8.582  21.491  0.00  0.00    +0.000 OA
ATOM     18  H   UNL     1       2.442   6.383  21.244  0.00  0.00    +0.000 HD
BRANCH  16  19
ATOM     19  C   UNL     1       1.523   8.848  19.085  0.00  0.00    +0.000 C 
BRANCH  19  20
ATOM     20  O   UNL     1       1.241  10.221  19.296  0.00  0.00    +0.000 OA
BRANCH  20  21
ATOM     21  C   UNL     1       0.097  10.679  18.695  0.00  0.00    +0.000 A 
ATOM     22  C   UNL     1      -0.541   9.762  17.855  0.00  0.00    +0.000 A 
ATOM     23  C   UNL     1      -1.724  10.102  17.195  0.00  0.00    +0.000 A 
ATOM     24  C   UNL     1      -2.286  11.362  17.391  0.00  0.00    +0.000 A 
ATOM     25  C   UNL     1      -1.673  12.275  18.242  0.00  0.00    +0.000 A 
ATOM     26  C   UNL     1      -0.485  11.932  18.896  0.00  0.00    +0.000 A 
ENDBRANCH  20  21
ENDBRANCH  19  20
ENDBRANCH  16  19
ENDBRANCH   1  15
BRANCH   1  27
ATOM     27  C   UNL     1       1.556   4.937  18.892  0.00  0.00    +0.000 C 
BRANCH  27  28
ATOM     28  C   UNL     1       1.926   4.023  17.727  0.00  0.00    +0.000 C 
BRANCH  28  30
ATOM     29  C   UNL     1       1.823   2.384  19.894  0.00  0.00    +0.000 C 
ATOM     30  S   UNL     1       2.143   2.266  18.105  0.00  0.00    +0.000 S 
ENDBRANCH  28  30
ENDBRANCH  27  28
ENDBRANCH   1  27
TORSDOF 9
ENDMDL
