MODEL 1
REMARK VINA RESULT:      -6.7      0.000      0.000
REMARK  Name = 
REMARK  7 active torsions:
REMARK  status: ('A' for Active; 'I' for Inactive)
REMARK    1  A    between atoms: C_1  and  N_2
REMARK    2  A    between atoms: N_2  and  C_3
REMARK    3  A    between atoms: C_3  and  C_4
REMARK    4  A    between atoms: C_10  and  C_12
REMARK    5  A    between atoms: C_12  and  N_13
REMARK    6  A    between atoms: C_17  and  C_18
REMARK    7  A    between atoms: C_18  and  O_20
REMARK                            x       y       z     vdW  Elec       q    Type
REMARK                         _______ _______ _______ _____ _____    ______ ____
ROOT
ATOM      1  C   UNL     1       2.682   2.552  21.577  0.00  0.00    +0.000 C 
ATOM      2  N   UNL     1       2.841   3.042  20.219  0.00  0.00    +0.000 N 
ATOM      3  C   UNL     1       4.046   2.762  19.582  0.00  0.00    +0.000 C 
ATOM      4  O   UNL     1       4.946   2.138  20.155  0.00  0.00    +0.000 OA
ENDROOT
BRANCH   2   5
ATOM      5  C   UNL     1       1.686   3.676  19.587  0.00  0.00    +0.000 C 
BRANCH   5   6
ATOM      6  C   UNL     1       1.841   5.164  19.519  0.00  0.00    +0.000 A 
ATOM      7  C   UNL     1       1.879   6.100  20.535  0.00  0.00    +0.000 A 
ATOM      8  C   UNL     1       2.039   7.430  20.044  0.00  0.00    +0.000 A 
ATOM      9  C   UNL     1       2.126   7.449  18.677  0.00  0.00    +0.000 A 
ATOM     10 CL   UNL     1       2.312   8.832  17.680  0.00  0.00    +0.000 Cl
ATOM     11  S   UNL     1       2.036   5.913  17.979  0.00  0.00    +0.000 S 
ENDBRANCH   5   6
ENDBRANCH   2   5
BRANCH   3  12
ATOM     12  C   UNL     1       4.260   3.234  18.136  0.00  0.00    +0.000 C 
BRANCH  12  13
ATOM     13  N   UNL     1       5.521   4.018  17.964  0.00  0.00    +0.000 NA
ATOM     14  C   UNL     1       5.965   3.947  16.553  0.00  0.00    +0.000 C 
ATOM     15  C   UNL     1       7.235   4.771  16.333  0.00  0.00    +0.000 C 
ATOM     16  C   UNL     1       7.054   6.217  16.785  0.00  0.00    +0.000 C 
ATOM     17  C   UNL     1       6.490   6.304  18.203  0.00  0.00    +0.000 C 
ATOM     18  C   UNL     1       5.249   5.423  18.360  0.00  0.00    +0.000 C 
BRANCH  17  19
ATOM     19  C   UNL     1       7.563   6.001  19.237  0.00  0.00    +0.000 C 
ATOM     20  O   UNL     1       7.444   5.140  20.098  0.00  0.00    +0.000 OA
BRANCH  19  21
ATOM     21  O   UNL     1       8.642   6.811  19.179  0.00  0.00    +0.000 OA
ATOM     22  H   UNL     1       9.275   6.487  18.497  0.00  0.00    +0.000 HD
ENDBRANCH  19  21
ENDBRANCH  17  19
ENDBRANCH  12  13
ENDBRANCH   3  12
TORSDOF 6
ENDMDL
MODEL 2
REMARK VINA RESULT:      -6.7      2.988      6.288
REMARK  Name = 
REMARK  7 active torsions:
REMARK  status: ('A' for Active; 'I' for Inactive)
REMARK    1  A    between atoms: C_1  and  N_2
REMARK    2  A    between atoms: N_2  and  C_3
REMARK    3  A    between atoms: C_3  and  C_4
REMARK    4  A    between atoms: C_10  and  C_12
REMARK    5  A    between atoms: C_12  and  N_13
REMARK    6  A    between atoms: C_17  and  C_18
REMARK    7  A    between atoms: C_18  and  O_20
REMARK                            x       y       z     vdW  Elec       q    Type
REMARK                         _______ _______ _______ _____ _____    ______ ____
ROOT
ATOM      1  C   UNL     1       6.961   7.385  17.378  0.00  0.00    +0.000 C 
ATOM      2  N   UNL     1       6.096   6.220  17.313  0.00  0.00    +0.000 N 
ATOM      3  C   UNL     1       4.729   6.439  17.447  0.00  0.00    +0.000 C 
ATOM      4  O   UNL     1       4.274   7.574  17.628  0.00  0.00    +0.000 OA
ENDROOT
BRANCH   2   5
ATOM      5  C   UNL     1       6.712   4.935  16.990  0.00  0.00    +0.000 C 
BRANCH   5   6
ATOM      6  C   UNL     1       6.734   4.689  15.513  0.00  0.00    +0.000 A 
ATOM      7  C   UNL     1       7.539   5.239  14.533  0.00  0.00    +0.000 A 
ATOM      8  C   UNL     1       7.235   4.735  13.233  0.00  0.00    +0.000 A 
ATOM      9  C   UNL     1       6.220   3.817  13.280  0.00  0.00    +0.000 A 
ATOM     10 CL   UNL     1       5.535   2.975  11.951  0.00  0.00    +0.000 Cl
ATOM     11  S   UNL     1       5.640   3.538  14.842  0.00  0.00    +0.000 S 
ENDBRANCH   5   6
ENDBRANCH   2   5
BRANCH   3  12
ATOM     12  C   UNL     1       3.764   5.247  17.362  0.00  0.00    +0.000 C 
BRANCH  12  13
ATOM     13  N   UNL     1       3.256   4.816  18.699  0.00  0.00    +0.000 NA
ATOM     14  C   UNL     1       2.314   5.830  19.226  0.00  0.00    +0.000 C 
ATOM     15  C   UNL     1       1.745   5.402  20.581  0.00  0.00    +0.000 C 
ATOM     16  C   UNL     1       1.094   4.024  20.509  0.00  0.00    +0.000 C 
ATOM     17  C   UNL     1       2.019   2.991  19.865  0.00  0.00    +0.000 C 
ATOM     18  C   UNL     1       2.581   3.504  18.538  0.00  0.00    +0.000 C 
BRANCH  17  19
ATOM     19  C   UNL     1       3.103   2.549  20.835  0.00  0.00    +0.000 C 
ATOM     20  O   UNL     1       4.231   2.231  20.483  0.00  0.00    +0.000 OA
BRANCH  19  21
ATOM     21  O   UNL     1       2.703   2.463  22.122  0.00  0.00    +0.000 OA
ATOM     22  H   UNL     1       1.741   2.663  22.193  0.00  0.00    +0.000 HD
ENDBRANCH  19  21
ENDBRANCH  17  19
ENDBRANCH  12  13
ENDBRANCH   3  12
TORSDOF 6
ENDMDL
MODEL 3
REMARK VINA RESULT:      -6.6      3.096      6.007
REMARK  Name = 
REMARK  7 active torsions:
REMARK  status: ('A' for Active; 'I' for Inactive)
REMARK    1  A    between atoms: C_1  and  N_2
REMARK    2  A    between atoms: N_2  and  C_3
REMARK    3  A    between atoms: C_3  and  C_4
REMARK    4  A    between atoms: C_10  and  C_12
REMARK    5  A    between atoms: C_12  and  N_13
REMARK    6  A    between atoms: C_17  and  C_18
REMARK    7  A    between atoms: C_18  and  O_20
REMARK                            x       y       z     vdW  Elec       q    Type
REMARK                         _______ _______ _______ _____ _____    ______ ____
ROOT
ATOM      1  C   UNL     1       6.642   7.321  17.430  0.00  0.00    +0.000 C 
ATOM      2  N   UNL     1       5.677   6.235  17.435  0.00  0.00    +0.000 N 
ATOM      3  C   UNL     1       4.335   6.581  17.562  0.00  0.00    +0.000 C 
ATOM      4  O   UNL     1       3.984   7.760  17.681  0.00  0.00    +0.000 OA
ENDROOT
BRANCH   2   5
ATOM      5  C   UNL     1       6.175   4.885  17.183  0.00  0.00    +0.000 C 
BRANCH   5   6
ATOM      6  C   UNL     1       6.098   4.530  15.730  0.00  0.00    +0.000 A 
ATOM      7  C   UNL     1       5.117   3.851  15.032  0.00  0.00    +0.000 A 
ATOM      8  C   UNL     1       5.429   3.717  13.646  0.00  0.00    +0.000 A 
ATOM      9  C   UNL     1       6.627   4.307  13.346  0.00  0.00    +0.000 A 
ATOM     10 CL   UNL     1       7.384   4.369  11.808  0.00  0.00    +0.000 Cl
ATOM     11  S   UNL     1       7.372   5.027  14.680  0.00  0.00    +0.000 S 
ENDBRANCH   5   6
ENDBRANCH   2   5
BRANCH   3  12
ATOM     12  C   UNL     1       3.268   5.476  17.549  0.00  0.00    +0.000 C 
BRANCH  12  13
ATOM     13  N   UNL     1       3.200   4.723  18.837  0.00  0.00    +0.000 NA
ATOM     14  C   UNL     1       2.210   5.360  19.737  0.00  0.00    +0.000 C 
ATOM     15  C   UNL     1       2.087   4.591  21.054  0.00  0.00    +0.000 C 
ATOM     16  C   UNL     1       1.756   3.120  20.819  0.00  0.00    +0.000 C 
ATOM     17  C   UNL     1       2.704   2.478  19.806  0.00  0.00    +0.000 C 
ATOM     18  C   UNL     1       2.809   3.323  18.535  0.00  0.00    +0.000 C 
BRANCH  17  19
ATOM     19  C   UNL     1       4.058   2.186  20.435  0.00  0.00    +0.000 C 
ATOM     20  O   UNL     1       4.193   1.783  21.582  0.00  0.00    +0.000 OA
BRANCH  19  21
ATOM     21  O   UNL     1       5.116   2.476  19.647  0.00  0.00    +0.000 OA
ATOM     22  H   UNL     1       4.890   2.317  18.701  0.00  0.00    +0.000 HD
ENDBRANCH  19  21
ENDBRANCH  17  19
ENDBRANCH  12  13
ENDBRANCH   3  12
TORSDOF 6
ENDMDL
MODEL 4
REMARK VINA RESULT:      -6.6      3.011      6.310
REMARK  Name = 
REMARK  7 active torsions:
REMARK  status: ('A' for Active; 'I' for Inactive)
REMARK    1  A    between atoms: C_1  and  N_2
REMARK    2  A    between atoms: N_2  and  C_3
REMARK    3  A    between atoms: C_3  and  C_4
REMARK    4  A    between atoms: C_10  and  C_12
REMARK    5  A    between atoms: C_12  and  N_13
REMARK    6  A    between atoms: C_17  and  C_18
REMARK    7  A    between atoms: C_18  and  O_20
REMARK                            x       y       z     vdW  Elec       q    Type
REMARK                         _______ _______ _______ _____ _____    ______ ____
ROOT
ATOM      1  C   UNL     1       7.705   4.652  17.346  0.00  0.00    +0.000 C 
ATOM      2  N   UNL     1       6.374   5.193  17.561  0.00  0.00    +0.000 N 
ATOM      3  C   UNL     1       5.894   5.191  18.867  0.00  0.00    +0.000 C 
ATOM      4  O   UNL     1       6.567   4.734  19.798  0.00  0.00    +0.000 OA
ENDROOT
BRANCH   2   5
ATOM      5  C   UNL     1       5.699   5.807  16.420  0.00  0.00    +0.000 C 
BRANCH   5   6
ATOM      6  C   UNL     1       6.116   5.176  15.127  0.00  0.00    +0.000 A 
ATOM      7  C   UNL     1       7.220   5.426  14.333  0.00  0.00    +0.000 A 
ATOM      8  C   UNL     1       7.250   4.602  13.168  0.00  0.00    +0.000 A 
ATOM      9  C   UNL     1       6.173   3.756  13.130  0.00  0.00    +0.000 A 
ATOM     10 CL   UNL     1       5.813   2.610  11.905  0.00  0.00    +0.000 Cl
ATOM     11  S   UNL     1       5.146   3.917  14.461  0.00  0.00    +0.000 S 
ENDBRANCH   5   6
ENDBRANCH   2   5
BRANCH   3  12
ATOM     12  C   UNL     1       4.503   5.773  19.158  0.00  0.00    +0.000 C 
BRANCH  12  13
ATOM     13  N   UNL     1       3.469   4.718  19.382  0.00  0.00    +0.000 NA
ATOM     14  C   UNL     1       2.655   5.060  20.571  0.00  0.00    +0.000 C 
ATOM     15  C   UNL     1       1.560   4.017  20.807  0.00  0.00    +0.000 C 
ATOM     16  C   UNL     1       0.685   3.829  19.571  0.00  0.00    +0.000 C 
ATOM     17  C   UNL     1       1.520   3.585  18.314  0.00  0.00    +0.000 C 
ATOM     18  C   UNL     1       2.619   4.639  18.167  0.00  0.00    +0.000 C 
BRANCH  17  19
ATOM     19  C   UNL     1       2.058   2.163  18.284  0.00  0.00    +0.000 C 
ATOM     20  O   UNL     1       3.082   1.843  17.695  0.00  0.00    +0.000 OA
BRANCH  19  21
ATOM     21  O   UNL     1       1.275   1.254  18.904  0.00  0.00    +0.000 OA
ATOM     22  H   UNL     1       0.332   1.540  18.874  0.00  0.00    +0.000 HD
ENDBRANCH  19  21
ENDBRANCH  17  19
ENDBRANCH  12  13
ENDBRANCH   3  12
TORSDOF 6
ENDMDL
MODEL 5
REMARK VINA RESULT:      -6.6      3.224      5.976
REMARK  Name = 
REMARK  7 active torsions:
REMARK  status: ('A' for Active; 'I' for Inactive)
REMARK    1  A    between atoms: C_1  and  N_2
REMARK    2  A    between atoms: N_2  and  C_3
REMARK    3  A    between atoms: C_3  and  C_4
REMARK    4  A    between atoms: C_10  and  C_12
REMARK    5  A    between atoms: C_12  and  N_13
REMARK    6  A    between atoms: C_17  and  C_18
REMARK    7  A    between atoms: C_18  and  O_20
REMARK                            x       y       z     vdW  Elec       q    Type
REMARK                         _______ _______ _______ _____ _____    ______ ____
ROOT
ATOM      1  C   UNL     1       7.355   7.005  17.504  0.00  0.00    +0.000 C 
ATOM      2  N   UNL     1       6.396   5.943  17.254  0.00  0.00    +0.000 N 
ATOM      3  C   UNL     1       6.303   4.936  18.210  0.00  0.00    +0.000 C 
ATOM      4  O   UNL     1       7.018   4.940  19.218  0.00  0.00    +0.000 OA
ENDROOT
BRANCH   2   5
ATOM      5  C   UNL     1       5.521   6.079  16.091  0.00  0.00    +0.000 C 
BRANCH   5   6
ATOM      6  C   UNL     1       6.023   5.282  14.927  0.00  0.00    +0.000 A 
ATOM      7  C   UNL     1       7.253   5.310  14.296  0.00  0.00    +0.000 A 
ATOM      8  C   UNL     1       7.330   4.385  13.212  0.00  0.00    +0.000 A 
ATOM      9  C   UNL     1       6.160   3.688  13.069  0.00  0.00    +0.000 A 
ATOM     10 CL   UNL     1       5.817   2.490  11.890  0.00  0.00    +0.000 Cl
ATOM     11  S   UNL     1       4.988   4.105  14.211  0.00  0.00    +0.000 S 
ENDBRANCH   5   6
ENDBRANCH   2   5
BRANCH   3  12
ATOM     12  C   UNL     1       5.288   3.801  18.011  0.00  0.00    +0.000 C 
BRANCH  12  13
ATOM     13  N   UNL     1       3.899   4.191  18.399  0.00  0.00    +0.000 NA
ATOM     14  C   UNL     1       2.925   3.541  17.492  0.00  0.00    +0.000 C 
ATOM     15  C   UNL     1       1.488   3.890  17.885  0.00  0.00    +0.000 C 
ATOM     16  C   UNL     1       1.203   3.544  19.343  0.00  0.00    +0.000 C 
ATOM     17  C   UNL     1       2.264   4.118  20.282  0.00  0.00    +0.000 C 
ATOM     18  C   UNL     1       3.674   3.765  19.803  0.00  0.00    +0.000 C 
BRANCH  17  19
ATOM     19  C   UNL     1       2.066   5.612  20.483  0.00  0.00    +0.000 C 
ATOM     20  O   UNL     1       1.050   6.097  20.963  0.00  0.00    +0.000 OA
BRANCH  19  21
ATOM     21  O   UNL     1       3.077   6.379  20.021  0.00  0.00    +0.000 OA
ATOM     22  H   UNL     1       3.013   6.474  19.043  0.00  0.00    +0.000 HD
ENDBRANCH  19  21
ENDBRANCH  17  19
ENDBRANCH  12  13
ENDBRANCH   3  12
TORSDOF 6
ENDMDL
MODEL 6
REMARK VINA RESULT:      -6.6      2.678      6.083
REMARK  Name = 
REMARK  7 active torsions:
REMARK  status: ('A' for Active; 'I' for Inactive)
REMARK    1  A    between atoms: C_1  and  N_2
REMARK    2  A    between atoms: N_2  and  C_3
REMARK    3  A    between atoms: C_3  and  C_4
REMARK    4  A    between atoms: C_10  and  C_12
REMARK    5  A    between atoms: C_12  and  N_13
REMARK    6  A    between atoms: C_17  and  C_18
REMARK    7  A    between atoms: C_18  and  O_20
REMARK                            x       y       z     vdW  Elec       q    Type
REMARK                         _______ _______ _______ _____ _____    ______ ____
ROOT
ATOM      1  C   UNL     1       7.781   6.875  18.519  0.00  0.00    +0.000 C 
ATOM      2  N   UNL     1       6.618   6.135  18.058  0.00  0.00    +0.000 N 
ATOM      3  C   UNL     1       6.137   5.129  18.891  0.00  0.00    +0.000 C 
ATOM      4  O   UNL     1       6.687   4.867  19.966  0.00  0.00    +0.000 OA
ENDROOT
BRANCH   2   5
ATOM      5  C   UNL     1       5.973   6.585  16.827  0.00  0.00    +0.000 C 
BRANCH   5   6
ATOM      6  C   UNL     1       6.286   5.678  15.677  0.00  0.00    +0.000 A 
ATOM      7  C   UNL     1       7.508   5.259  15.185  0.00  0.00    +0.000 A 
ATOM      8  C   UNL     1       7.373   4.389  14.060  0.00  0.00    +0.000 A 
ATOM      9  C   UNL     1       6.055   4.178  13.752  0.00  0.00    +0.000 A 
ATOM     10 CL   UNL     1       5.444   3.212  12.472  0.00  0.00    +0.000 Cl
ATOM     11  S   UNL     1       4.987   4.981  14.785  0.00  0.00    +0.000 S 
ENDBRANCH   5   6
ENDBRANCH   2   5
BRANCH   3  12
ATOM     12  C   UNL     1       4.896   4.330  18.466  0.00  0.00    +0.000 C 
BRANCH  12  13
ATOM     13  N   UNL     1       3.840   4.297  19.523  0.00  0.00    +0.000 NA
ATOM     14  C   UNL     1       3.154   5.609  19.586  0.00  0.00    +0.000 C 
ATOM     15  C   UNL     1       2.040   5.599  20.634  0.00  0.00    +0.000 C 
ATOM     16  C   UNL     1       1.047   4.466  20.390  0.00  0.00    +0.000 C 
ATOM     17  C   UNL     1       1.751   3.121  20.213  0.00  0.00    +0.000 C 
ATOM     18  C   UNL     1       2.879   3.218  19.183  0.00  0.00    +0.000 C 
BRANCH  17  19
ATOM     19  C   UNL     1       2.219   2.569  21.550  0.00  0.00    +0.000 C 
ATOM     20  O   UNL     1       3.352   2.150  21.746  0.00  0.00    +0.000 OA
BRANCH  19  21
ATOM     21  O   UNL     1       1.258   2.508  22.498  0.00  0.00    +0.000 OA
ATOM     22  H   UNL     1       1.621   2.118  23.326  0.00  0.00    +0.000 HD
ENDBRANCH  19  21
ENDBRANCH  17  19
ENDBRANCH  12  13
ENDBRANCH   3  12
TORSDOF 6
ENDMDL
MODEL 7
REMARK VINA RESULT:      -6.5      3.093      6.148
REMARK  Name = 
REMARK  7 active torsions:
REMARK  status: ('A' for Active; 'I' for Inactive)
REMARK    1  A    between atoms: C_1  and  N_2
REMARK    2  A    between atoms: N_2  and  C_3
REMARK    3  A    between atoms: C_3  and  C_4
REMARK    4  A    between atoms: C_10  and  C_12
REMARK    5  A    between atoms: C_12  and  N_13
REMARK    6  A    between atoms: C_17  and  C_18
REMARK    7  A    between atoms: C_18  and  O_20
REMARK                            x       y       z     vdW  Elec       q    Type
REMARK                         _______ _______ _______ _____ _____    ______ ____
ROOT
ATOM      1  C   UNL     1       6.999   6.851  17.741  0.00  0.00    +0.000 C 
ATOM      2  N   UNL     1       6.121   5.767  17.334  0.00  0.00    +0.000 N 
ATOM      3  C   UNL     1       6.014   4.682  18.199  0.00  0.00    +0.000 C 
ATOM      4  O   UNL     1       6.651   4.637  19.257  0.00  0.00    +0.000 OA
ENDROOT
BRANCH   2   5
ATOM      5  C   UNL     1       5.329   5.955  16.121  0.00  0.00    +0.000 C 
BRANCH   5   6
ATOM      6  C   UNL     1       5.916   5.215  14.958  0.00  0.00    +0.000 A 
ATOM      7  C   UNL     1       7.179   5.295  14.402  0.00  0.00    +0.000 A 
ATOM      8  C   UNL     1       7.340   4.415  13.290  0.00  0.00    +0.000 A 
ATOM      9  C   UNL     1       6.198   3.698  13.054  0.00  0.00    +0.000 A 
ATOM     10 CL   UNL     1       5.952   2.540  11.812  0.00  0.00    +0.000 Cl
ATOM     11  S   UNL     1       4.952   4.045  14.140  0.00  0.00    +0.000 S 
ENDBRANCH   5   6
ENDBRANCH   2   5
BRANCH   3  12
ATOM     12  C   UNL     1       5.081   3.517  17.832  0.00  0.00    +0.000 C 
BRANCH  12  13
ATOM     13  N   UNL     1       3.743   3.619  18.488  0.00  0.00    +0.000 NA
ATOM     14  C   UNL     1       2.707   3.904  17.469  0.00  0.00    +0.000 C 
ATOM     15  C   UNL     1       1.316   3.978  18.103  0.00  0.00    +0.000 C 
ATOM     16  C   UNL     1       0.987   2.712  18.889  0.00  0.00    +0.000 C 
ATOM     17  C   UNL     1       2.102   2.345  19.869  0.00  0.00    +0.000 C 
ATOM     18  C   UNL     1       3.466   2.332  19.175  0.00  0.00    +0.000 C 
BRANCH  17  19
ATOM     19  C   UNL     1       2.071   3.245  21.094  0.00  0.00    +0.000 C 
ATOM     20  O   UNL     1       2.483   4.397  21.093  0.00  0.00    +0.000 OA
BRANCH  19  21
ATOM     21  O   UNL     1       1.614   2.648  22.216  0.00  0.00    +0.000 OA
ATOM     22  H   UNL     1       1.632   1.669  22.113  0.00  0.00    +0.000 HD
ENDBRANCH  19  21
ENDBRANCH  17  19
ENDBRANCH  12  13
ENDBRANCH   3  12
TORSDOF 6
ENDMDL
MODEL 8
REMARK VINA RESULT:      -6.5      2.306      2.863
REMARK  Name = 
REMARK  7 active torsions:
REMARK  status: ('A' for Active; 'I' for Inactive)
REMARK    1  A    between atoms: C_1  and  N_2
REMARK    2  A    between atoms: N_2  and  C_3
REMARK    3  A    between atoms: C_3  and  C_4
REMARK    4  A    between atoms: C_10  and  C_12
REMARK    5  A    between atoms: C_12  and  N_13
REMARK    6  A    between atoms: C_17  and  C_18
REMARK    7  A    between atoms: C_18  and  O_20
REMARK                            x       y       z     vdW  Elec       q    Type
REMARK                         _______ _______ _______ _____ _____    ______ ____
ROOT
ATOM      1  C   UNL     1       1.030   3.681  19.211  0.00  0.00    +0.000 C 
ATOM      2  N   UNL     1       2.378   4.137  19.502  0.00  0.00    +0.000 N 
ATOM      3  C   UNL     1       3.419   3.499  18.836  0.00  0.00    +0.000 C 
ATOM      4  O   UNL     1       3.205   2.574  18.044  0.00  0.00    +0.000 OA
ENDROOT
BRANCH   2   5
ATOM      5  C   UNL     1       2.527   5.304  20.368  0.00  0.00    +0.000 C 
BRANCH   5   6
ATOM      6  C   UNL     1       2.237   6.577  19.635  0.00  0.00    +0.000 A 
ATOM      7  C   UNL     1       2.379   6.881  18.293  0.00  0.00    +0.000 A 
ATOM      8  C   UNL     1       1.990   8.222  17.995  0.00  0.00    +0.000 A 
ATOM      9  C   UNL     1       1.561   8.877  19.118  0.00  0.00    +0.000 A 
ATOM     10 CL   UNL     1       1.017  10.501  19.214  0.00  0.00    +0.000 Cl
ATOM     11  S   UNL     1       1.599   7.919  20.509  0.00  0.00    +0.000 S 
ENDBRANCH   5   6
ENDBRANCH   2   5
BRANCH   3  12
ATOM     12  C   UNL     1       4.865   3.955  19.086  0.00  0.00    +0.000 C 
BRANCH  12  13
ATOM     13  N   UNL     1       5.437   4.721  17.937  0.00  0.00    +0.000 NA
ATOM     14  C   UNL     1       5.439   6.168  18.253  0.00  0.00    +0.000 C 
ATOM     15  C   UNL     1       6.054   6.980  17.111  0.00  0.00    +0.000 C 
ATOM     16  C   UNL     1       7.454   6.487  16.759  0.00  0.00    +0.000 C 
ATOM     17  C   UNL     1       7.486   4.975  16.539  0.00  0.00    +0.000 C 
ATOM     18  C   UNL     1       6.818   4.233  17.698  0.00  0.00    +0.000 C 
BRANCH  17  19
ATOM     19  C   UNL     1       6.898   4.608  15.185  0.00  0.00    +0.000 C 
ATOM     20  O   UNL     1       7.011   5.311  14.190  0.00  0.00    +0.000 OA
BRANCH  19  21
ATOM     21  O   UNL     1       6.172   3.469  15.180  0.00  0.00    +0.000 OA
ATOM     22  H   UNL     1       5.733   3.341  16.053  0.00  0.00    +0.000 HD
ENDBRANCH  19  21
ENDBRANCH  17  19
ENDBRANCH  12  13
ENDBRANCH   3  12
TORSDOF 6
ENDMDL
MODEL 9
REMARK VINA RESULT:      -6.5      3.052      6.324
REMARK  Name = 
REMARK  7 active torsions:
REMARK  status: ('A' for Active; 'I' for Inactive)
REMARK    1  A    between atoms: C_1  and  N_2
REMARK    2  A    between atoms: N_2  and  C_3
REMARK    3  A    between atoms: C_3  and  C_4
REMARK    4  A    between atoms: C_10  and  C_12
REMARK    5  A    between atoms: C_12  and  N_13
REMARK    6  A    between atoms: C_17  and  C_18
REMARK    7  A    between atoms: C_18  and  O_20
REMARK                            x       y       z     vdW  Elec       q    Type
REMARK                         _______ _______ _______ _____ _____    ______ ____
ROOT
ATOM      1  C   UNL     1       7.558   4.422  16.889  0.00  0.00    +0.000 C 
ATOM      2  N   UNL     1       6.306   5.142  17.043  0.00  0.00    +0.000 N 
ATOM      3  C   UNL     1       5.790   5.245  18.332  0.00  0.00    +0.000 C 
ATOM      4  O   UNL     1       6.366   4.733  19.298  0.00  0.00    +0.000 OA
ENDROOT
BRANCH   2   5
ATOM      5  C   UNL     1       5.754   5.803  15.863  0.00  0.00    +0.000 C 
BRANCH   5   6
ATOM      6  C   UNL     1       6.119   5.079  14.604  0.00  0.00    +0.000 A 
ATOM      7  C   UNL     1       7.207   5.246  13.768  0.00  0.00    +0.000 A 
ATOM      8  C   UNL     1       7.183   4.348  12.658  0.00  0.00    +0.000 A 
ATOM      9  C   UNL     1       6.084   3.533  12.702  0.00  0.00    +0.000 A 
ATOM     10 CL   UNL     1       5.660   2.321  11.564  0.00  0.00    +0.000 Cl
ATOM     11  S   UNL     1       5.098   3.808  14.045  0.00  0.00    +0.000 S 
ENDBRANCH   5   6
ENDBRANCH   2   5
BRANCH   3  12
ATOM     12  C   UNL     1       4.481   6.016  18.558  0.00  0.00    +0.000 C 
BRANCH  12  13
ATOM     13  N   UNL     1       3.567   5.334  19.523  0.00  0.00    +0.000 NA
ATOM     14  C   UNL     1       2.389   6.192  19.789  0.00  0.00    +0.000 C 
ATOM     15  C   UNL     1       1.413   5.506  20.747  0.00  0.00    +0.000 C 
ATOM     16  C   UNL     1       0.992   4.132  20.235  0.00  0.00    +0.000 C 
ATOM     17  C   UNL     1       2.199   3.274  19.852  0.00  0.00    +0.000 C 
ATOM     18  C   UNL     1       3.150   4.039  18.929  0.00  0.00    +0.000 C 
BRANCH  17  19
ATOM     19  C   UNL     1       2.891   2.722  21.088  0.00  0.00    +0.000 C 
ATOM     20  O   UNL     1       4.068   2.390  21.108  0.00  0.00    +0.000 OA
BRANCH  19  21
ATOM     21  O   UNL     1       2.081   2.557  22.157  0.00  0.00    +0.000 OA
ATOM     22  H   UNL     1       1.236   2.132  21.881  0.00  0.00    +0.000 HD
ENDBRANCH  19  21
ENDBRANCH  17  19
ENDBRANCH  12  13
ENDBRANCH   3  12
TORSDOF 6
ENDMDL
