MODEL 1
REMARK VINA RESULT:      -7.6      0.000      0.000
REMARK  Name = 
REMARK  7 active torsions:
REMARK  status: ('A' for Active; 'I' for Inactive)
REMARK    1  A    between atoms: C_1  and  C_2
REMARK    2  A    between atoms: C_2  and  C_3
REMARK    3  A    between atoms: C_3  and  N_4
REMARK    4  A    between atoms: C_6  and  C_7
REMARK    5  A    between atoms: C_7  and  O_9
REMARK    6  A    between atoms: O_9  and  C_10
REMARK    7  A    between atoms: C_10  and  C_11
REMARK                            x       y       z     vdW  Elec       q    Type
REMARK                         _______ _______ _______ _____ _____    ______ ____
ROOT
ATOM      1  N   UNL     1       4.653   4.178  18.208  0.00  0.00    +0.000 N 
ATOM      2  C   UNL     1       5.409   4.007  17.051  0.00  0.00    +0.000 A 
ATOM      3  C   UNL     1       5.603   4.914  16.079  0.00  0.00    +0.000 A 
ATOM      4  C   UNL     1       4.983   6.242  16.277  0.00  0.00    +0.000 A 
ATOM      5  O   UNL     1       5.210   7.204  15.547  0.00  0.00    +0.000 OA
ATOM      6  C   UNL     1       4.080   6.420  17.431  0.00  0.00    +0.000 A 
ATOM      7  C   UNL     1       3.384   7.633  17.534  0.00  0.00    +0.000 A 
ATOM      8  C   UNL     1       2.523   7.830  18.598  0.00  0.00    +0.000 A 
ATOM      9  F   UNL     1       1.839   8.981  18.670  0.00  0.00    +0.000 F 
ATOM     10  C   UNL     1       2.369   6.843  19.564  0.00  0.00    +0.000 A 
ATOM     11 CL   UNL     1       1.286   7.078  20.883  0.00  0.00    +0.000 Cl
ATOM     12  C   UNL     1       3.079   5.639  19.467  0.00  0.00    +0.000 A 
ATOM     13  C   UNL     1       3.942   5.388  18.387  0.00  0.00    +0.000 A 
ENDROOT
BRANCH   3  14
ATOM     14  C   UNL     1       6.477   4.584  14.938  0.00  0.00    +0.000 C 
ATOM     15  O   UNL     1       7.544   5.139  14.712  0.00  0.00    +0.000 OA
BRANCH  14  16
ATOM     16  O   UNL     1       5.903   3.636  14.159  0.00  0.00    +0.000 OA
BRANCH  16  17
ATOM     17  C   UNL     1       6.274   3.641  12.776  0.00  0.00    +0.000 C 
ATOM     18  C   UNL     1       5.054   3.255  11.953  0.00  0.00    +0.000 C 
ENDBRANCH  16  17
ENDBRANCH  14  16
ENDBRANCH   3  14
BRANCH   1  19
ATOM     19  C   UNL     1       4.504   3.082  19.188  0.00  0.00    +0.000 C 
BRANCH  19  21
ATOM     20  C   UNL     1       2.209   2.045  19.004  0.00  0.00    +0.000 C 
ATOM     21  C   UNL     1       3.672   1.937  18.605  0.00  0.00    +0.000 C 
ENDBRANCH  19  21
ENDBRANCH   1  19
TORSDOF 5
ENDMDL
MODEL 2
REMARK VINA RESULT:      -7.1      2.436      3.253
REMARK  Name = 
REMARK  7 active torsions:
REMARK  status: ('A' for Active; 'I' for Inactive)
REMARK    1  A    between atoms: C_1  and  C_2
REMARK    2  A    between atoms: C_2  and  C_3
REMARK    3  A    between atoms: C_3  and  N_4
REMARK    4  A    between atoms: C_6  and  C_7
REMARK    5  A    between atoms: C_7  and  O_9
REMARK    6  A    between atoms: O_9  and  C_10
REMARK    7  A    between atoms: C_10  and  C_11
REMARK                            x       y       z     vdW  Elec       q    Type
REMARK                         _______ _______ _______ _____ _____    ______ ____
ROOT
ATOM      1  N   UNL     1       2.866   5.505  19.921  0.00  0.00    +0.000 N 
ATOM      2  C   UNL     1       3.756   4.752  19.158  0.00  0.00    +0.000 A 
ATOM      3  C   UNL     1       4.368   5.139  18.026  0.00  0.00    +0.000 A 
ATOM      4  C   UNL     1       4.100   6.518  17.564  0.00  0.00    +0.000 A 
ATOM      5  O   UNL     1       4.712   7.046  16.639  0.00  0.00    +0.000 OA
ATOM      6  C   UNL     1       3.074   7.301  18.281  0.00  0.00    +0.000 A 
ATOM      7  C   UNL     1       2.722   8.552  17.753  0.00  0.00    +0.000 A 
ATOM      8  C   UNL     1       1.758   9.309  18.393  0.00  0.00    +0.000 A 
ATOM      9  F   UNL     1       1.407  10.489  17.863  0.00  0.00    +0.000 F 
ATOM     10  C   UNL     1       1.163   8.841  19.558  0.00  0.00    +0.000 A 
ATOM     11 CL   UNL     1      -0.049   9.773  20.351  0.00  0.00    +0.000 Cl
ATOM     12  C   UNL     1       1.530   7.599  20.093  0.00  0.00    +0.000 A 
ATOM     13  C   UNL     1       2.484   6.786  19.457  0.00  0.00    +0.000 A 
ENDROOT
BRANCH   3  14
ATOM     14  C   UNL     1       5.323   4.229  17.368  0.00  0.00    +0.000 C 
ATOM     15  O   UNL     1       5.107   3.666  16.303  0.00  0.00    +0.000 OA
BRANCH  14  16
ATOM     16  O   UNL     1       6.429   4.066  18.133  0.00  0.00    +0.000 OA
BRANCH  16  17
ATOM     17  C   UNL     1       7.544   4.910  17.825  0.00  0.00    +0.000 C 
ATOM     18  C   UNL     1       7.796   5.822  19.017  0.00  0.00    +0.000 C 
ENDBRANCH  16  17
ENDBRANCH  14  16
ENDBRANCH   3  14
BRANCH   1  19
ATOM     19  C   UNL     1       2.243   4.945  21.138  0.00  0.00    +0.000 C 
BRANCH  19  21
ATOM     20  C   UNL     1       1.548   2.560  21.591  0.00  0.00    +0.000 C 
ATOM     21  C   UNL     1       1.270   3.818  20.784  0.00  0.00    +0.000 C 
ENDBRANCH  19  21
ENDBRANCH   1  19
TORSDOF 5
ENDMDL
MODEL 3
REMARK VINA RESULT:      -7.0      3.114      4.942
REMARK  Name = 
REMARK  7 active torsions:
REMARK  status: ('A' for Active; 'I' for Inactive)
REMARK    1  A    between atoms: C_1  and  C_2
REMARK    2  A    between atoms: C_2  and  C_3
REMARK    3  A    between atoms: C_3  and  N_4
REMARK    4  A    between atoms: C_6  and  C_7
REMARK    5  A    between atoms: C_7  and  O_9
REMARK    6  A    between atoms: O_9  and  C_10
REMARK    7  A    between atoms: C_10  and  C_11
REMARK                            x       y       z     vdW  Elec       q    Type
REMARK                         _______ _______ _______ _____ _____    ______ ____
ROOT
ATOM      1  N   UNL     1       3.418   6.319  18.106  0.00  0.00    +0.000 N 
ATOM      2  C   UNL     1       4.582   6.767  17.486  0.00  0.00    +0.000 A 
ATOM      3  C   UNL     1       5.780   6.158  17.493  0.00  0.00    +0.000 A 
ATOM      4  C   UNL     1       5.861   4.860  18.198  0.00  0.00    +0.000 A 
ATOM      5  O   UNL     1       6.847   4.130  18.147  0.00  0.00    +0.000 OA
ATOM      6  C   UNL     1       4.680   4.414  18.964  0.00  0.00    +0.000 A 
ATOM      7  C   UNL     1       4.809   3.257  19.745  0.00  0.00    +0.000 A 
ATOM      8  C   UNL     1       3.726   2.814  20.483  0.00  0.00    +0.000 A 
ATOM      9  F   UNL     1       3.870   1.725  21.251  0.00  0.00    +0.000 F 
ATOM     10  C   UNL     1       2.519   3.500  20.430  0.00  0.00    +0.000 A 
ATOM     11 CL   UNL     1       1.172   2.962  21.360  0.00  0.00    +0.000 Cl
ATOM     12  C   UNL     1       2.388   4.646  19.635  0.00  0.00    +0.000 A 
ATOM     13  C   UNL     1       3.473   5.144  18.893  0.00  0.00    +0.000 A 
ENDROOT
BRANCH   3  14
ATOM     14  C   UNL     1       6.902   6.748  16.741  0.00  0.00    +0.000 C 
ATOM     15  O   UNL     1       7.535   6.153  15.879  0.00  0.00    +0.000 OA
BRANCH  14  16
ATOM     16  O   UNL     1       7.161   8.003  17.181  0.00  0.00    +0.000 OA
BRANCH  16  17
ATOM     17  C   UNL     1       8.196   8.130  18.162  0.00  0.00    +0.000 C 
ATOM     18  C   UNL     1       8.567   9.601  18.278  0.00  0.00    +0.000 C 
ENDBRANCH  16  17
ENDBRANCH  14  16
ENDBRANCH   3  14
BRANCH   1  19
ATOM     19  C   UNL     1       2.168   7.105  18.037  0.00  0.00    +0.000 C 
BRANCH  19  21
ATOM     20  C   UNL     1       1.262   9.461  18.007  0.00  0.00    +0.000 C 
ATOM     21  C   UNL     1       2.464   8.574  17.725  0.00  0.00    +0.000 C 
ENDBRANCH  19  21
ENDBRANCH   1  19
TORSDOF 5
ENDMDL
MODEL 4
REMARK VINA RESULT:      -6.9      4.087      6.479
REMARK  Name = 
REMARK  7 active torsions:
REMARK  status: ('A' for Active; 'I' for Inactive)
REMARK    1  A    between atoms: C_1  and  C_2
REMARK    2  A    between atoms: C_2  and  C_3
REMARK    3  A    between atoms: C_3  and  N_4
REMARK    4  A    between atoms: C_6  and  C_7
REMARK    5  A    between atoms: C_7  and  O_9
REMARK    6  A    between atoms: O_9  and  C_10
REMARK    7  A    between atoms: C_10  and  C_11
REMARK                            x       y       z     vdW  Elec       q    Type
REMARK                         _______ _______ _______ _____ _____    ______ ____
ROOT
ATOM      1  N   UNL     1       6.468   5.692  17.818  0.00  0.00    +0.000 N 
ATOM      2  C   UNL     1       5.441   5.505  18.741  0.00  0.00    +0.000 A 
ATOM      3  C   UNL     1       4.321   4.786  18.559  0.00  0.00    +0.000 A 
ATOM      4  C   UNL     1       4.181   4.092  17.261  0.00  0.00    +0.000 A 
ATOM      5  O   UNL     1       3.288   3.281  17.027  0.00  0.00    +0.000 OA
ATOM      6  C   UNL     1       5.191   4.363  16.219  0.00  0.00    +0.000 A 
ATOM      7  C   UNL     1       4.976   3.815  14.945  0.00  0.00    +0.000 A 
ATOM      8  C   UNL     1       5.897   4.057  13.942  0.00  0.00    +0.000 A 
ATOM      9  F   UNL     1       5.666   3.555  12.721  0.00  0.00    +0.000 F 
ATOM     10  C   UNL     1       7.031   4.815  14.203  0.00  0.00    +0.000 A 
ATOM     11 CL   UNL     1       8.173   5.131  12.952  0.00  0.00    +0.000 Cl
ATOM     12  C   UNL     1       7.251   5.346  15.481  0.00  0.00    +0.000 A 
ATOM     13  C   UNL     1       6.326   5.148  16.520  0.00  0.00    +0.000 A 
ENDROOT
BRANCH   3  14
ATOM     14  C   UNL     1       3.355   4.651  19.664  0.00  0.00    +0.000 C 
ATOM     15  O   UNL     1       2.558   5.523  19.987  0.00  0.00    +0.000 OA
BRANCH  14  16
ATOM     16  O   UNL     1       3.519   3.464  20.297  0.00  0.00    +0.000 OA
BRANCH  16  17
ATOM     17  C   UNL     1       2.405   2.566  20.260  0.00  0.00    +0.000 C 
ATOM     18  C   UNL     1       1.656   2.678  21.579  0.00  0.00    +0.000 C 
ENDBRANCH  16  17
ENDBRANCH  14  16
ENDBRANCH   3  14
BRANCH   1  19
ATOM     19  C   UNL     1       7.639   6.533  18.143  0.00  0.00    +0.000 C 
BRANCH  19  21
ATOM     20  C   UNL     1       8.472   8.915  18.200  0.00  0.00    +0.000 C 
ATOM     21  C   UNL     1       7.461   7.952  17.599  0.00  0.00    +0.000 C 
ENDBRANCH  19  21
ENDBRANCH   1  19
TORSDOF 5
ENDMDL
MODEL 5
REMARK VINA RESULT:      -6.9      2.927      4.970
REMARK  Name = 
REMARK  7 active torsions:
REMARK  status: ('A' for Active; 'I' for Inactive)
REMARK    1  A    between atoms: C_1  and  C_2
REMARK    2  A    between atoms: C_2  and  C_3
REMARK    3  A    between atoms: C_3  and  N_4
REMARK    4  A    between atoms: C_6  and  C_7
REMARK    5  A    between atoms: C_7  and  O_9
REMARK    6  A    between atoms: O_9  and  C_10
REMARK    7  A    between atoms: C_10  and  C_11
REMARK                            x       y       z     vdW  Elec       q    Type
REMARK                         _______ _______ _______ _____ _____    ______ ____
ROOT
ATOM      1  N   UNL     1       3.459   6.551  18.084  0.00  0.00    +0.000 N 
ATOM      2  C   UNL     1       4.707   6.977  17.635  0.00  0.00    +0.000 A 
ATOM      3  C   UNL     1       5.699   6.201  17.168  0.00  0.00    +0.000 A 
ATOM      4  C   UNL     1       5.423   4.751  17.084  0.00  0.00    +0.000 A 
ATOM      5  O   UNL     1       6.180   3.955  16.533  0.00  0.00    +0.000 OA
ATOM      6  C   UNL     1       4.159   4.251  17.659  0.00  0.00    +0.000 A 
ATOM      7  C   UNL     1       3.967   2.863  17.706  0.00  0.00    +0.000 A 
ATOM      8  C   UNL     1       2.797   2.360  18.247  0.00  0.00    +0.000 A 
ATOM      9  F   UNL     1       2.638   1.031  18.315  0.00  0.00    +0.000 F 
ATOM     10  C   UNL     1       1.817   3.225  18.717  0.00  0.00    +0.000 A 
ATOM     11 CL   UNL     1       0.365   2.602  19.405  0.00  0.00    +0.000 Cl
ATOM     12  C   UNL     1       2.004   4.612  18.652  0.00  0.00    +0.000 A 
ATOM     13  C   UNL     1       3.190   5.163  18.137  0.00  0.00    +0.000 A 
ENDROOT
BRANCH   3  14
ATOM     14  C   UNL     1       6.945   6.823  16.686  0.00  0.00    +0.000 C 
ATOM     15  O   UNL     1       7.735   6.275  15.929  0.00  0.00    +0.000 OA
BRANCH  14  16
ATOM     16  O   UNL     1       7.112   8.046  17.245  0.00  0.00    +0.000 OA
BRANCH  16  17
ATOM     17  C   UNL     1       8.200   8.180  18.166  0.00  0.00    +0.000 C 
ATOM     18  C   UNL     1       8.593   9.648  18.232  0.00  0.00    +0.000 C 
ENDBRANCH  16  17
ENDBRANCH  14  16
ENDBRANCH   3  14
BRANCH   1  19
ATOM     19  C   UNL     1       2.464   7.516  18.598  0.00  0.00    +0.000 C 
BRANCH  19  21
ATOM     20  C   UNL     1       1.346   9.740  18.182  0.00  0.00    +0.000 C 
ATOM     21  C   UNL     1       2.269   8.673  17.617  0.00  0.00    +0.000 C 
ENDBRANCH  19  21
ENDBRANCH   1  19
TORSDOF 5
ENDMDL
MODEL 6
REMARK VINA RESULT:      -6.8      4.133      6.498
REMARK  Name = 
REMARK  7 active torsions:
REMARK  status: ('A' for Active; 'I' for Inactive)
REMARK    1  A    between atoms: C_1  and  C_2
REMARK    2  A    between atoms: C_2  and  C_3
REMARK    3  A    between atoms: C_3  and  N_4
REMARK    4  A    between atoms: C_6  and  C_7
REMARK    5  A    between atoms: C_7  and  O_9
REMARK    6  A    between atoms: O_9  and  C_10
REMARK    7  A    between atoms: C_10  and  C_11
REMARK                            x       y       z     vdW  Elec       q    Type
REMARK                         _______ _______ _______ _____ _____    ______ ____
ROOT
ATOM      1  N   UNL     1       6.669   5.455  17.886  0.00  0.00    +0.000 N 
ATOM      2  C   UNL     1       5.766   5.056  18.869  0.00  0.00    +0.000 A 
ATOM      3  C   UNL     1       4.754   4.185  18.723  0.00  0.00    +0.000 A 
ATOM      4  C   UNL     1       4.608   3.554  17.394  0.00  0.00    +0.000 A 
ATOM      5  O   UNL     1       3.829   2.631  17.171  0.00  0.00    +0.000 OA
ATOM      6  C   UNL     1       5.472   4.039  16.298  0.00  0.00    +0.000 A 
ATOM      7  C   UNL     1       5.232   3.541  15.010  0.00  0.00    +0.000 A 
ATOM      8  C   UNL     1       6.016   3.980  13.958  0.00  0.00    +0.000 A 
ATOM      9  F   UNL     1       5.758   3.521  12.726  0.00  0.00    +0.000 F 
ATOM     10  C   UNL     1       7.042   4.889  14.185  0.00  0.00    +0.000 A 
ATOM     11 CL   UNL     1       8.011   5.450  12.876  0.00  0.00    +0.000 Cl
ATOM     12  C   UNL     1       7.290   5.371  15.477  0.00  0.00    +0.000 A 
ATOM     13  C   UNL     1       6.499   4.972  16.567  0.00  0.00    +0.000 A 
ENDROOT
BRANCH   3  14
ATOM     14  C   UNL     1       3.919   3.837  19.887  0.00  0.00    +0.000 C 
ATOM     15  O   UNL     1       3.958   2.755  20.457  0.00  0.00    +0.000 OA
BRANCH  14  16
ATOM     16  O   UNL     1       3.074   4.853  20.186  0.00  0.00    +0.000 OA
BRANCH  16  17
ATOM     17  C   UNL     1       1.970   4.531  21.038  0.00  0.00    +0.000 C 
ATOM     18  C   UNL     1       0.855   3.954  20.179  0.00  0.00    +0.000 C 
ENDBRANCH  16  17
ENDBRANCH  14  16
ENDBRANCH   3  14
BRANCH   1  19
ATOM     19  C   UNL     1       7.726   6.446  18.179  0.00  0.00    +0.000 C 
BRANCH  19  21
ATOM     20  C   UNL     1       8.311   8.900  18.086  0.00  0.00    +0.000 C 
ATOM     21  C   UNL     1       7.368   7.814  17.594  0.00  0.00    +0.000 C 
ENDBRANCH  19  21
ENDBRANCH   1  19
TORSDOF 5
ENDMDL
MODEL 7
REMARK VINA RESULT:      -6.7      2.595      4.228
REMARK  Name = 
REMARK  7 active torsions:
REMARK  status: ('A' for Active; 'I' for Inactive)
REMARK    1  A    between atoms: C_1  and  C_2
REMARK    2  A    between atoms: C_2  and  C_3
REMARK    3  A    between atoms: C_3  and  N_4
REMARK    4  A    between atoms: C_6  and  C_7
REMARK    5  A    between atoms: C_7  and  O_9
REMARK    6  A    between atoms: O_9  and  C_10
REMARK    7  A    between atoms: C_10  and  C_11
REMARK                            x       y       z     vdW  Elec       q    Type
REMARK                         _______ _______ _______ _____ _____    ______ ____
ROOT
ATOM      1  N   UNL     1       3.428   6.289  18.136  0.00  0.00    +0.000 N 
ATOM      2  C   UNL     1       4.604   6.720  17.526  0.00  0.00    +0.000 A 
ATOM      3  C   UNL     1       5.798   6.105  17.562  0.00  0.00    +0.000 A 
ATOM      4  C   UNL     1       5.861   4.820  18.289  0.00  0.00    +0.000 A 
ATOM      5  O   UNL     1       6.844   4.083  18.266  0.00  0.00    +0.000 OA
ATOM      6  C   UNL     1       4.667   4.393  19.045  0.00  0.00    +0.000 A 
ATOM      7  C   UNL     1       4.778   3.248  19.848  0.00  0.00    +0.000 A 
ATOM      8  C   UNL     1       3.682   2.825  20.578  0.00  0.00    +0.000 A 
ATOM      9  F   UNL     1       3.808   1.748  21.366  0.00  0.00    +0.000 F 
ATOM     10  C   UNL     1       2.480   3.516  20.495  0.00  0.00    +0.000 A 
ATOM     11 CL   UNL     1       1.116   3.001  21.414  0.00  0.00    +0.000 Cl
ATOM     12  C   UNL     1       2.367   4.649  19.678  0.00  0.00    +0.000 A 
ATOM     13  C   UNL     1       3.465   5.129  18.944  0.00  0.00    +0.000 A 
ENDROOT
BRANCH   3  14
ATOM     14  C   UNL     1       6.934   6.676  16.816  0.00  0.00    +0.000 C 
ATOM     15  O   UNL     1       7.375   7.803  16.999  0.00  0.00    +0.000 OA
BRANCH  14  16
ATOM     16  O   UNL     1       7.369   5.806  15.873  0.00  0.00    +0.000 OA
BRANCH  16  17
ATOM     17  C   UNL     1       6.453   5.509  14.813  0.00  0.00    +0.000 C 
ATOM     18  C   UNL     1       6.439   4.002  14.603  0.00  0.00    +0.000 C 
ENDBRANCH  16  17
ENDBRANCH  14  16
ENDBRANCH   3  14
BRANCH   1  19
ATOM     19  C   UNL     1       2.184   7.081  18.036  0.00  0.00    +0.000 C 
BRANCH  19  21
ATOM     20  C   UNL     1       1.277   9.437  18.009  0.00  0.00    +0.000 C 
ATOM     21  C   UNL     1       2.496   8.557  17.780  0.00  0.00    +0.000 C 
ENDBRANCH  19  21
ENDBRANCH   1  19
TORSDOF 5
ENDMDL
MODEL 8
REMARK VINA RESULT:      -6.7      2.346      3.971
REMARK  Name = 
REMARK  7 active torsions:
REMARK  status: ('A' for Active; 'I' for Inactive)
REMARK    1  A    between atoms: C_1  and  C_2
REMARK    2  A    between atoms: C_2  and  C_3
REMARK    3  A    between atoms: C_3  and  N_4
REMARK    4  A    between atoms: C_6  and  C_7
REMARK    5  A    between atoms: C_7  and  O_9
REMARK    6  A    between atoms: O_9  and  C_10
REMARK    7  A    between atoms: C_10  and  C_11
REMARK                            x       y       z     vdW  Elec       q    Type
REMARK                         _______ _______ _______ _____ _____    ______ ____
ROOT
ATOM      1  N   UNL     1       3.574   6.344  17.992  0.00  0.00    +0.000 N 
ATOM      2  C   UNL     1       4.705   6.516  17.197  0.00  0.00    +0.000 A 
ATOM      3  C   UNL     1       5.431   5.546  16.616  0.00  0.00    +0.000 A 
ATOM      4  C   UNL     1       4.959   4.158  16.808  0.00  0.00    +0.000 A 
ATOM      5  O   UNL     1       5.436   3.198  16.206  0.00  0.00    +0.000 OA
ATOM      6  C   UNL     1       3.836   3.931  17.738  0.00  0.00    +0.000 A 
ATOM      7  C   UNL     1       3.486   2.603  18.026  0.00  0.00    +0.000 A 
ATOM      8  C   UNL     1       2.444   2.353  18.901  0.00  0.00    +0.000 A 
ATOM      9  F   UNL     1       2.138   1.081  19.192  0.00  0.00    +0.000 F 
ATOM     10  C   UNL     1       1.741   3.408  19.469  0.00  0.00    +0.000 A 
ATOM     11 CL   UNL     1       0.453   3.102  20.571  0.00  0.00    +0.000 Cl
ATOM     12  C   UNL     1       2.082   4.733  19.165  0.00  0.00    +0.000 A 
ATOM     13  C   UNL     1       3.152   5.030  18.304  0.00  0.00    +0.000 A 
ENDROOT
BRANCH   3  14
ATOM     14  C   UNL     1       6.578   5.907  15.762  0.00  0.00    +0.000 C 
ATOM     15  O   UNL     1       7.614   6.402  16.184  0.00  0.00    +0.000 OA
BRANCH  14  16
ATOM     16  O   UNL     1       6.293   5.669  14.460  0.00  0.00    +0.000 OA
BRANCH  16  17
ATOM     17  C   UNL     1       7.197   4.808  13.759  0.00  0.00    +0.000 C 
ATOM     18  C   UNL     1       6.379   3.834  12.924  0.00  0.00    +0.000 C 
ENDBRANCH  16  17
ENDBRANCH  14  16
ENDBRANCH   3  14
BRANCH   1  19
ATOM     19  C   UNL     1       2.882   7.504  18.592  0.00  0.00    +0.000 C 
BRANCH  19  21
ATOM     20  C   UNL     1       1.326   9.429  18.097  0.00  0.00    +0.000 C 
ATOM     21  C   UNL     1       2.277   8.399  17.509  0.00  0.00    +0.000 C 
ENDBRANCH  19  21
ENDBRANCH   1  19
TORSDOF 5
ENDMDL
MODEL 9
REMARK VINA RESULT:      -6.6      3.240      4.827
REMARK  Name = 
REMARK  7 active torsions:
REMARK  status: ('A' for Active; 'I' for Inactive)
REMARK    1  A    between atoms: C_1  and  C_2
REMARK    2  A    between atoms: C_2  and  C_3
REMARK    3  A    between atoms: C_3  and  N_4
REMARK    4  A    between atoms: C_6  and  C_7
REMARK    5  A    between atoms: C_7  and  O_9
REMARK    6  A    between atoms: O_9  and  C_10
REMARK    7  A    between atoms: C_10  and  C_11
REMARK                            x       y       z     vdW  Elec       q    Type
REMARK                         _______ _______ _______ _____ _____    ______ ____
ROOT
ATOM      1  N   UNL     1       4.073   5.919  17.658  0.00  0.00    +0.000 N 
ATOM      2  C   UNL     1       4.282   4.687  18.274  0.00  0.00    +0.000 A 
ATOM      3  C   UNL     1       3.703   4.248  19.404  0.00  0.00    +0.000 A 
ATOM      4  C   UNL     1       2.714   5.147  20.037  0.00  0.00    +0.000 A 
ATOM      5  O   UNL     1       2.003   4.805  20.978  0.00  0.00    +0.000 OA
ATOM      6  C   UNL     1       2.556   6.505  19.478  0.00  0.00    +0.000 A 
ATOM      7  C   UNL     1       1.725   7.400  20.167  0.00  0.00    +0.000 A 
ATOM      8  C   UNL     1       1.561   8.683  19.677  0.00  0.00    +0.000 A 
ATOM      9  F   UNL     1       0.789   9.540  20.360  0.00  0.00    +0.000 F 
ATOM     10  C   UNL     1       2.197   9.069  18.504  0.00  0.00    +0.000 A 
ATOM     11 CL   UNL     1       2.008  10.671  17.899  0.00  0.00    +0.000 Cl
ATOM     12  C   UNL     1       3.012   8.166  17.809  0.00  0.00    +0.000 A 
ATOM     13  C   UNL     1       3.229   6.863  18.288  0.00  0.00    +0.000 A 
ENDROOT
BRANCH   3  14
ATOM     14  C   UNL     1       4.001   2.890  19.894  0.00  0.00    +0.000 C 
ATOM     15  O   UNL     1       5.128   2.490  20.156  0.00  0.00    +0.000 OA
BRANCH  14  16
ATOM     16  O   UNL     1       2.870   2.146  19.953  0.00  0.00    +0.000 OA
BRANCH  16  17
ATOM     17  C   UNL     1       2.248   1.838  18.701  0.00  0.00    +0.000 C 
ATOM     18  C   UNL     1       0.787   2.255  18.777  0.00  0.00    +0.000 C 
ENDBRANCH  16  17
ENDBRANCH  14  16
ENDBRANCH   3  14
BRANCH   1  19
ATOM     19  C   UNL     1       4.799   6.286  16.424  0.00  0.00    +0.000 C 
BRANCH  19  21
ATOM     20  C   UNL     1       7.006   7.060  17.373  0.00  0.00    +0.000 C 
ATOM     21  C   UNL     1       6.294   5.990  16.562  0.00  0.00    +0.000 C 
ENDBRANCH  19  21
ENDBRANCH   1  19
TORSDOF 5
ENDMDL
