MODEL 1
REMARK VINA RESULT:      -5.0      0.000      0.000
REMARK  Name = 
REMARK  4 active torsions:
REMARK  status: ('A' for Active; 'I' for Inactive)
REMARK    1  A    between atoms: C_1  and  N_2
REMARK    2  A    between atoms: N_2  and  C_3
REMARK    3  A    between atoms: N_2  and  S_4
REMARK    4  A    between atoms: S_4  and  N_7
REMARK                            x       y       z     vdW  Elec       q    Type
REMARK                         _______ _______ _______ _____ _____    ______ ____
ROOT
ATOM      1  N   UNL     1       6.210   3.867  15.675  0.00  0.00    +0.000 NA
ATOM      2  C   UNL     1       6.668   4.232  14.529  0.00  0.00    +0.000 C 
ATOM      3  N   UNL     1       7.539   5.216  14.210  0.00  0.00    +0.000 N 
ATOM      4  N   UNL     1       6.219   3.615  13.406  0.00  0.00    +0.000 N 
ATOM      5  H   UNL     1       8.074   5.644  14.960  0.00  0.00    +0.000 HD
ATOM      6  H   UNL     1       8.036   5.175  13.333  0.00  0.00    +0.000 HD
ATOM      7  H   UNL     1       5.702   2.763  13.586  0.00  0.00    +0.000 HD
ATOM      8  H   UNL     1       6.845   3.551  12.619  0.00  0.00    +0.000 HD
ENDROOT
BRANCH   1   9
ATOM      9  S   UNL     1       6.667   4.648  17.014  0.00  0.00    +0.000 S 
ATOM     10  O   UNL     1       8.085   4.426  17.222  0.00  0.00    +0.000 OA
ATOM     11  O   UNL     1       5.740   4.314  18.078  0.00  0.00    +0.000 OA
BRANCH   9  13
ATOM     12  C   UNL     1       5.093   6.786  16.731  0.00  0.00    +0.000 C 
ATOM     13  N   UNL     1       6.492   6.318  16.704  0.00  0.00    +0.000 NA
ATOM     14  C   UNL     1       7.402   7.191  17.462  0.00  0.00    +0.000 C 
ENDBRANCH   9  13
ENDBRANCH   1   9
TORSDOF 2
ENDMDL
MODEL 2
REMARK VINA RESULT:      -4.9      1.386      2.032
REMARK  Name = 
REMARK  4 active torsions:
REMARK  status: ('A' for Active; 'I' for Inactive)
REMARK    1  A    between atoms: C_1  and  N_2
REMARK    2  A    between atoms: N_2  and  C_3
REMARK    3  A    between atoms: N_2  and  S_4
REMARK    4  A    between atoms: S_4  and  N_7
REMARK                            x       y       z     vdW  Elec       q    Type
REMARK                         _______ _______ _______ _____ _____    ______ ____
ROOT
ATOM      1  N   UNL     1       7.028   5.155  15.194  0.00  0.00    +0.000 NA
ATOM      2  C   UNL     1       6.454   4.044  14.891  0.00  0.00    +0.000 C 
ATOM      3  N   UNL     1       5.907   3.098  15.688  0.00  0.00    +0.000 N 
ATOM      4  N   UNL     1       6.388   3.663  13.590  0.00  0.00    +0.000 N 
ATOM      5  H   UNL     1       5.741   3.330  16.663  0.00  0.00    +0.000 HD
ATOM      6  H   UNL     1       5.227   2.457  15.305  0.00  0.00    +0.000 HD
ATOM      7  H   UNL     1       6.622   4.400  12.935  0.00  0.00    +0.000 HD
ATOM      8  H   UNL     1       5.605   3.098  13.302  0.00  0.00    +0.000 HD
ENDROOT
BRANCH   1   9
ATOM      9  S   UNL     1       7.194   5.583  16.744  0.00  0.00    +0.000 S 
ATOM     10  O   UNL     1       7.675   6.950  16.801  0.00  0.00    +0.000 OA
ATOM     11  O   UNL     1       7.941   4.546  17.428  0.00  0.00    +0.000 OA
BRANCH   9  13
ATOM     12  C   UNL     1       5.607   5.314  18.874  0.00  0.00    +0.000 C 
ATOM     13  N   UNL     1       5.630   5.605  17.428  0.00  0.00    +0.000 NA
ATOM     14  C   UNL     1       4.808   6.771  17.066  0.00  0.00    +0.000 C 
ENDBRANCH   9  13
ENDBRANCH   1   9
TORSDOF 2
ENDMDL
MODEL 3
REMARK VINA RESULT:      -4.8      1.652      2.072
REMARK  Name = 
REMARK  4 active torsions:
REMARK  status: ('A' for Active; 'I' for Inactive)
REMARK    1  A    between atoms: C_1  and  N_2
REMARK    2  A    between atoms: N_2  and  C_3
REMARK    3  A    between atoms: N_2  and  S_4
REMARK    4  A    between atoms: S_4  and  N_7
REMARK                            x       y       z     vdW  Elec       q    Type
REMARK                         _______ _______ _______ _____ _____    ______ ____
ROOT
ATOM      1  N   UNL     1       5.602   4.426  15.143  0.00  0.00    +0.000 NA
ATOM      2  C   UNL     1       6.483   4.405  14.206  0.00  0.00    +0.000 C 
ATOM      3  N   UNL     1       7.490   5.267  13.934  0.00  0.00    +0.000 N 
ATOM      4  N   UNL     1       6.436   3.422  13.271  0.00  0.00    +0.000 N 
ATOM      5  H   UNL     1       7.740   5.950  14.643  0.00  0.00    +0.000 HD
ATOM      6  H   UNL     1       8.273   4.957  13.379  0.00  0.00    +0.000 HD
ATOM      7  H   UNL     1       5.820   2.656  13.513  0.00  0.00    +0.000 HD
ATOM      8  H   UNL     1       7.303   3.128  12.850  0.00  0.00    +0.000 HD
ENDROOT
BRANCH   1   9
ATOM      9  S   UNL     1       5.588   5.637  16.213  0.00  0.00    +0.000 S 
ATOM     10  O   UNL     1       4.741   5.263  17.329  0.00  0.00    +0.000 OA
ATOM     11  O   UNL     1       5.313   6.872  15.505  0.00  0.00    +0.000 OA
BRANCH   9  13
ATOM     12  C   UNL     1       7.470   7.082  17.436  0.00  0.00    +0.000 C 
ATOM     13  N   UNL     1       7.169   5.765  16.845  0.00  0.00    +0.000 NA
ATOM     14  C   UNL     1       7.591   4.644  17.700  0.00  0.00    +0.000 C 
ENDBRANCH   9  13
ENDBRANCH   1   9
TORSDOF 2
ENDMDL
MODEL 4
REMARK VINA RESULT:      -4.8      2.546      3.128
REMARK  Name = 
REMARK  4 active torsions:
REMARK  status: ('A' for Active; 'I' for Inactive)
REMARK    1  A    between atoms: C_1  and  N_2
REMARK    2  A    between atoms: N_2  and  C_3
REMARK    3  A    between atoms: N_2  and  S_4
REMARK    4  A    between atoms: S_4  and  N_7
REMARK                            x       y       z     vdW  Elec       q    Type
REMARK                         _______ _______ _______ _____ _____    ______ ____
ROOT
ATOM      1  N   UNL     1       5.874   5.306  17.407  0.00  0.00    +0.000 NA
ATOM      2  C   UNL     1       6.996   4.978  16.868  0.00  0.00    +0.000 C 
ATOM      3  N   UNL     1       8.029   4.263  17.368  0.00  0.00    +0.000 N 
ATOM      4  N   UNL     1       7.286   5.420  15.618  0.00  0.00    +0.000 N 
ATOM      5  H   UNL     1       7.878   3.738  18.224  0.00  0.00    +0.000 HD
ATOM      6  H   UNL     1       8.683   3.826  16.737  0.00  0.00    +0.000 HD
ATOM      7  H   UNL     1       6.492   5.810  15.126  0.00  0.00    +0.000 HD
ATOM      8  H   UNL     1       7.879   4.845  15.040  0.00  0.00    +0.000 HD
ENDROOT
BRANCH   1   9
ATOM      9  S   UNL     1       5.548   4.864  18.927  0.00  0.00    +0.000 S 
ATOM     10  O   UNL     1       6.566   5.414  19.801  0.00  0.00    +0.000 OA
ATOM     11  O   UNL     1       5.302   3.435  18.946  0.00  0.00    +0.000 OA
BRANCH   9  13
ATOM     12  C   UNL     1       3.485   6.436  18.291  0.00  0.00    +0.000 C 
ATOM     13  N   UNL     1       4.086   5.627  19.369  0.00  0.00    +0.000 NA
ATOM     14  C   UNL     1       3.109   4.760  20.045  0.00  0.00    +0.000 C 
ENDBRANCH   9  13
ENDBRANCH   1   9
TORSDOF 2
ENDMDL
MODEL 5
REMARK VINA RESULT:      -4.8      1.662      2.112
REMARK  Name = 
REMARK  4 active torsions:
REMARK  status: ('A' for Active; 'I' for Inactive)
REMARK    1  A    between atoms: C_1  and  N_2
REMARK    2  A    between atoms: N_2  and  C_3
REMARK    3  A    between atoms: N_2  and  S_4
REMARK    4  A    between atoms: S_4  and  N_7
REMARK                            x       y       z     vdW  Elec       q    Type
REMARK                         _______ _______ _______ _____ _____    ______ ____
ROOT
ATOM      1  N   UNL     1       6.245   4.000  15.454  0.00  0.00    +0.000 NA
ATOM      2  C   UNL     1       6.703   4.268  14.282  0.00  0.00    +0.000 C 
ATOM      3  N   UNL     1       7.585   5.213  13.884  0.00  0.00    +0.000 N 
ATOM      4  N   UNL     1       6.242   3.570  13.213  0.00  0.00    +0.000 N 
ATOM      5  H   UNL     1       8.128   5.692  14.596  0.00  0.00    +0.000 HD
ATOM      6  H   UNL     1       8.078   5.097  13.011  0.00  0.00    +0.000 HD
ATOM      7  H   UNL     1       5.715   2.742  13.460  0.00  0.00    +0.000 HD
ATOM      8  H   UNL     1       6.864   3.437  12.431  0.00  0.00    +0.000 HD
ENDROOT
BRANCH   1   9
ATOM      9  S   UNL     1       6.716   4.878  16.726  0.00  0.00    +0.000 S 
ATOM     10  O   UNL     1       6.554   6.284  16.407  0.00  0.00    +0.000 OA
ATOM     11  O   UNL     1       8.015   4.401  17.157  0.00  0.00    +0.000 OA
BRANCH   9  13
ATOM     12  C   UNL     1       5.958   5.225  19.263  0.00  0.00    +0.000 C 
ATOM     13  N   UNL     1       5.619   4.554  17.993  0.00  0.00    +0.000 NA
ATOM     14  C   UNL     1       4.198   4.689  17.637  0.00  0.00    +0.000 C 
ENDBRANCH   9  13
ENDBRANCH   1   9
TORSDOF 2
ENDMDL
MODEL 6
REMARK VINA RESULT:      -4.7      4.804      5.694
REMARK  Name = 
REMARK  4 active torsions:
REMARK  status: ('A' for Active; 'I' for Inactive)
REMARK    1  A    between atoms: C_1  and  N_2
REMARK    2  A    between atoms: N_2  and  C_3
REMARK    3  A    between atoms: N_2  and  S_4
REMARK    4  A    between atoms: S_4  and  N_7
REMARK                            x       y       z     vdW  Elec       q    Type
REMARK                         _______ _______ _______ _____ _____    ______ ____
ROOT
ATOM      1  N   UNL     1       3.759   3.843  18.159  0.00  0.00    +0.000 NA
ATOM      2  C   UNL     1       4.833   3.466  18.760  0.00  0.00    +0.000 C 
ATOM      3  N   UNL     1       5.002   2.595  19.782  0.00  0.00    +0.000 N 
ATOM      4  N   UNL     1       6.021   4.017  18.406  0.00  0.00    +0.000 N 
ATOM      5  H   UNL     1       4.224   1.992  20.031  0.00  0.00    +0.000 HD
ATOM      6  H   UNL     1       5.905   2.169  19.927  0.00  0.00    +0.000 HD
ATOM      7  H   UNL     1       5.988   4.542  17.540  0.00  0.00    +0.000 HD
ATOM      8  H   UNL     1       6.852   3.456  18.508  0.00  0.00    +0.000 HD
ENDROOT
BRANCH   1   9
ATOM      9  S   UNL     1       2.325   3.263  18.627  0.00  0.00    +0.000 S 
ATOM     10  O   UNL     1       2.385   1.814  18.625  0.00  0.00    +0.000 OA
ATOM     11  O   UNL     1       1.289   3.923  17.856  0.00  0.00    +0.000 OA
BRANCH   9  13
ATOM     12  C   UNL     1       1.722   5.137  20.430  0.00  0.00    +0.000 C 
ATOM     13  N   UNL     1       2.105   3.723  20.256  0.00  0.00    +0.000 NA
ATOM     14  C   UNL     1       1.281   2.804  21.057  0.00  0.00    +0.000 C 
ENDBRANCH   9  13
ENDBRANCH   1   9
TORSDOF 2
ENDMDL
MODEL 7
REMARK VINA RESULT:      -4.7      2.782      3.701
REMARK  Name = 
REMARK  4 active torsions:
REMARK  status: ('A' for Active; 'I' for Inactive)
REMARK    1  A    between atoms: C_1  and  N_2
REMARK    2  A    between atoms: N_2  and  C_3
REMARK    3  A    between atoms: N_2  and  S_4
REMARK    4  A    between atoms: S_4  and  N_7
REMARK                            x       y       z     vdW  Elec       q    Type
REMARK                         _______ _______ _______ _____ _____    ______ ____
ROOT
ATOM      1  N   UNL     1       5.856   5.828  17.565  0.00  0.00    +0.000 NA
ATOM      2  C   UNL     1       6.929   5.389  17.005  0.00  0.00    +0.000 C 
ATOM      3  N   UNL     1       7.752   4.378  17.365  0.00  0.00    +0.000 N 
ATOM      4  N   UNL     1       7.405   6.017  15.900  0.00  0.00    +0.000 N 
ATOM      5  H   UNL     1       7.427   3.725  18.072  0.00  0.00    +0.000 HD
ATOM      6  H   UNL     1       8.353   3.957  16.673  0.00  0.00    +0.000 HD
ATOM      7  H   UNL     1       6.750   6.666  15.483  0.00  0.00    +0.000 HD
ATOM      8  H   UNL     1       7.915   5.467  15.227  0.00  0.00    +0.000 HD
ENDROOT
BRANCH   1   9
ATOM      9  S   UNL     1       5.322   5.149  18.931  0.00  0.00    +0.000 S 
ATOM     10  O   UNL     1       4.134   5.856  19.369  0.00  0.00    +0.000 OA
ATOM     11  O   UNL     1       6.440   5.019  19.846  0.00  0.00    +0.000 OA
BRANCH   9  13
ATOM     12  C   UNL     1       4.419   2.760  19.709  0.00  0.00    +0.000 C 
ATOM     13  N   UNL     1       4.812   3.568  18.539  0.00  0.00    +0.000 NA
ATOM     14  C   UNL     1       3.845   3.481  17.434  0.00  0.00    +0.000 C 
ENDBRANCH   9  13
ENDBRANCH   1   9
TORSDOF 2
ENDMDL
MODEL 8
REMARK VINA RESULT:      -4.7      2.035      2.413
REMARK  Name = 
REMARK  4 active torsions:
REMARK  status: ('A' for Active; 'I' for Inactive)
REMARK    1  A    between atoms: C_1  and  N_2
REMARK    2  A    between atoms: N_2  and  C_3
REMARK    3  A    between atoms: N_2  and  S_4
REMARK    4  A    between atoms: S_4  and  N_7
REMARK                            x       y       z     vdW  Elec       q    Type
REMARK                         _______ _______ _______ _____ _____    ______ ____
ROOT
ATOM      1  N   UNL     1       6.006   3.968  16.133  0.00  0.00    +0.000 NA
ATOM      2  C   UNL     1       6.629   4.291  15.054  0.00  0.00    +0.000 C 
ATOM      3  N   UNL     1       7.554   5.253  14.835  0.00  0.00    +0.000 N 
ATOM      4  N   UNL     1       6.333   3.645  13.898  0.00  0.00    +0.000 N 
ATOM      5  H   UNL     1       7.984   5.696  15.641  0.00  0.00    +0.000 HD
ATOM      6  H   UNL     1       8.171   5.177  14.040  0.00  0.00    +0.000 HD
ATOM      7  H   UNL     1       5.781   2.807  14.026  0.00  0.00    +0.000 HD
ATOM      8  H   UNL     1       7.064   3.548  13.211  0.00  0.00    +0.000 HD
ENDROOT
BRANCH   1   9
ATOM      9  S   UNL     1       6.280   4.785  17.500  0.00  0.00    +0.000 S 
ATOM     10  O   UNL     1       5.997   6.188  17.269  0.00  0.00    +0.000 OA
ATOM     11  O   UNL     1       7.585   4.406  18.007  0.00  0.00    +0.000 OA
BRANCH   9  13
ATOM     12  C   UNL     1       4.468   5.349  19.378  0.00  0.00    +0.000 C 
ATOM     13  N   UNL     1       5.127   4.254  18.642  0.00  0.00    +0.000 NA
ATOM     14  C   UNL     1       4.178   3.245  18.146  0.00  0.00    +0.000 C 
ENDBRANCH   9  13
ENDBRANCH   1   9
TORSDOF 2
ENDMDL
MODEL 9
REMARK VINA RESULT:      -4.6      1.763      1.906
REMARK  Name = 
REMARK  4 active torsions:
REMARK  status: ('A' for Active; 'I' for Inactive)
REMARK    1  A    between atoms: C_1  and  N_2
REMARK    2  A    between atoms: N_2  and  C_3
REMARK    3  A    between atoms: N_2  and  S_4
REMARK    4  A    between atoms: S_4  and  N_7
REMARK                            x       y       z     vdW  Elec       q    Type
REMARK                         _______ _______ _______ _____ _____    ______ ____
ROOT
ATOM      1  N   UNL     1       6.270   4.118  15.503  0.00  0.00    +0.000 NA
ATOM      2  C   UNL     1       6.742   4.334  14.326  0.00  0.00    +0.000 C 
ATOM      3  N   UNL     1       7.632   5.259  13.897  0.00  0.00    +0.000 N 
ATOM      4  N   UNL     1       6.292   3.591  13.283  0.00  0.00    +0.000 N 
ATOM      5  H   UNL     1       8.168   5.767  14.595  0.00  0.00    +0.000 HD
ATOM      6  H   UNL     1       8.135   5.103  13.037  0.00  0.00    +0.000 HD
ATOM      7  H   UNL     1       5.760   2.775  13.560  0.00  0.00    +0.000 HD
ATOM      8  H   UNL     1       6.924   3.422  12.516  0.00  0.00    +0.000 HD
ENDROOT
BRANCH   1   9
ATOM      9  S   UNL     1       6.728   5.050  16.741  0.00  0.00    +0.000 S 
ATOM     10  O   UNL     1       6.778   6.429  16.293  0.00  0.00    +0.000 OA
ATOM     11  O   UNL     1       7.910   4.465  17.344  0.00  0.00    +0.000 OA
BRANCH   9  13
ATOM     12  C   UNL     1       4.594   3.814  17.763  0.00  0.00    +0.000 C 
ATOM     13  N   UNL     1       5.485   4.980  17.909  0.00  0.00    +0.000 NA
ATOM     14  C   UNL     1       5.922   5.195  19.298  0.00  0.00    +0.000 C 
ENDBRANCH   9  13
ENDBRANCH   1   9
TORSDOF 2
ENDMDL
