MODEL 1
REMARK VINA RESULT:      -8.6      0.000      0.000
REMARK  Name = 
REMARK  11 active torsions:
REMARK  status: ('A' for Active; 'I' for Inactive)
REMARK    1  A    between atoms: C_1  and  N_2
REMARK    2  A    between atoms: C_7  and  C_8
REMARK    3  A    between atoms: C_11  and  C_12
REMARK    4  A    between atoms: C_12  and  C_13
REMARK    5  A    between atoms: C_12  and  C_14
REMARK    6  A    between atoms: C_12  and  O_15
REMARK    7  A    between atoms: N_20  and  C_21
REMARK    8  A    between atoms: C_21  and  C_22
REMARK    9  A    between atoms: C_21  and  C_23
REMARK   10  A    between atoms: C_21  and  C_24
REMARK   11  A    between atoms: C_24  and  O_25
REMARK                            x       y       z     vdW  Elec       q    Type
REMARK                         _______ _______ _______ _____ _____    ______ ____
ROOT
ATOM      1  C   UNL     1       6.379   3.719  15.304  0.00  0.00    +0.000 C 
ATOM      2  N   UNL     1       5.563   4.703  15.983  0.00  0.00    +0.000 N 
ATOM      3  C   UNL     1       5.540   6.004  15.551  0.00  0.00    +0.000 A 
ATOM      4  N   UNL     1       4.831   6.940  16.078  0.00  0.00    +0.000 NA
ATOM      5  C   UNL     1       4.032   6.604  17.179  0.00  0.00    +0.000 A 
ATOM      6  C   UNL     1       3.271   7.615  17.757  0.00  0.00    +0.000 A 
ATOM      7  C   UNL     1       2.475   7.317  18.845  0.00  0.00    +0.000 A 
ATOM      8  N   UNL     1       2.414   6.057  19.349  0.00  0.00    +0.000 NA
ATOM      9  C   UNL     1       3.155   5.060  18.809  0.00  0.00    +0.000 A 
ATOM     10  N   UNL     1       3.134   3.812  19.441  0.00  0.00    +0.000 N 
ATOM     11  C   UNL     1       3.977   5.321  17.723  0.00  0.00    +0.000 A 
ATOM     12  C   UNL     1       4.775   4.280  17.045  0.00  0.00    +0.000 A 
ATOM     13  O   UNL     1       4.706   3.106  17.409  0.00  0.00    +0.000 OA
ATOM     14  H   UNL     1       3.645   3.104  18.900  0.00  0.00    +0.000 HD
ENDROOT
BRANCH   7  15
ATOM     15  C   UNL     1       1.616   8.313  19.505  0.00  0.00    +0.000 A 
ATOM     16  C   UNL     1       1.064   9.395  18.812  0.00  0.00    +0.000 A 
ATOM     17  C   UNL     1       0.346  10.384  19.486  0.00  0.00    +0.000 A 
ATOM     18  C   UNL     1       0.170  10.283  20.865  0.00  0.00    +0.000 A 
ATOM     19  N   UNL     1       0.636   9.211  21.555  0.00  0.00    +0.000 NA
ATOM     20  C   UNL     1       1.331   8.269  20.868  0.00  0.00    +0.000 A 
BRANCH  18  21
ATOM     21  C   UNL     1      -0.459  11.426  21.664  0.00  0.00    +0.000 C 
ATOM     22  C   UNL     1      -1.626  12.080  20.911  0.00  0.00    +0.000 C 
ATOM     23  C   UNL     1      -0.942  10.901  23.019  0.00  0.00    +0.000 C 
BRANCH  21  24
ATOM     24  O   UNL     1       0.506  12.456  21.932  0.00  0.00    +0.000 OA
ATOM     25  H   UNL     1       0.437  12.668  22.878  0.00  0.00    +0.000 HD
ENDBRANCH  21  24
ENDBRANCH  18  21
ENDBRANCH   7  15
BRANCH  10  26
ATOM     26  C   UNL     1       1.939   3.272  20.129  0.00  0.00    +0.000 C 
ATOM     27  C   UNL     1       2.419   2.756  21.507  0.00  0.00    +0.000 C 
ATOM     28  C   UNL     1       0.868   4.353  20.347  0.00  0.00    +0.000 C 
BRANCH  26  29
ATOM     29  C   UNL     1       1.308   2.089  19.344  0.00  0.00    +0.000 C 
BRANCH  29  30
ATOM     30  O   UNL     1       2.059   1.734  18.181  0.00  0.00    +0.000 OA
ATOM     31  H   UNL     1       2.997   1.816  18.424  0.00  0.00    +0.000 HD
ENDBRANCH  29  30
ENDBRANCH  26  29
ENDBRANCH  10  26
TORSDOF 6
ENDMDL
MODEL 2
REMARK VINA RESULT:      -8.2      0.823      1.101
REMARK  Name = 
REMARK  11 active torsions:
REMARK  status: ('A' for Active; 'I' for Inactive)
REMARK    1  A    between atoms: C_1  and  N_2
REMARK    2  A    between atoms: C_7  and  C_8
REMARK    3  A    between atoms: C_11  and  C_12
REMARK    4  A    between atoms: C_12  and  C_13
REMARK    5  A    between atoms: C_12  and  C_14
REMARK    6  A    between atoms: C_12  and  O_15
REMARK    7  A    between atoms: N_20  and  C_21
REMARK    8  A    between atoms: C_21  and  C_22
REMARK    9  A    between atoms: C_21  and  C_23
REMARK   10  A    between atoms: C_21  and  C_24
REMARK   11  A    between atoms: C_24  and  O_25
REMARK                            x       y       z     vdW  Elec       q    Type
REMARK                         _______ _______ _______ _____ _____    ______ ____
ROOT
ATOM      1  C   UNL     1       6.398   3.776  15.207  0.00  0.00    +0.000 C 
ATOM      2  N   UNL     1       5.583   4.764  15.880  0.00  0.00    +0.000 N 
ATOM      3  C   UNL     1       5.560   6.063  15.441  0.00  0.00    +0.000 A 
ATOM      4  N   UNL     1       4.852   7.002  15.963  0.00  0.00    +0.000 NA
ATOM      5  C   UNL     1       4.054   6.673  17.066  0.00  0.00    +0.000 A 
ATOM      6  C   UNL     1       3.294   7.687  17.639  0.00  0.00    +0.000 A 
ATOM      7  C   UNL     1       2.498   7.396  18.729  0.00  0.00    +0.000 A 
ATOM      8  N   UNL     1       2.437   6.139  19.240  0.00  0.00    +0.000 NA
ATOM      9  C   UNL     1       3.177   5.139  18.706  0.00  0.00    +0.000 A 
ATOM     10  N   UNL     1       3.155   3.895  19.344  0.00  0.00    +0.000 N 
ATOM     11  C   UNL     1       3.998   5.393  17.617  0.00  0.00    +0.000 A 
ATOM     12  C   UNL     1       4.795   4.348  16.945  0.00  0.00    +0.000 A 
ATOM     13  O   UNL     1       4.726   3.176  17.316  0.00  0.00    +0.000 OA
ATOM     14  H   UNL     1       3.666   3.182  18.807  0.00  0.00    +0.000 HD
ENDROOT
BRANCH   7  15
ATOM     15  C   UNL     1       1.641   8.396  19.384  0.00  0.00    +0.000 A 
ATOM     16  C   UNL     1       1.026   9.431  18.670  0.00  0.00    +0.000 A 
ATOM     17  C   UNL     1       0.309  10.429  19.333  0.00  0.00    +0.000 A 
ATOM     18  C   UNL     1       0.199  10.384  20.721  0.00  0.00    +0.000 A 
ATOM     19  N   UNL     1       0.727   9.358  21.436  0.00  0.00    +0.000 NA
ATOM     20  C   UNL     1       1.418   8.405  20.759  0.00  0.00    +0.000 A 
BRANCH  18  21
ATOM     21  C   UNL     1      -0.429  11.545  21.497  0.00  0.00    +0.000 C 
ATOM     22  C   UNL     1      -1.529  12.248  20.692  0.00  0.00    +0.000 C 
ATOM     23  C   UNL     1      -1.001  11.028  22.821  0.00  0.00    +0.000 C 
BRANCH  21  24
ATOM     24  O   UNL     1       0.559  12.535  21.826  0.00  0.00    +0.000 OA
ATOM     25  H   UNL     1       1.364  12.056  22.083  0.00  0.00    +0.000 HD
ENDBRANCH  21  24
ENDBRANCH  18  21
ENDBRANCH   7  15
BRANCH  10  26
ATOM     26  C   UNL     1       1.961   3.359  20.036  0.00  0.00    +0.000 C 
ATOM     27  C   UNL     1       1.161   4.583  20.546  0.00  0.00    +0.000 C 
ATOM     28  C   UNL     1       1.069   2.542  19.088  0.00  0.00    +0.000 C 
BRANCH  26  29
ATOM     29  C   UNL     1       2.348   2.473  21.252  0.00  0.00    +0.000 C 
BRANCH  29  30
ATOM     30  O   UNL     1       1.341   2.451  22.264  0.00  0.00    +0.000 OA
ATOM     31  H   UNL     1       0.829   3.271  22.160  0.00  0.00    +0.000 HD
ENDBRANCH  29  30
ENDBRANCH  26  29
ENDBRANCH  10  26
TORSDOF 6
ENDMDL
MODEL 3
REMARK VINA RESULT:      -8.0      0.844      1.243
REMARK  Name = 
REMARK  11 active torsions:
REMARK  status: ('A' for Active; 'I' for Inactive)
REMARK    1  A    between atoms: C_1  and  N_2
REMARK    2  A    between atoms: C_7  and  C_8
REMARK    3  A    between atoms: C_11  and  C_12
REMARK    4  A    between atoms: C_12  and  C_13
REMARK    5  A    between atoms: C_12  and  C_14
REMARK    6  A    between atoms: C_12  and  O_15
REMARK    7  A    between atoms: N_20  and  C_21
REMARK    8  A    between atoms: C_21  and  C_22
REMARK    9  A    between atoms: C_21  and  C_23
REMARK   10  A    between atoms: C_21  and  C_24
REMARK   11  A    between atoms: C_24  and  O_25
REMARK                            x       y       z     vdW  Elec       q    Type
REMARK                         _______ _______ _______ _____ _____    ______ ____
ROOT
ATOM      1  C   UNL     1       6.095   3.574  15.208  0.00  0.00    +0.000 C 
ATOM      2  N   UNL     1       5.385   4.611  15.924  0.00  0.00    +0.000 N 
ATOM      3  C   UNL     1       5.482   5.921  15.528  0.00  0.00    +0.000 A 
ATOM      4  N   UNL     1       4.871   6.905  16.090  0.00  0.00    +0.000 NA
ATOM      5  C   UNL     1       4.057   6.616  17.192  0.00  0.00    +0.000 A 
ATOM      6  C   UNL     1       3.402   7.677  17.807  0.00  0.00    +0.000 A 
ATOM      7  C   UNL     1       2.594   7.427  18.898  0.00  0.00    +0.000 A 
ATOM      8  N   UNL     1       2.418   6.164  19.369  0.00  0.00    +0.000 NA
ATOM      9  C   UNL     1       3.054   5.117  18.792  0.00  0.00    +0.000 A 
ATOM     10  N   UNL     1       2.921   3.860  19.390  0.00  0.00    +0.000 N 
ATOM     11  C   UNL     1       3.885   5.328  17.701  0.00  0.00    +0.000 A 
ATOM     12  C   UNL     1       4.572   4.236  16.986  0.00  0.00    +0.000 A 
ATOM     13  O   UNL     1       4.395   3.064  17.319  0.00  0.00    +0.000 OA
ATOM     14  H   UNL     1       3.356   3.121  18.823  0.00  0.00    +0.000 HD
ENDROOT
BRANCH   7  15
ATOM     15  C   UNL     1       1.842   8.481  19.596  0.00  0.00    +0.000 A 
ATOM     16  C   UNL     1       1.376   8.320  20.906  0.00  0.00    +0.000 A 
ATOM     17  C   UNL     1       0.570   9.292  21.502  0.00  0.00    +0.000 A 
ATOM     18  C   UNL     1       0.237  10.439  20.785  0.00  0.00    +0.000 A 
ATOM     19  N   UNL     1       0.728  10.655  19.538  0.00  0.00    +0.000 NA
ATOM     20  C   UNL     1       1.507   9.689  18.988  0.00  0.00    +0.000 A 
BRANCH  18  21
ATOM     21  C   UNL     1      -0.778  11.443  21.335  0.00  0.00    +0.000 C 
ATOM     22  C   UNL     1      -0.111  12.751  21.779  0.00  0.00    +0.000 C 
ATOM     23  C   UNL     1      -1.841  11.735  20.271  0.00  0.00    +0.000 C 
BRANCH  21  24
ATOM     24  O   UNL     1      -1.464  10.904  22.477  0.00  0.00    +0.000 OA
ATOM     25  H   UNL     1      -2.280  10.493  22.147  0.00  0.00    +0.000 HD
ENDBRANCH  21  24
ENDBRANCH  18  21
ENDBRANCH   7  15
BRANCH  10  26
ATOM     26  C   UNL     1       1.688   3.417  20.080  0.00  0.00    +0.000 C 
ATOM     27  C   UNL     1       2.136   2.755  21.405  0.00  0.00    +0.000 C 
ATOM     28  C   UNL     1       0.758   4.598  20.402  0.00  0.00    +0.000 C 
BRANCH  26  29
ATOM     29  C   UNL     1       0.902   2.372  19.240  0.00  0.00    +0.000 C 
BRANCH  29  30
ATOM     30  O   UNL     1       1.733   1.664  18.320  0.00  0.00    +0.000 OA
ATOM     31  H   UNL     1       2.650   1.811  18.608  0.00  0.00    +0.000 HD
ENDBRANCH  29  30
ENDBRANCH  26  29
ENDBRANCH  10  26
TORSDOF 6
ENDMDL
MODEL 4
REMARK VINA RESULT:      -7.7      3.249      9.124
REMARK  Name = 
REMARK  11 active torsions:
REMARK  status: ('A' for Active; 'I' for Inactive)
REMARK    1  A    between atoms: C_1  and  N_2
REMARK    2  A    between atoms: C_7  and  C_8
REMARK    3  A    between atoms: C_11  and  C_12
REMARK    4  A    between atoms: C_12  and  C_13
REMARK    5  A    between atoms: C_12  and  C_14
REMARK    6  A    between atoms: C_12  and  O_15
REMARK    7  A    between atoms: N_20  and  C_21
REMARK    8  A    between atoms: C_21  and  C_22
REMARK    9  A    between atoms: C_21  and  C_23
REMARK   10  A    between atoms: C_21  and  C_24
REMARK   11  A    between atoms: C_24  and  O_25
REMARK                            x       y       z     vdW  Elec       q    Type
REMARK                         _______ _______ _______ _____ _____    ______ ____
ROOT
ATOM      1  C   UNL     1      -3.739  14.668  22.846  0.00  0.00    +0.000 C 
ATOM      2  N   UNL     1      -2.776  13.690  22.388  0.00  0.00    +0.000 N 
ATOM      3  C   UNL     1      -1.776  13.256  23.221  0.00  0.00    +0.000 A 
ATOM      4  N   UNL     1      -0.891  12.376  22.908  0.00  0.00    +0.000 NA
ATOM      5  C   UNL     1      -0.948  11.831  21.619  0.00  0.00    +0.000 A 
ATOM      6  C   UNL     1       0.012  10.886  21.274  0.00  0.00    +0.000 A 
ATOM      7  C   UNL     1      -0.015  10.331  20.010  0.00  0.00    +0.000 A 
ATOM      8  N   UNL     1      -0.969  10.682  19.108  0.00  0.00    +0.000 NA
ATOM      9  C   UNL     1      -1.907  11.608  19.419  0.00  0.00    +0.000 A 
ATOM     10  N   UNL     1      -2.792  12.007  18.412  0.00  0.00    +0.000 N 
ATOM     11  C   UNL     1      -1.906  12.198  20.674  0.00  0.00    +0.000 A 
ATOM     12  C   UNL     1      -2.924  13.175  21.108  0.00  0.00    +0.000 A 
ATOM     13  O   UNL     1      -3.854  13.479  20.361  0.00  0.00    +0.000 OA
ATOM     14  H   UNL     1      -3.522  12.633  18.773  0.00  0.00    +0.000 HD
ENDROOT
BRANCH   7  15
ATOM     15  C   UNL     1       0.942   9.307  19.565  0.00  0.00    +0.000 A 
ATOM     16  C   UNL     1       1.411   9.249  18.248  0.00  0.00    +0.000 A 
ATOM     17  C   UNL     1       2.231   8.200  17.827  0.00  0.00    +0.000 A 
ATOM     18  C   UNL     1       2.592   7.207  18.735  0.00  0.00    +0.000 A 
ATOM     19  N   UNL     1       2.209   7.271  20.036  0.00  0.00    +0.000 NA
ATOM     20  C   UNL     1       1.411   8.304  20.411  0.00  0.00    +0.000 A 
BRANCH  18  21
ATOM     21  C   UNL     1       3.344   5.956  18.275  0.00  0.00    +0.000 C 
ATOM     22  C   UNL     1       2.388   4.843  17.825  0.00  0.00    +0.000 C 
ATOM     23  C   UNL     1       4.295   6.320  17.130  0.00  0.00    +0.000 C 
BRANCH  21  24
ATOM     24  O   UNL     1       4.151   5.423  19.337  0.00  0.00    +0.000 OA
ATOM     25  H   UNL     1       4.375   4.510  19.090  0.00  0.00    +0.000 HD
ENDBRANCH  21  24
ENDBRANCH  18  21
ENDBRANCH   7  15
BRANCH  10  26
ATOM     26  C   UNL     1      -3.277  11.095  17.351  0.00  0.00    +0.000 C 
ATOM     27  C   UNL     1      -3.374   9.688  17.989  0.00  0.00    +0.000 C 
ATOM     28  C   UNL     1      -4.665  11.506  16.835  0.00  0.00    +0.000 C 
BRANCH  26  29
ATOM     29  C   UNL     1      -2.292  11.033  16.151  0.00  0.00    +0.000 C 
BRANCH  29  30
ATOM     30  O   UNL     1      -2.851  10.380  15.010  0.00  0.00    +0.000 OA
ATOM     31  H   UNL     1      -3.740  10.085  15.270  0.00  0.00    +0.000 HD
ENDBRANCH  29  30
ENDBRANCH  26  29
ENDBRANCH  10  26
TORSDOF 6
ENDMDL
MODEL 5
REMARK VINA RESULT:      -7.7      1.177      1.483
REMARK  Name = 
REMARK  11 active torsions:
REMARK  status: ('A' for Active; 'I' for Inactive)
REMARK    1  A    between atoms: C_1  and  N_2
REMARK    2  A    between atoms: C_7  and  C_8
REMARK    3  A    between atoms: C_11  and  C_12
REMARK    4  A    between atoms: C_12  and  C_13
REMARK    5  A    between atoms: C_12  and  C_14
REMARK    6  A    between atoms: C_12  and  O_15
REMARK    7  A    between atoms: N_20  and  C_21
REMARK    8  A    between atoms: C_21  and  C_22
REMARK    9  A    between atoms: C_21  and  C_23
REMARK   10  A    between atoms: C_21  and  C_24
REMARK   11  A    between atoms: C_24  and  O_25
REMARK                            x       y       z     vdW  Elec       q    Type
REMARK                         _______ _______ _______ _____ _____    ______ ____
ROOT
ATOM      1  C   UNL     1       6.291   3.601  15.119  0.00  0.00    +0.000 C 
ATOM      2  N   UNL     1       5.552   4.661  15.772  0.00  0.00    +0.000 N 
ATOM      3  C   UNL     1       5.643   5.952  15.320  0.00  0.00    +0.000 A 
ATOM      4  N   UNL     1       5.008   6.952  15.824  0.00  0.00    +0.000 NA
ATOM      5  C   UNL     1       4.171   6.702  16.919  0.00  0.00    +0.000 A 
ATOM      6  C   UNL     1       3.490   7.781  17.471  0.00  0.00    +0.000 A 
ATOM      7  C   UNL     1       2.659   7.569  18.553  0.00  0.00    +0.000 A 
ATOM      8  N   UNL     1       2.487   6.326  19.075  0.00  0.00    +0.000 NA
ATOM      9  C   UNL     1       3.148   5.263  18.560  0.00  0.00    +0.000 A 
ATOM     10  N   UNL     1       3.015   4.031  19.210  0.00  0.00    +0.000 N 
ATOM     11  C   UNL     1       4.002   5.436  17.481  0.00  0.00    +0.000 A 
ATOM     12  C   UNL     1       4.718   4.322  16.830  0.00  0.00    +0.000 A 
ATOM     13  O   UNL     1       4.548   3.164  17.211  0.00  0.00    +0.000 OA
ATOM     14  H   UNL     1       3.472   3.274  18.686  0.00  0.00    +0.000 HD
ENDROOT
BRANCH   7  15
ATOM     15  C   UNL     1       1.879   8.643  19.186  0.00  0.00    +0.000 A 
ATOM     16  C   UNL     1       1.322   8.505  20.462  0.00  0.00    +0.000 A 
ATOM     17  C   UNL     1       0.494   9.497  20.991  0.00  0.00    +0.000 A 
ATOM     18  C   UNL     1       0.229  10.640  20.240  0.00  0.00    +0.000 A 
ATOM     19  N   UNL     1       0.808  10.834  19.027  0.00  0.00    +0.000 NA
ATOM     20  C   UNL     1       1.607   9.849  18.543  0.00  0.00    +0.000 A 
BRANCH  18  21
ATOM     21  C   UNL     1      -0.805  11.667  20.708  0.00  0.00    +0.000 C 
ATOM     22  C   UNL     1      -2.011  11.741  19.762  0.00  0.00    +0.000 C 
ATOM     23  C   UNL     1      -1.273  11.316  22.124  0.00  0.00    +0.000 C 
BRANCH  21  24
ATOM     24  O   UNL     1      -0.229  12.982  20.770  0.00  0.00    +0.000 OA
ATOM     25  H   UNL     1      -0.962  13.615  20.685  0.00  0.00    +0.000 HD
ENDBRANCH  21  24
ENDBRANCH  18  21
ENDBRANCH   7  15
BRANCH  10  26
ATOM     26  C   UNL     1       1.772   3.604  19.890  0.00  0.00    +0.000 C 
ATOM     27  C   UNL     1       1.286   4.814  20.723  0.00  0.00    +0.000 C 
ATOM     28  C   UNL     1       0.674   3.219  18.885  0.00  0.00    +0.000 C 
BRANCH  26  29
ATOM     29  C   UNL     1       2.021   2.405  20.846  0.00  0.00    +0.000 C 
BRANCH  29  30
ATOM     30  O   UNL     1       1.714   2.711  22.207  0.00  0.00    +0.000 OA
ATOM     31  H   UNL     1       2.055   3.606  22.372  0.00  0.00    +0.000 HD
ENDBRANCH  29  30
ENDBRANCH  26  29
ENDBRANCH  10  26
TORSDOF 6
ENDMDL
MODEL 6
REMARK VINA RESULT:      -7.7      1.119      1.533
REMARK  Name = 
REMARK  11 active torsions:
REMARK  status: ('A' for Active; 'I' for Inactive)
REMARK    1  A    between atoms: C_1  and  N_2
REMARK    2  A    between atoms: C_7  and  C_8
REMARK    3  A    between atoms: C_11  and  C_12
REMARK    4  A    between atoms: C_12  and  C_13
REMARK    5  A    between atoms: C_12  and  C_14
REMARK    6  A    between atoms: C_12  and  O_15
REMARK    7  A    between atoms: N_20  and  C_21
REMARK    8  A    between atoms: C_21  and  C_22
REMARK    9  A    between atoms: C_21  and  C_23
REMARK   10  A    between atoms: C_21  and  C_24
REMARK   11  A    between atoms: C_24  and  O_25
REMARK                            x       y       z     vdW  Elec       q    Type
REMARK                         _______ _______ _______ _____ _____    ______ ____
ROOT
ATOM      1  C   UNL     1       6.672   3.907  15.169  0.00  0.00    +0.000 C 
ATOM      2  N   UNL     1       5.815   4.867  15.830  0.00  0.00    +0.000 N 
ATOM      3  C   UNL     1       5.768   6.169  15.401  0.00  0.00    +0.000 A 
ATOM      4  N   UNL     1       5.022   7.084  15.914  0.00  0.00    +0.000 NA
ATOM      5  C   UNL     1       4.207   6.723  16.994  0.00  0.00    +0.000 A 
ATOM      6  C   UNL     1       3.406   7.712  17.557  0.00  0.00    +0.000 A 
ATOM      7  C   UNL     1       2.593   7.390  18.625  0.00  0.00    +0.000 A 
ATOM      8  N   UNL     1       2.553   6.126  19.124  0.00  0.00    +0.000 NA
ATOM      9  C   UNL     1       3.333   5.152  18.600  0.00  0.00    +0.000 A 
ATOM     10  N   UNL     1       3.330   3.902  19.227  0.00  0.00    +0.000 N 
ATOM     11  C   UNL     1       4.173   5.437  17.533  0.00  0.00    +0.000 A 
ATOM     12  C   UNL     1       5.014   4.420  16.873  0.00  0.00    +0.000 A 
ATOM     13  O   UNL     1       4.968   3.244  17.232  0.00  0.00    +0.000 OA
ATOM     14  H   UNL     1       3.872   3.208  18.697  0.00  0.00    +0.000 HD
ENDROOT
BRANCH   7  15
ATOM     15  C   UNL     1       1.692   8.360  19.267  0.00  0.00    +0.000 A 
ATOM     16  C   UNL     1       1.110   9.416  18.558  0.00  0.00    +0.000 A 
ATOM     17  C   UNL     1       0.350  10.385  19.216  0.00  0.00    +0.000 A 
ATOM     18  C   UNL     1       0.164  10.290  20.593  0.00  0.00    +0.000 A 
ATOM     19  N   UNL     1       0.660   9.242  21.298  0.00  0.00    +0.000 NA
ATOM     20  C   UNL     1       1.395   8.319  20.627  0.00  0.00    +0.000 A 
BRANCH  18  21
ATOM     21  C   UNL     1      -0.514  11.418  21.375  0.00  0.00    +0.000 C 
ATOM     22  C   UNL     1      -0.854  10.999  22.811  0.00  0.00    +0.000 C 
ATOM     23  C   UNL     1       0.396  12.650  21.392  0.00  0.00    +0.000 C 
BRANCH  21  24
ATOM     24  O   UNL     1      -1.743  11.812  20.743  0.00  0.00    +0.000 OA
ATOM     25  H   UNL     1      -2.252  11.000  20.585  0.00  0.00    +0.000 HD
ENDBRANCH  21  24
ENDBRANCH  18  21
ENDBRANCH   7  15
BRANCH  10  26
ATOM     26  C   UNL     1       2.134   3.328  19.886  0.00  0.00    +0.000 C 
ATOM     27  C   UNL     1       0.920   3.707  19.003  0.00  0.00    +0.000 C 
ATOM     28  C   UNL     1       2.217   1.797  19.989  0.00  0.00    +0.000 C 
BRANCH  26  29
ATOM     29  C   UNL     1       1.921   3.918  21.307  0.00  0.00    +0.000 C 
BRANCH  29  30
ATOM     30  O   UNL     1       2.098   2.947  22.341  0.00  0.00    +0.000 OA
ATOM     31  H   UNL     1       1.652   2.138  22.037  0.00  0.00    +0.000 HD
ENDBRANCH  29  30
ENDBRANCH  26  29
ENDBRANCH  10  26
TORSDOF 6
ENDMDL
MODEL 7
REMARK VINA RESULT:      -7.7      3.399      9.361
REMARK  Name = 
REMARK  11 active torsions:
REMARK  status: ('A' for Active; 'I' for Inactive)
REMARK    1  A    between atoms: C_1  and  N_2
REMARK    2  A    between atoms: C_7  and  C_8
REMARK    3  A    between atoms: C_11  and  C_12
REMARK    4  A    between atoms: C_12  and  C_13
REMARK    5  A    between atoms: C_12  and  C_14
REMARK    6  A    between atoms: C_12  and  O_15
REMARK    7  A    between atoms: N_20  and  C_21
REMARK    8  A    between atoms: C_21  and  C_22
REMARK    9  A    between atoms: C_21  and  C_23
REMARK   10  A    between atoms: C_21  and  C_24
REMARK   11  A    between atoms: C_24  and  O_25
REMARK                            x       y       z     vdW  Elec       q    Type
REMARK                         _______ _______ _______ _____ _____    ______ ____
ROOT
ATOM      1  C   UNL     1      -4.191  14.885  22.544  0.00  0.00    +0.000 C 
ATOM      2  N   UNL     1      -3.185  13.922  22.153  0.00  0.00    +0.000 N 
ATOM      3  C   UNL     1      -2.181  13.574  23.020  0.00  0.00    +0.000 A 
ATOM      4  N   UNL     1      -1.258  12.714  22.766  0.00  0.00    +0.000 NA
ATOM      5  C   UNL     1      -1.277  12.096  21.509  0.00  0.00    +0.000 A 
ATOM      6  C   UNL     1      -0.276  11.173  21.228  0.00  0.00    +0.000 A 
ATOM      7  C   UNL     1      -0.264  10.548  19.997  0.00  0.00    +0.000 A 
ATOM      8  N   UNL     1      -1.219  10.811  19.066  0.00  0.00    +0.000 NA
ATOM      9  C   UNL     1      -2.196  11.715  19.314  0.00  0.00    +0.000 A 
ATOM     10  N   UNL     1      -3.081  12.023  18.276  0.00  0.00    +0.000 N 
ATOM     11  C   UNL     1      -2.235  12.373  20.534  0.00  0.00    +0.000 A 
ATOM     12  C   UNL     1      -3.296  13.332  20.901  0.00  0.00    +0.000 A 
ATOM     13  O   UNL     1      -4.227  13.557  20.128  0.00  0.00    +0.000 OA
ATOM     14  H   UNL     1      -3.840  12.639  18.594  0.00  0.00    +0.000 HD
ENDROOT
BRANCH   7  15
ATOM     15  C   UNL     1       0.738   9.539  19.621  0.00  0.00    +0.000 A 
ATOM     16  C   UNL     1       1.262   9.458  18.326  0.00  0.00    +0.000 A 
ATOM     17  C   UNL     1       2.126   8.422  17.969  0.00  0.00    +0.000 A 
ATOM     18  C   UNL     1       2.477   7.465  18.919  0.00  0.00    +0.000 A 
ATOM     19  N   UNL     1       2.038   7.554  20.201  0.00  0.00    +0.000 NA
ATOM     20  C   UNL     1       1.198   8.574  20.513  0.00  0.00    +0.000 A 
BRANCH  18  21
ATOM     21  C   UNL     1       3.280   6.223  18.526  0.00  0.00    +0.000 C 
ATOM     22  C   UNL     1       2.379   5.096  18.005  0.00  0.00    +0.000 C 
ATOM     23  C   UNL     1       4.315   6.597  17.460  0.00  0.00    +0.000 C 
BRANCH  21  24
ATOM     24  O   UNL     1       4.006   5.704  19.652  0.00  0.00    +0.000 OA
ATOM     25  H   UNL     1       3.349   5.341  20.267  0.00  0.00    +0.000 HD
ENDBRANCH  21  24
ENDBRANCH  18  21
ENDBRANCH   7  15
BRANCH  10  26
ATOM     26  C   UNL     1      -3.516  11.036  17.262  0.00  0.00    +0.000 C 
ATOM     27  C   UNL     1      -2.555  11.187  16.058  0.00  0.00    +0.000 C 
ATOM     28  C   UNL     1      -3.429   9.596  17.791  0.00  0.00    +0.000 C 
BRANCH  26  29
ATOM     29  C   UNL     1      -4.968  11.307  16.780  0.00  0.00    +0.000 C 
BRANCH  29  30
ATOM     30  O   UNL     1      -5.778  11.922  17.783  0.00  0.00    +0.000 OA
ATOM     31  H   UNL     1      -5.461  11.584  18.638  0.00  0.00    +0.000 HD
ENDBRANCH  29  30
ENDBRANCH  26  29
ENDBRANCH  10  26
TORSDOF 6
ENDMDL
MODEL 8
REMARK VINA RESULT:      -7.5      1.028      1.440
REMARK  Name = 
REMARK  11 active torsions:
REMARK  status: ('A' for Active; 'I' for Inactive)
REMARK    1  A    between atoms: C_1  and  N_2
REMARK    2  A    between atoms: C_7  and  C_8
REMARK    3  A    between atoms: C_11  and  C_12
REMARK    4  A    between atoms: C_12  and  C_13
REMARK    5  A    between atoms: C_12  and  C_14
REMARK    6  A    between atoms: C_12  and  O_15
REMARK    7  A    between atoms: N_20  and  C_21
REMARK    8  A    between atoms: C_21  and  C_22
REMARK    9  A    between atoms: C_21  and  C_23
REMARK   10  A    between atoms: C_21  and  C_24
REMARK   11  A    between atoms: C_24  and  O_25
REMARK                            x       y       z     vdW  Elec       q    Type
REMARK                         _______ _______ _______ _____ _____    ______ ____
ROOT
ATOM      1  C   UNL     1       6.222   3.652  14.726  0.00  0.00    +0.000 C 
ATOM      2  N   UNL     1       5.523   4.626  15.537  0.00  0.00    +0.000 N 
ATOM      3  C   UNL     1       5.535   5.954  15.193  0.00  0.00    +0.000 A 
ATOM      4  N   UNL     1       4.927   6.885  15.841  0.00  0.00    +0.000 NA
ATOM      5  C   UNL     1       4.208   6.514  16.984  0.00  0.00    +0.000 A 
ATOM      6  C   UNL     1       3.556   7.518  17.692  0.00  0.00    +0.000 A 
ATOM      7  C   UNL     1       2.841   7.186  18.825  0.00  0.00    +0.000 A 
ATOM      8  N   UNL     1       2.753   5.898  19.249  0.00  0.00    +0.000 NA
ATOM      9  C   UNL     1       3.389   4.906  18.583  0.00  0.00    +0.000 A 
ATOM     10  N   UNL     1       3.352   3.620  19.132  0.00  0.00    +0.000 N 
ATOM     11  C   UNL     1       4.128   5.200  17.446  0.00  0.00    +0.000 A 
ATOM     12  C   UNL     1       4.806   4.171  16.635  0.00  0.00    +0.000 A 
ATOM     13  O   UNL     1       4.704   2.979  16.927  0.00  0.00    +0.000 OA
ATOM     14  H   UNL     1       3.776   2.926  18.503  0.00  0.00    +0.000 HD
ENDROOT
BRANCH   7  15
ATOM     15  C   UNL     1       2.098   8.175  19.621  0.00  0.00    +0.000 A 
ATOM     16  C   UNL     1       1.664   7.907  20.924  0.00  0.00    +0.000 A 
ATOM     17  C   UNL     1       0.866   8.822  21.613  0.00  0.00    +0.000 A 
ATOM     18  C   UNL     1       0.509  10.019  20.997  0.00  0.00    +0.000 A 
ATOM     19  N   UNL     1       0.969  10.338  19.761  0.00  0.00    +0.000 NA
ATOM     20  C   UNL     1       1.742   9.425  19.118  0.00  0.00    +0.000 A 
BRANCH  18  21
ATOM     21  C   UNL     1      -0.501  10.968  21.649  0.00  0.00    +0.000 C 
ATOM     22  C   UNL     1      -1.655  11.318  20.701  0.00  0.00    +0.000 C 
ATOM     23  C   UNL     1      -1.052  10.332  22.928  0.00  0.00    +0.000 C 
BRANCH  21  24
ATOM     24  O   UNL     1       0.129  12.202  22.030  0.00  0.00    +0.000 OA
ATOM     25  H   UNL     1       0.107  12.782  21.251  0.00  0.00    +0.000 HD
ENDBRANCH  21  24
ENDBRANCH  18  21
ENDBRANCH   7  15
BRANCH  10  26
ATOM     26  C   UNL     1       2.193   3.094  19.887  0.00  0.00    +0.000 C 
ATOM     27  C   UNL     1       2.056   1.601  19.502  0.00  0.00    +0.000 C 
ATOM     28  C   UNL     1       2.404   3.200  21.406  0.00  0.00    +0.000 C 
BRANCH  26  29
ATOM     29  C   UNL     1       0.878   3.830  19.509  0.00  0.00    +0.000 C 
BRANCH  29  30
ATOM     30  O   UNL     1       0.361   4.624  20.578  0.00  0.00    +0.000 OA
ATOM     31  H   UNL     1       0.141   4.007  21.297  0.00  0.00    +0.000 HD
ENDBRANCH  29  30
ENDBRANCH  26  29
ENDBRANCH  10  26
TORSDOF 6
ENDMDL
MODEL 9
REMARK VINA RESULT:      -7.4      3.092      9.217
REMARK  Name = 
REMARK  11 active torsions:
REMARK  status: ('A' for Active; 'I' for Inactive)
REMARK    1  A    between atoms: C_1  and  N_2
REMARK    2  A    between atoms: C_7  and  C_8
REMARK    3  A    between atoms: C_11  and  C_12
REMARK    4  A    between atoms: C_12  and  C_13
REMARK    5  A    between atoms: C_12  and  C_14
REMARK    6  A    between atoms: C_12  and  O_15
REMARK    7  A    between atoms: N_20  and  C_21
REMARK    8  A    between atoms: C_21  and  C_22
REMARK    9  A    between atoms: C_21  and  C_23
REMARK   10  A    between atoms: C_21  and  C_24
REMARK   11  A    between atoms: C_24  and  O_25
REMARK                            x       y       z     vdW  Elec       q    Type
REMARK                         _______ _______ _______ _____ _____    ______ ____
ROOT
ATOM      1  C   UNL     1      -3.273  14.646  22.913  0.00  0.00    +0.000 C 
ATOM      2  N   UNL     1      -2.387  13.614  22.421  0.00  0.00    +0.000 N 
ATOM      3  C   UNL     1      -1.385  13.120  23.217  0.00  0.00    +0.000 A 
ATOM      4  N   UNL     1      -0.565  12.190  22.873  0.00  0.00    +0.000 NA
ATOM      5  C   UNL     1      -0.702  11.650  21.588  0.00  0.00    +0.000 A 
ATOM      6  C   UNL     1       0.188  10.651  21.208  0.00  0.00    +0.000 A 
ATOM      7  C   UNL     1       0.081  10.099  19.947  0.00  0.00    +0.000 A 
ATOM      8  N   UNL     1      -0.884  10.506  19.080  0.00  0.00    +0.000 NA
ATOM      9  C   UNL     1      -1.753  11.486  19.424  0.00  0.00    +0.000 A 
ATOM     10  N   UNL     1      -2.650  11.937  18.450  0.00  0.00    +0.000 N 
ATOM     11  C   UNL     1      -1.671  12.074  20.678  0.00  0.00    +0.000 A 
ATOM     12  C   UNL     1      -2.613  13.109  21.147  0.00  0.00    +0.000 A 
ATOM     13  O   UNL     1      -3.551  13.467  20.436  0.00  0.00    +0.000 OA
ATOM     14  H   UNL     1      -3.328  12.605  18.838  0.00  0.00    +0.000 HD
ENDROOT
BRANCH   7  15
ATOM     15  C   UNL     1       0.959   9.020  19.468  0.00  0.00    +0.000 A 
ATOM     16  C   UNL     1       1.345   7.956  20.289  0.00  0.00    +0.000 A 
ATOM     17  C   UNL     1       2.267   7.008  19.843  0.00  0.00    +0.000 A 
ATOM     18  C   UNL     1       2.798   7.120  18.560  0.00  0.00    +0.000 A 
ATOM     19  N   UNL     1       2.392   8.103  17.715  0.00  0.00    +0.000 NA
ATOM     20  C   UNL     1       1.496   9.008  18.182  0.00  0.00    +0.000 A 
BRANCH  18  21
ATOM     21  C   UNL     1       3.934   6.205  18.095  0.00  0.00    +0.000 C 
ATOM     22  C   UNL     1       4.948   6.949  17.216  0.00  0.00    +0.000 C 
ATOM     23  C   UNL     1       4.641   5.605  19.314  0.00  0.00    +0.000 C 
BRANCH  21  24
ATOM     24  O   UNL     1       3.423   5.107  17.323  0.00  0.00    +0.000 OA
ATOM     25  H   UNL     1       3.807   4.297  17.697  0.00  0.00    +0.000 HD
ENDBRANCH  21  24
ENDBRANCH  18  21
ENDBRANCH   7  15
BRANCH  10  26
ATOM     26  C   UNL     1      -3.227  11.056  17.409  0.00  0.00    +0.000 C 
ATOM     27  C   UNL     1      -2.323  11.198  16.161  0.00  0.00    +0.000 C 
ATOM     28  C   UNL     1      -3.241   9.584  17.850  0.00  0.00    +0.000 C 
BRANCH  26  29
ATOM     29  C   UNL     1      -4.673  11.483  17.032  0.00  0.00    +0.000 C 
BRANCH  29  30
ATOM     30  O   UNL     1      -5.186  12.510  17.881  0.00  0.00    +0.000 OA
ATOM     31  H   UNL     1      -5.543  12.064  18.667  0.00  0.00    +0.000 HD
ENDBRANCH  29  30
ENDBRANCH  26  29
ENDBRANCH  10  26
TORSDOF 6
ENDMDL
