MODEL 1
REMARK VINA RESULT:      -7.1      0.000      0.000
REMARK  Name = 
REMARK  12 active torsions:
REMARK  status: ('A' for Active; 'I' for Inactive)
REMARK    1  A    between atoms: C_1  and  C_2
REMARK    2  A    between atoms: C_2  and  N_3
REMARK    3  A    between atoms: N_3  and  C_4
REMARK    4  A    between atoms: N_3  and  C_6
REMARK    5  A    between atoms: C_4  and  C_5
REMARK    6  A    between atoms: C_6  and  C_7
REMARK    7  A    between atoms: C_7  and  N_8
REMARK    8  A    between atoms: C_9  and  C_11
REMARK    9  A    between atoms: C_14  and  S_15
REMARK   10  A    between atoms: S_15  and  N_18
REMARK   11  A    between atoms: C_22  and  S_23
REMARK   12  A    between atoms: S_23  and  N_24
REMARK                            x       y       z     vdW  Elec       q    Type
REMARK                         _______ _______ _______ _____ _____    ______ ____
ROOT
ATOM      1  C   UNL     1       2.345   7.285  18.991  0.00  0.00    +0.000 A 
ATOM      2  C   UNL     1       2.176   8.266  18.011  0.00  0.00    +0.000 A 
ATOM      3  C   UNL     1       1.542   9.472  18.325  0.00  0.00    +0.000 A 
ATOM      4  C   UNL     1       1.065   9.690  19.621  0.00  0.00    +0.000 A 
ATOM      5  C   UNL     1       1.231   8.719  20.611  0.00  0.00    +0.000 A 
ATOM      6  C   UNL     1       1.858   7.507  20.290  0.00  0.00    +0.000 A 
ENDROOT
BRANCH   1   8
ATOM      7  N   UNL     1       4.085   5.618  19.397  0.00  0.00    +0.000 N 
ATOM      8  C   UNL     1       2.969   5.971  18.663  0.00  0.00    +0.000 C 
ATOM      9  O   UNL     1       2.484   5.266  17.785  0.00  0.00    +0.000 OA
ATOM     10  H   UNL     1       4.269   6.069  20.285  0.00  0.00    +0.000 HD
BRANCH   7  11
ATOM     11  C   UNL     1       4.761   4.358  19.145  0.00  0.00    +0.000 C 
BRANCH  11  12
ATOM     12  C   UNL     1       5.950   4.481  18.167  0.00  0.00    +0.000 C 
BRANCH  12  13
ATOM     13  N   UNL     1       6.187   5.833  17.606  0.00  0.00    +0.000 NA
BRANCH  13  15
ATOM     14  C   UNL     1       7.763   7.814  17.600  0.00  0.00    +0.000 C 
ATOM     15  C   UNL     1       7.449   6.409  18.107  0.00  0.00    +0.000 C 
ENDBRANCH  13  15
BRANCH  13  16
ATOM     16  C   UNL     1       6.095   5.819  16.130  0.00  0.00    +0.000 C 
ATOM     17  C   UNL     1       5.955   4.452  15.458  0.00  0.00    +0.000 C 
ENDBRANCH  13  16
ENDBRANCH  12  13
ENDBRANCH  11  12
ENDBRANCH   7  11
ENDBRANCH   1   8
BRANCH   4  18
ATOM     18  S   UNL     1       0.331  11.268  20.001  0.00  0.00    +0.000 S 
ATOM     19  O   UNL     1      -1.083  11.051  20.219  0.00  0.00    +0.000 OA
ATOM     20  O   UNL     1       1.162  11.906  20.997  0.00  0.00    +0.000 OA
BRANCH  18  21
ATOM     21  N   UNL     1       0.450  12.071  18.514  0.00  0.00    +0.000 N 
ATOM     22  C   UNL     1       0.935  13.394  18.668  0.00  0.00    +0.000 A 
ATOM     23  N   UNL     1       0.101  14.405  18.755  0.00  0.00    +0.000 NA
ATOM     24  N   UNL     1       0.767  15.619  18.746  0.00  0.00    +0.000 NA
ATOM     25  C   UNL     1       2.063  15.444  18.579  0.00  0.00    +0.000 A 
ATOM     26  S   UNL     1       2.585  13.820  18.504  0.00  0.00    +0.000 S 
ATOM     27  H   UNL     1      -0.516  12.120  18.182  0.00  0.00    +0.000 HD
BRANCH  25  28
ATOM     28  S   UNL     1       3.238  16.737  18.344  0.00  0.00    +0.000 S 
ATOM     29  O   UNL     1       2.987  17.269  17.024  0.00  0.00    +0.000 OA
ATOM     30  O   UNL     1       3.171  17.542  19.542  0.00  0.00    +0.000 OA
BRANCH  28  31
ATOM     31  N   UNL     1       4.779  16.047  18.310  0.00  0.00    +0.000 NA
ATOM     32  H   UNL     1       5.492  16.683  18.670  0.00  0.00    +0.000 HD
ATOM     33  H   UNL     1       4.999  15.650  17.396  0.00  0.00    +0.000 HD
ENDBRANCH  28  31
ENDBRANCH  25  28
ENDBRANCH  18  21
ENDBRANCH   4  18
TORSDOF 10
ENDMDL
MODEL 2
REMARK VINA RESULT:      -7.1      1.011      1.151
REMARK  Name = 
REMARK  12 active torsions:
REMARK  status: ('A' for Active; 'I' for Inactive)
REMARK    1  A    between atoms: C_1  and  C_2
REMARK    2  A    between atoms: C_2  and  N_3
REMARK    3  A    between atoms: N_3  and  C_4
REMARK    4  A    between atoms: N_3  and  C_6
REMARK    5  A    between atoms: C_4  and  C_5
REMARK    6  A    between atoms: C_6  and  C_7
REMARK    7  A    between atoms: C_7  and  N_8
REMARK    8  A    between atoms: C_9  and  C_11
REMARK    9  A    between atoms: C_14  and  S_15
REMARK   10  A    between atoms: S_15  and  N_18
REMARK   11  A    between atoms: C_22  and  S_23
REMARK   12  A    between atoms: S_23  and  N_24
REMARK                            x       y       z     vdW  Elec       q    Type
REMARK                         _______ _______ _______ _____ _____    ______ ____
ROOT
ATOM      1  C   UNL     1       2.351   7.176  19.285  0.00  0.00    +0.000 A 
ATOM      2  C   UNL     1       2.274   8.144  18.280  0.00  0.00    +0.000 A 
ATOM      3  C   UNL     1       1.626   9.358  18.521  0.00  0.00    +0.000 A 
ATOM      4  C   UNL     1       1.040   9.598  19.768  0.00  0.00    +0.000 A 
ATOM      5  C   UNL     1       1.112   8.641  20.783  0.00  0.00    +0.000 A 
ATOM      6  C   UNL     1       1.755   7.420  20.533  0.00  0.00    +0.000 A 
ENDROOT
BRANCH   1   8
ATOM      7  N   UNL     1       3.442   5.625  17.744  0.00  0.00    +0.000 N 
ATOM      8  C   UNL     1       2.991   5.853  19.029  0.00  0.00    +0.000 C 
ATOM      9  O   UNL     1       3.098   5.040  19.940  0.00  0.00    +0.000 OA
ATOM     10  H   UNL     1       3.604   6.406  17.118  0.00  0.00    +0.000 HD
BRANCH   7  11
ATOM     11  C   UNL     1       4.076   4.365  17.401  0.00  0.00    +0.000 C 
BRANCH  11  12
ATOM     12  C   UNL     1       5.597   4.347  17.668  0.00  0.00    +0.000 C 
BRANCH  12  13
ATOM     13  N   UNL     1       6.385   5.405  16.989  0.00  0.00    +0.000 NA
BRANCH  13  15
ATOM     14  C   UNL     1       7.645   7.544  17.482  0.00  0.00    +0.000 C 
ATOM     15  C   UNL     1       7.214   6.157  17.951  0.00  0.00    +0.000 C 
ENDBRANCH  13  15
BRANCH  13  16
ATOM     16  C   UNL     1       7.158   4.848  15.859  0.00  0.00    +0.000 C 
ATOM     17  C   UNL     1       6.452   4.777  14.505  0.00  0.00    +0.000 C 
ENDBRANCH  13  16
ENDBRANCH  12  13
ENDBRANCH  11  12
ENDBRANCH   7  11
ENDBRANCH   1   8
BRANCH   4  18
ATOM     18  S   UNL     1       0.288  11.186  20.061  0.00  0.00    +0.000 S 
ATOM     19  O   UNL     1      -1.133  10.972  20.234  0.00  0.00    +0.000 OA
ATOM     20  O   UNL     1       1.079  11.864  21.063  0.00  0.00    +0.000 OA
BRANCH  18  21
ATOM     21  N   UNL     1       0.460  11.933  18.551  0.00  0.00    +0.000 N 
ATOM     22  C   UNL     1       0.920  13.269  18.675  0.00  0.00    +0.000 A 
ATOM     23  N   UNL     1       0.070  14.270  18.687  0.00  0.00    +0.000 NA
ATOM     24  N   UNL     1       0.719  15.493  18.660  0.00  0.00    +0.000 NA
ATOM     25  C   UNL     1       2.023  15.331  18.555  0.00  0.00    +0.000 A 
ATOM     26  S   UNL     1       2.570  13.713  18.565  0.00  0.00    +0.000 S 
ATOM     27  H   UNL     1      -0.491  11.956  18.176  0.00  0.00    +0.000 HD
BRANCH  25  28
ATOM     28  S   UNL     1       3.190  16.632  18.321  0.00  0.00    +0.000 S 
ATOM     29  O   UNL     1       3.111  17.456  19.506  0.00  0.00    +0.000 OA
ATOM     30  O   UNL     1       4.409  15.985  17.892  0.00  0.00    +0.000 OA
BRANCH  28  31
ATOM     31  N   UNL     1       2.666  17.581  17.026  0.00  0.00    +0.000 NA
ATOM     32  H   UNL     1       1.969  18.270  17.313  0.00  0.00    +0.000 HD
ATOM     33  H   UNL     1       2.384  17.014  16.227  0.00  0.00    +0.000 HD
ENDBRANCH  28  31
ENDBRANCH  25  28
ENDBRANCH  18  21
ENDBRANCH   4  18
TORSDOF 10
ENDMDL
MODEL 3
REMARK VINA RESULT:      -7.0      3.431      5.200
REMARK  Name = 
REMARK  12 active torsions:
REMARK  status: ('A' for Active; 'I' for Inactive)
REMARK    1  A    between atoms: C_1  and  C_2
REMARK    2  A    between atoms: C_2  and  N_3
REMARK    3  A    between atoms: N_3  and  C_4
REMARK    4  A    between atoms: N_3  and  C_6
REMARK    5  A    between atoms: C_4  and  C_5
REMARK    6  A    between atoms: C_6  and  C_7
REMARK    7  A    between atoms: C_7  and  N_8
REMARK    8  A    between atoms: C_9  and  C_11
REMARK    9  A    between atoms: C_14  and  S_15
REMARK   10  A    between atoms: S_15  and  N_18
REMARK   11  A    between atoms: C_22  and  S_23
REMARK   12  A    between atoms: S_23  and  N_24
REMARK                            x       y       z     vdW  Elec       q    Type
REMARK                         _______ _______ _______ _____ _____    ______ ____
ROOT
ATOM      1  C   UNL     1       2.651   7.453  18.694  0.00  0.00    +0.000 A 
ATOM      2  C   UNL     1       2.080   7.538  19.966  0.00  0.00    +0.000 A 
ATOM      3  C   UNL     1       1.277   8.631  20.305  0.00  0.00    +0.000 A 
ATOM      4  C   UNL     1       1.056   9.648  19.371  0.00  0.00    +0.000 A 
ATOM      5  C   UNL     1       1.617   9.574  18.095  0.00  0.00    +0.000 A 
ATOM      6  C   UNL     1       2.431   8.481  17.762  0.00  0.00    +0.000 A 
ENDROOT
BRANCH   1   8
ATOM      7  N   UNL     1       4.167   5.664  19.379  0.00  0.00    +0.000 N 
ATOM      8  C   UNL     1       3.554   6.323  18.331  0.00  0.00    +0.000 C 
ATOM      9  O   UNL     1       3.713   6.021  17.154  0.00  0.00    +0.000 OA
ATOM     10  H   UNL     1       3.790   5.744  20.316  0.00  0.00    +0.000 HD
BRANCH   7  11
ATOM     11  C   UNL     1       5.066   4.553  19.122  0.00  0.00    +0.000 C 
BRANCH  11  12
ATOM     12  C   UNL     1       4.477   3.181  19.516  0.00  0.00    +0.000 C 
BRANCH  12  13
ATOM     13  N   UNL     1       3.035   3.172  19.863  0.00  0.00    +0.000 NA
BRANCH  13  15
ATOM     14  C   UNL     1       1.322   3.494  18.027  0.00  0.00    +0.000 C 
ATOM     15  C   UNL     1       2.231   2.541  18.799  0.00  0.00    +0.000 C 
ENDBRANCH  13  15
BRANCH  13  16
ATOM     16  C   UNL     1       2.813   2.575  21.197  0.00  0.00    +0.000 C 
ATOM     17  C   UNL     1       1.393   2.645  21.760  0.00  0.00    +0.000 C 
ENDBRANCH  13  16
ENDBRANCH  12  13
ENDBRANCH  11  12
ENDBRANCH   7  11
ENDBRANCH   1   8
BRANCH   4  18
ATOM     18  S   UNL     1      -0.033  10.986  19.816  0.00  0.00    +0.000 S 
ATOM     19  O   UNL     1       0.586  12.218  19.377  0.00  0.00    +0.000 OA
ATOM     20  O   UNL     1      -1.367  10.618  19.399  0.00  0.00    +0.000 OA
BRANCH  18  21
ATOM     21  N   UNL     1       0.091  10.986  21.505  0.00  0.00    +0.000 N 
ATOM     22  C   UNL     1      -0.499  12.142  22.076  0.00  0.00    +0.000 A 
ATOM     23  N   UNL     1       0.234  13.192  22.368  0.00  0.00    +0.000 NA
ATOM     24  N   UNL     1      -0.495  14.150  23.052  0.00  0.00    +0.000 NA
ATOM     25  C   UNL     1      -1.718  13.725  23.297  0.00  0.00    +0.000 A 
ATOM     26  S   UNL     1      -2.109  12.191  22.657  0.00  0.00    +0.000 S 
ATOM     27  H   UNL     1       1.098  11.022  21.679  0.00  0.00    +0.000 HD
BRANCH  25  28
ATOM     28  S   UNL     1      -2.905  14.571  24.288  0.00  0.00    +0.000 S 
ATOM     29  O   UNL     1      -3.407  15.653  23.472  0.00  0.00    +0.000 OA
ATOM     30  O   UNL     1      -3.756  13.541  24.837  0.00  0.00    +0.000 OA
BRANCH  28  31
ATOM     31  N   UNL     1      -2.095  15.275  25.592  0.00  0.00    +0.000 NA
ATOM     32  H   UNL     1      -1.717  16.194  25.358  0.00  0.00    +0.000 HD
ATOM     33  H   UNL     1      -1.414  14.639  26.006  0.00  0.00    +0.000 HD
ENDBRANCH  28  31
ENDBRANCH  25  28
ENDBRANCH  18  21
ENDBRANCH   4  18
TORSDOF 10
ENDMDL
MODEL 4
REMARK VINA RESULT:      -7.0      1.301      1.394
REMARK  Name = 
REMARK  12 active torsions:
REMARK  status: ('A' for Active; 'I' for Inactive)
REMARK    1  A    between atoms: C_1  and  C_2
REMARK    2  A    between atoms: C_2  and  N_3
REMARK    3  A    between atoms: N_3  and  C_4
REMARK    4  A    between atoms: N_3  and  C_6
REMARK    5  A    between atoms: C_4  and  C_5
REMARK    6  A    between atoms: C_6  and  C_7
REMARK    7  A    between atoms: C_7  and  N_8
REMARK    8  A    between atoms: C_9  and  C_11
REMARK    9  A    between atoms: C_14  and  S_15
REMARK   10  A    between atoms: S_15  and  N_18
REMARK   11  A    between atoms: C_22  and  S_23
REMARK   12  A    between atoms: S_23  and  N_24
REMARK                            x       y       z     vdW  Elec       q    Type
REMARK                         _______ _______ _______ _____ _____    ______ ____
ROOT
ATOM      1  C   UNL     1       2.383   7.235  19.063  0.00  0.00    +0.000 A 
ATOM      2  C   UNL     1       2.190   8.161  18.035  0.00  0.00    +0.000 A 
ATOM      3  C   UNL     1       1.492   9.348  18.279  0.00  0.00    +0.000 A 
ATOM      4  C   UNL     1       0.975   9.601  19.553  0.00  0.00    +0.000 A 
ATOM      5  C   UNL     1       1.164   8.686  20.591  0.00  0.00    +0.000 A 
ATOM      6  C   UNL     1       1.855   7.492  20.340  0.00  0.00    +0.000 A 
ENDROOT
BRANCH   1   8
ATOM      7  N   UNL     1       4.197   5.681  19.576  0.00  0.00    +0.000 N 
ATOM      8  C   UNL     1       3.077   5.940  18.810  0.00  0.00    +0.000 C 
ATOM      9  O   UNL     1       2.642   5.169  17.962  0.00  0.00    +0.000 OA
ATOM     10  H   UNL     1       4.344   6.184  20.444  0.00  0.00    +0.000 HD
BRANCH   7  11
ATOM     11  C   UNL     1       4.939   4.446  19.398  0.00  0.00    +0.000 C 
BRANCH  11  12
ATOM     12  C   UNL     1       6.039   4.539  18.318  0.00  0.00    +0.000 C 
BRANCH  12  13
ATOM     13  N   UNL     1       6.385   5.907  17.864  0.00  0.00    +0.000 NA
BRANCH  13  15
ATOM     14  C   UNL     1       8.074   7.781  18.075  0.00  0.00    +0.000 C 
ATOM     15  C   UNL     1       7.647   6.371  18.473  0.00  0.00    +0.000 C 
ENDBRANCH  13  15
BRANCH  13  16
ATOM     16  C   UNL     1       6.380   5.995  16.389  0.00  0.00    +0.000 C 
ATOM     17  C   UNL     1       5.099   6.510  15.730  0.00  0.00    +0.000 C 
ENDBRANCH  13  16
ENDBRANCH  12  13
ENDBRANCH  11  12
ENDBRANCH   7  11
ENDBRANCH   1   8
BRANCH   4  18
ATOM     18  S   UNL     1       0.157  11.157  19.842  0.00  0.00    +0.000 S 
ATOM     19  O   UNL     1      -0.185  11.717  18.552  0.00  0.00    +0.000 OA
ATOM     20  O   UNL     1      -0.844  10.939  20.862  0.00  0.00    +0.000 OA
BRANCH  18  21
ATOM     21  N   UNL     1       1.425  12.109  20.436  0.00  0.00    +0.000 N 
ATOM     22  C   UNL     1       1.648  13.252  19.627  0.00  0.00    +0.000 A 
ATOM     23  N   UNL     1       2.562  13.235  18.684  0.00  0.00    +0.000 NA
ATOM     24  N   UNL     1       2.731  14.486  18.114  0.00  0.00    +0.000 NA
ATOM     25  C   UNL     1       1.980  15.384  18.718  0.00  0.00    +0.000 A 
ATOM     26  S   UNL     1       0.961  14.786  19.951  0.00  0.00    +0.000 S 
ATOM     27  H   UNL     1       2.244  11.502  20.365  0.00  0.00    +0.000 HD
BRANCH  25  28
ATOM     28  S   UNL     1       2.027  17.119  18.407  0.00  0.00    +0.000 S 
ATOM     29  O   UNL     1       0.651  17.532  18.243  0.00  0.00    +0.000 OA
ATOM     30  O   UNL     1       2.898  17.670  19.420  0.00  0.00    +0.000 OA
BRANCH  28  31
ATOM     31  N   UNL     1       2.794  17.366  16.923  0.00  0.00    +0.000 NA
ATOM     32  H   UNL     1       3.395  18.191  16.934  0.00  0.00    +0.000 HD
ATOM     33  H   UNL     1       2.135  17.343  16.145  0.00  0.00    +0.000 HD
ENDBRANCH  28  31
ENDBRANCH  25  28
ENDBRANCH  18  21
ENDBRANCH   4  18
TORSDOF 10
ENDMDL
MODEL 5
REMARK VINA RESULT:      -7.0      1.264      1.837
REMARK  Name = 
REMARK  12 active torsions:
REMARK  status: ('A' for Active; 'I' for Inactive)
REMARK    1  A    between atoms: C_1  and  C_2
REMARK    2  A    between atoms: C_2  and  N_3
REMARK    3  A    between atoms: N_3  and  C_4
REMARK    4  A    between atoms: N_3  and  C_6
REMARK    5  A    between atoms: C_4  and  C_5
REMARK    6  A    between atoms: C_6  and  C_7
REMARK    7  A    between atoms: C_7  and  N_8
REMARK    8  A    between atoms: C_9  and  C_11
REMARK    9  A    between atoms: C_14  and  S_15
REMARK   10  A    between atoms: S_15  and  N_18
REMARK   11  A    between atoms: C_22  and  S_23
REMARK   12  A    between atoms: S_23  and  N_24
REMARK                            x       y       z     vdW  Elec       q    Type
REMARK                         _______ _______ _______ _____ _____    ______ ____
ROOT
ATOM      1  C   UNL     1       2.383   7.274  19.267  0.00  0.00    +0.000 A 
ATOM      2  C   UNL     1       2.248   8.233  18.260  0.00  0.00    +0.000 A 
ATOM      3  C   UNL     1       1.557   9.423  18.510  0.00  0.00    +0.000 A 
ATOM      4  C   UNL     1       0.987   9.644  19.768  0.00  0.00    +0.000 A 
ATOM      5  C   UNL     1       1.117   8.696  20.784  0.00  0.00    +0.000 A 
ATOM      6  C   UNL     1       1.803   7.500  20.527  0.00  0.00    +0.000 A 
ENDROOT
BRANCH   1   8
ATOM      7  N   UNL     1       2.599   5.235  17.938  0.00  0.00    +0.000 N 
ATOM      8  C   UNL     1       3.069   5.976  19.004  0.00  0.00    +0.000 C 
ATOM      9  O   UNL     1       4.003   5.623  19.716  0.00  0.00    +0.000 OA
ATOM     10  H   UNL     1       2.046   5.683  17.216  0.00  0.00    +0.000 HD
BRANCH   7  11
ATOM     11  C   UNL     1       3.203   3.957  17.608  0.00  0.00    +0.000 C 
BRANCH  11  12
ATOM     12  C   UNL     1       4.094   4.005  16.347  0.00  0.00    +0.000 C 
BRANCH  12  13
ATOM     13  N   UNL     1       5.423   4.639  16.518  0.00  0.00    +0.000 NA
BRANCH  13  15
ATOM     14  C   UNL     1       6.273   4.004  14.220  0.00  0.00    +0.000 C 
ATOM     15  C   UNL     1       6.457   3.938  15.734  0.00  0.00    +0.000 C 
ENDBRANCH  13  15
BRANCH  13  16
ATOM     16  C   UNL     1       5.359   6.090  16.240  0.00  0.00    +0.000 C 
ATOM     17  C   UNL     1       6.176   7.007  17.150  0.00  0.00    +0.000 C 
ENDBRANCH  13  16
ENDBRANCH  12  13
ENDBRANCH  11  12
ENDBRANCH   7  11
ENDBRANCH   1   8
BRANCH   4  18
ATOM     18  S   UNL     1       0.179  11.203  20.069  0.00  0.00    +0.000 S 
ATOM     19  O   UNL     1      -1.234  10.937  20.239  0.00  0.00    +0.000 OA
ATOM     20  O   UNL     1       0.944  11.902  21.076  0.00  0.00    +0.000 OA
BRANCH  18  21
ATOM     21  N   UNL     1       0.326  11.965  18.564  0.00  0.00    +0.000 N 
ATOM     22  C   UNL     1       0.846  13.279  18.689  0.00  0.00    +0.000 A 
ATOM     23  N   UNL     1       0.039  14.314  18.746  0.00  0.00    +0.000 NA
ATOM     24  N   UNL     1       0.737  15.509  18.712  0.00  0.00    +0.000 NA
ATOM     25  C   UNL     1       2.029  15.295  18.556  0.00  0.00    +0.000 A 
ATOM     26  S   UNL     1       2.507  13.656  18.523  0.00  0.00    +0.000 S 
ATOM     27  H   UNL     1      -0.637  12.033  18.226  0.00  0.00    +0.000 HD
BRANCH  25  28
ATOM     28  S   UNL     1       3.239  16.550  18.296  0.00  0.00    +0.000 S 
ATOM     29  O   UNL     1       3.119  17.458  19.414  0.00  0.00    +0.000 OA
ATOM     30  O   UNL     1       4.462  15.848  17.981  0.00  0.00    +0.000 OA
BRANCH  28  31
ATOM     31  N   UNL     1       2.809  17.417  16.912  0.00  0.00    +0.000 NA
ATOM     32  H   UNL     1       3.579  17.988  16.562  0.00  0.00    +0.000 HD
ATOM     33  H   UNL     1       1.936  17.929  17.039  0.00  0.00    +0.000 HD
ENDBRANCH  28  31
ENDBRANCH  25  28
ENDBRANCH  18  21
ENDBRANCH   4  18
TORSDOF 10
ENDMDL
MODEL 6
REMARK VINA RESULT:      -7.0      3.345      4.676
REMARK  Name = 
REMARK  12 active torsions:
REMARK  status: ('A' for Active; 'I' for Inactive)
REMARK    1  A    between atoms: C_1  and  C_2
REMARK    2  A    between atoms: C_2  and  N_3
REMARK    3  A    between atoms: N_3  and  C_4
REMARK    4  A    between atoms: N_3  and  C_6
REMARK    5  A    between atoms: C_4  and  C_5
REMARK    6  A    between atoms: C_6  and  C_7
REMARK    7  A    between atoms: C_7  and  N_8
REMARK    8  A    between atoms: C_9  and  C_11
REMARK    9  A    between atoms: C_14  and  S_15
REMARK   10  A    between atoms: S_15  and  N_18
REMARK   11  A    between atoms: C_22  and  S_23
REMARK   12  A    between atoms: S_23  and  N_24
REMARK                            x       y       z     vdW  Elec       q    Type
REMARK                         _______ _______ _______ _____ _____    ______ ____
ROOT
ATOM      1  C   UNL     1       2.330   7.066  19.457  0.00  0.00    +0.000 A 
ATOM      2  C   UNL     1       2.227   8.019  18.440  0.00  0.00    +0.000 A 
ATOM      3  C   UNL     1       1.549   9.221  18.668  0.00  0.00    +0.000 A 
ATOM      4  C   UNL     1       0.962   9.462  19.914  0.00  0.00    +0.000 A 
ATOM      5  C   UNL     1       1.061   8.520  20.940  0.00  0.00    +0.000 A 
ATOM      6  C   UNL     1       1.733   7.312  20.705  0.00  0.00    +0.000 A 
ENDROOT
BRANCH   1   8
ATOM      7  N   UNL     1       3.350   5.473  17.911  0.00  0.00    +0.000 N 
ATOM      8  C   UNL     1       3.001   5.756  19.217  0.00  0.00    +0.000 C 
ATOM      9  O   UNL     1       3.220   5.000  20.156  0.00  0.00    +0.000 OA
ATOM     10  H   UNL     1       3.425   6.224  17.233  0.00  0.00    +0.000 HD
BRANCH   7  11
ATOM     11  C   UNL     1       4.005   4.221  17.581  0.00  0.00    +0.000 C 
BRANCH  11  12
ATOM     12  C   UNL     1       4.829   4.281  16.276  0.00  0.00    +0.000 C 
BRANCH  12  13
ATOM     13  N   UNL     1       6.136   4.976  16.368  0.00  0.00    +0.000 NA
BRANCH  13  15
ATOM     14  C   UNL     1       7.576   5.847  18.258  0.00  0.00    +0.000 C 
ATOM     15  C   UNL     1       6.813   4.677  17.644  0.00  0.00    +0.000 C 
ENDBRANCH  13  15
BRANCH  13  16
ATOM     16  C   UNL     1       6.971   4.695  15.181  0.00  0.00    +0.000 C 
ATOM     17  C   UNL     1       6.278   4.042  13.985  0.00  0.00    +0.000 C 
ENDBRANCH  13  16
ENDBRANCH  12  13
ENDBRANCH  11  12
ENDBRANCH   7  11
ENDBRANCH   1   8
BRANCH   4  18
ATOM     18  S   UNL     1       0.173  11.036  20.188  0.00  0.00    +0.000 S 
ATOM     19  O   UNL     1       1.048  12.061  19.663  0.00  0.00    +0.000 OA
ATOM     20  O   UNL     1      -1.200  10.915  19.751  0.00  0.00    +0.000 OA
BRANCH  18  21
ATOM     21  N   UNL     1       0.258  11.176  21.874  0.00  0.00    +0.000 N 
ATOM     22  C   UNL     1      -0.601  12.194  22.360  0.00  0.00    +0.000 A 
ATOM     23  N   UNL     1      -0.143  13.405  22.582  0.00  0.00    +0.000 NA
ATOM     24  N   UNL     1      -1.091  14.206  23.196  0.00  0.00    +0.000 NA
ATOM     25  C   UNL     1      -2.184  13.520  23.463  0.00  0.00    +0.000 A 
ATOM     26  S   UNL     1      -2.189  11.899  22.928  0.00  0.00    +0.000 S 
ATOM     27  H   UNL     1       1.223  11.461  22.050  0.00  0.00    +0.000 HD
BRANCH  25  28
ATOM     28  S   UNL     1      -3.559  14.125  24.388  0.00  0.00    +0.000 S 
ATOM     29  O   UNL     1      -2.999  14.876  25.489  0.00  0.00    +0.000 OA
ATOM     30  O   UNL     1      -4.454  14.705  23.414  0.00  0.00    +0.000 OA
BRANCH  28  31
ATOM     31  N   UNL     1      -4.365  12.801  25.057  0.00  0.00    +0.000 NA
ATOM     32  H   UNL     1      -3.771  12.273  25.698  0.00  0.00    +0.000 HD
ATOM     33  H   UNL     1      -4.816  12.228  24.343  0.00  0.00    +0.000 HD
ENDBRANCH  28  31
ENDBRANCH  25  28
ENDBRANCH  18  21
ENDBRANCH   4  18
TORSDOF 10
ENDMDL
MODEL 7
REMARK VINA RESULT:      -6.9      3.359      4.692
REMARK  Name = 
REMARK  12 active torsions:
REMARK  status: ('A' for Active; 'I' for Inactive)
REMARK    1  A    between atoms: C_1  and  C_2
REMARK    2  A    between atoms: C_2  and  N_3
REMARK    3  A    between atoms: N_3  and  C_4
REMARK    4  A    between atoms: N_3  and  C_6
REMARK    5  A    between atoms: C_4  and  C_5
REMARK    6  A    between atoms: C_6  and  C_7
REMARK    7  A    between atoms: C_7  and  N_8
REMARK    8  A    between atoms: C_9  and  C_11
REMARK    9  A    between atoms: C_14  and  S_15
REMARK   10  A    between atoms: S_15  and  N_18
REMARK   11  A    between atoms: C_22  and  S_23
REMARK   12  A    between atoms: S_23  and  N_24
REMARK                            x       y       z     vdW  Elec       q    Type
REMARK                         _______ _______ _______ _____ _____    ______ ____
ROOT
ATOM      1  C   UNL     1       2.271   7.076  19.427  0.00  0.00    +0.000 A 
ATOM      2  C   UNL     1       1.760   7.352  20.698  0.00  0.00    +0.000 A 
ATOM      3  C   UNL     1       1.112   8.566  20.947  0.00  0.00    +0.000 A 
ATOM      4  C   UNL     1       0.989   9.511  19.924  0.00  0.00    +0.000 A 
ATOM      5  C   UNL     1       1.492   9.246  18.648  0.00  0.00    +0.000 A 
ATOM      6  C   UNL     1       2.149   8.032  18.405  0.00  0.00    +0.000 A 
ENDROOT
BRANCH   1   8
ATOM      7  N   UNL     1       3.415   5.601  17.851  0.00  0.00    +0.000 N 
ATOM      8  C   UNL     1       3.012   5.811  19.156  0.00  0.00    +0.000 C 
ATOM      9  O   UNL     1       3.239   5.027  20.070  0.00  0.00    +0.000 OA
ATOM     10  H   UNL     1       3.474   6.381  17.207  0.00  0.00    +0.000 HD
BRANCH   7  11
ATOM     11  C   UNL     1       4.141   4.395  17.492  0.00  0.00    +0.000 C 
BRANCH  11  12
ATOM     12  C   UNL     1       5.655   4.478  17.785  0.00  0.00    +0.000 C 
BRANCH  12  13
ATOM     13  N   UNL     1       6.401   5.523  17.044  0.00  0.00    +0.000 NA
BRANCH  13  15
ATOM     14  C   UNL     1       7.644   7.686  17.471  0.00  0.00    +0.000 C 
ATOM     15  C   UNL     1       7.304   6.273  17.938  0.00  0.00    +0.000 C 
ENDBRANCH  13  15
BRANCH  13  16
ATOM     16  C   UNL     1       7.086   4.952  15.865  0.00  0.00    +0.000 C 
ATOM     17  C   UNL     1       6.268   4.835  14.578  0.00  0.00    +0.000 C 
ENDBRANCH  13  16
ENDBRANCH  12  13
ENDBRANCH  11  12
ENDBRANCH   7  11
ENDBRANCH   1   8
BRANCH   4  18
ATOM     18  S   UNL     1       0.092  11.013  20.261  0.00  0.00    +0.000 S 
ATOM     19  O   UNL     1       0.961  12.123  19.936  0.00  0.00    +0.000 OA
ATOM     20  O   UNL     1      -1.219  10.879  19.667  0.00  0.00    +0.000 OA
BRANCH  18  21
ATOM     21  N   UNL     1      -0.007  10.985  21.951  0.00  0.00    +0.000 N 
ATOM     22  C   UNL     1      -0.721  12.102  22.455  0.00  0.00    +0.000 A 
ATOM     23  N   UNL     1      -0.083  13.178  22.855  0.00  0.00    +0.000 NA
ATOM     24  N   UNL     1      -0.940  14.088  23.451  0.00  0.00    +0.000 NA
ATOM     25  C   UNL     1      -2.163  13.603  23.526  0.00  0.00    +0.000 A 
ATOM     26  S   UNL     1      -2.393  12.066  22.819  0.00  0.00    +0.000 S 
ATOM     27  H   UNL     1       0.966  11.063  22.257  0.00  0.00    +0.000 HD
BRANCH  25  28
ATOM     28  S   UNL     1      -3.509  14.375  24.363  0.00  0.00    +0.000 S 
ATOM     29  O   UNL     1      -2.946  14.982  25.549  0.00  0.00    +0.000 OA
ATOM     30  O   UNL     1      -4.211  15.131  23.352  0.00  0.00    +0.000 OA
BRANCH  28  31
ATOM     31  N   UNL     1      -4.566  13.167  24.885  0.00  0.00    +0.000 NA
ATOM     32  H   UNL     1      -5.456  13.193  24.385  0.00  0.00    +0.000 HD
ATOM     33  H   UNL     1      -4.661  13.155  25.901  0.00  0.00    +0.000 HD
ENDBRANCH  28  31
ENDBRANCH  25  28
ENDBRANCH  18  21
ENDBRANCH   4  18
TORSDOF 10
ENDMDL
MODEL 8
REMARK VINA RESULT:      -6.9      0.834      1.305
REMARK  Name = 
REMARK  12 active torsions:
REMARK  status: ('A' for Active; 'I' for Inactive)
REMARK    1  A    between atoms: C_1  and  C_2
REMARK    2  A    between atoms: C_2  and  N_3
REMARK    3  A    between atoms: N_3  and  C_4
REMARK    4  A    between atoms: N_3  and  C_6
REMARK    5  A    between atoms: C_4  and  C_5
REMARK    6  A    between atoms: C_6  and  C_7
REMARK    7  A    between atoms: C_7  and  N_8
REMARK    8  A    between atoms: C_9  and  C_11
REMARK    9  A    between atoms: C_14  and  S_15
REMARK   10  A    between atoms: S_15  and  N_18
REMARK   11  A    between atoms: C_22  and  S_23
REMARK   12  A    between atoms: S_23  and  N_24
REMARK                            x       y       z     vdW  Elec       q    Type
REMARK                         _______ _______ _______ _____ _____    ______ ____
ROOT
ATOM      1  C   UNL     1       2.295   7.145  19.023  0.00  0.00    +0.000 A 
ATOM      2  C   UNL     1       1.829   7.444  20.306  0.00  0.00    +0.000 A 
ATOM      3  C   UNL     1       1.262   8.694  20.575  0.00  0.00    +0.000 A 
ATOM      4  C   UNL     1       1.176   9.651  19.560  0.00  0.00    +0.000 A 
ATOM      5  C   UNL     1       1.634   9.364  18.273  0.00  0.00    +0.000 A 
ATOM      6  C   UNL     1       2.210   8.113  18.009  0.00  0.00    +0.000 A 
ENDROOT
BRANCH   1   8
ATOM      7  N   UNL     1       4.120   5.569  19.414  0.00  0.00    +0.000 N 
ATOM      8  C   UNL     1       2.951   5.839  18.729  0.00  0.00    +0.000 C 
ATOM      9  O   UNL     1       2.445   5.069  17.921  0.00  0.00    +0.000 OA
ATOM     10  H   UNL     1       4.336   6.076  20.265  0.00  0.00    +0.000 HD
BRANCH   7  11
ATOM     11  C   UNL     1       4.830   4.322  19.191  0.00  0.00    +0.000 C 
BRANCH  11  12
ATOM     12  C   UNL     1       6.073   4.475  18.287  0.00  0.00    +0.000 C 
BRANCH  12  13
ATOM     13  N   UNL     1       5.826   5.050  16.942  0.00  0.00    +0.000 NA
BRANCH  13  15
ATOM     14  C   UNL     1       7.477   6.716  17.896  0.00  0.00    +0.000 C 
ATOM     15  C   UNL     1       6.486   6.361  16.790  0.00  0.00    +0.000 C 
ENDBRANCH  13  15
BRANCH  13  16
ATOM     16  C   UNL     1       6.184   4.087  15.879  0.00  0.00    +0.000 C 
ATOM     17  C   UNL     1       6.804   4.662  14.604  0.00  0.00    +0.000 C 
ENDBRANCH  13  16
ENDBRANCH  12  13
ENDBRANCH  11  12
ENDBRANCH   7  11
ENDBRANCH   1   8
BRANCH   4  18
ATOM     18  S   UNL     1       0.380  11.203  19.924  0.00  0.00    +0.000 S 
ATOM     19  O   UNL     1      -1.043  10.956  20.007  0.00  0.00    +0.000 OA
ATOM     20  O   UNL     1       1.106  11.819  21.012  0.00  0.00    +0.000 OA
BRANCH  18  21
ATOM     21  N   UNL     1       0.616  12.059  18.482  0.00  0.00    +0.000 N 
ATOM     22  C   UNL     1       0.819  13.443  18.719  0.00  0.00    +0.000 A 
ATOM     23  N   UNL     1      -0.185  14.286  18.651  0.00  0.00    +0.000 NA
ATOM     24  N   UNL     1       0.241  15.599  18.761  0.00  0.00    +0.000 NA
ATOM     25  C   UNL     1       1.556  15.662  18.832  0.00  0.00    +0.000 A 
ATOM     26  S   UNL     1       2.367  14.160  18.857  0.00  0.00    +0.000 S 
ATOM     27  H   UNL     1      -0.267  11.947  17.980  0.00  0.00    +0.000 HD
BRANCH  25  28
ATOM     28  S   UNL     1       2.502  17.150  18.812  0.00  0.00    +0.000 S 
ATOM     29  O   UNL     1       3.607  16.907  17.913  0.00  0.00    +0.000 OA
ATOM     30  O   UNL     1       1.544  18.213  18.611  0.00  0.00    +0.000 OA
BRANCH  28  31
ATOM     31  N   UNL     1       3.160  17.376  20.350  0.00  0.00    +0.000 NA
ATOM     32  H   UNL     1       3.027  18.330  20.688  0.00  0.00    +0.000 HD
ATOM     33  H   UNL     1       4.123  17.046  20.405  0.00  0.00    +0.000 HD
ENDBRANCH  28  31
ENDBRANCH  25  28
ENDBRANCH  18  21
ENDBRANCH   4  18
TORSDOF 10
ENDMDL
MODEL 9
REMARK VINA RESULT:      -6.9      1.795      2.876
REMARK  Name = 
REMARK  12 active torsions:
REMARK  status: ('A' for Active; 'I' for Inactive)
REMARK    1  A    between atoms: C_1  and  C_2
REMARK    2  A    between atoms: C_2  and  N_3
REMARK    3  A    between atoms: N_3  and  C_4
REMARK    4  A    between atoms: N_3  and  C_6
REMARK    5  A    between atoms: C_4  and  C_5
REMARK    6  A    between atoms: C_6  and  C_7
REMARK    7  A    between atoms: C_7  and  N_8
REMARK    8  A    between atoms: C_9  and  C_11
REMARK    9  A    between atoms: C_14  and  S_15
REMARK   10  A    between atoms: S_15  and  N_18
REMARK   11  A    between atoms: C_22  and  S_23
REMARK   12  A    between atoms: S_23  and  N_24
REMARK                            x       y       z     vdW  Elec       q    Type
REMARK                         _______ _______ _______ _____ _____    ______ ____
ROOT
ATOM      1  C   UNL     1       2.573   7.669  18.734  0.00  0.00    +0.000 A 
ATOM      2  C   UNL     1       2.217   8.537  17.698  0.00  0.00    +0.000 A 
ATOM      3  C   UNL     1       1.300   9.567  17.927  0.00  0.00    +0.000 A 
ATOM      4  C   UNL     1       0.729   9.720  19.195  0.00  0.00    +0.000 A 
ATOM      5  C   UNL     1       1.079   8.863  20.239  0.00  0.00    +0.000 A 
ATOM      6  C   UNL     1       1.991   7.824  20.003  0.00  0.00    +0.000 A 
ENDROOT
BRANCH   1   8
ATOM      7  N   UNL     1       3.779   5.720  19.580  0.00  0.00    +0.000 N 
ATOM      8  C   UNL     1       3.506   6.531  18.495  0.00  0.00    +0.000 C 
ATOM      9  O   UNL     1       3.982   6.353  17.380  0.00  0.00    +0.000 OA
ATOM     10  H   UNL     1       3.156   5.718  20.379  0.00  0.00    +0.000 HD
BRANCH   7  11
ATOM     11  C   UNL     1       4.679   4.589  19.444  0.00  0.00    +0.000 C 
BRANCH  11  12
ATOM     12  C   UNL     1       4.048   3.385  18.712  0.00  0.00    +0.000 C 
BRANCH  12  13
ATOM     13  N   UNL     1       2.968   2.678  19.442  0.00  0.00    +0.000 NA
BRANCH  13  15
ATOM     14  C   UNL     1       2.105   3.214  21.760  0.00  0.00    +0.000 C 
ATOM     15  C   UNL     1       3.229   2.653  20.894  0.00  0.00    +0.000 C 
ENDBRANCH  13  15
BRANCH  13  16
ATOM     16  C   UNL     1       1.642   3.231  19.095  0.00  0.00    +0.000 C 
ATOM     17  C   UNL     1       0.551   2.228  18.716  0.00  0.00    +0.000 C 
ENDBRANCH  13  16
ENDBRANCH  12  13
ENDBRANCH  11  12
ENDBRANCH   7  11
ENDBRANCH   1   8
BRANCH   4  18
ATOM     18  S   UNL     1      -0.377  11.091  19.466  0.00  0.00    +0.000 S 
ATOM     19  O   UNL     1      -1.727  10.606  19.280  0.00  0.00    +0.000 OA
ATOM     20  O   UNL     1       0.031  11.743  20.689  0.00  0.00    +0.000 OA
BRANCH  18  21
ATOM     21  N   UNL     1      -0.050  12.070  18.123  0.00  0.00    +0.000 N 
ATOM     22  C   UNL     1       0.779  13.169  18.464  0.00  0.00    +0.000 A 
ATOM     23  N   UNL     1       0.253  14.337  18.753  0.00  0.00    +0.000 NA
ATOM     24  N   UNL     1       1.226  15.311  18.906  0.00  0.00    +0.000 NA
ATOM     25  C   UNL     1       2.423  14.825  18.648  0.00  0.00    +0.000 A 
ATOM     26  S   UNL     1       2.481  13.157  18.288  0.00  0.00    +0.000 S 
ATOM     27  H   UNL     1      -0.967  12.432  17.852  0.00  0.00    +0.000 HD
BRANCH  25  28
ATOM     28  S   UNL     1       3.906  15.776  18.565  0.00  0.00    +0.000 S 
ATOM     29  O   UNL     1       3.558  16.998  17.877  0.00  0.00    +0.000 OA
ATOM     30  O   UNL     1       4.454  15.754  19.902  0.00  0.00    +0.000 OA
BRANCH  28  31
ATOM     31  N   UNL     1       5.003  14.953  17.580  0.00  0.00    +0.000 NA
ATOM     32  H   UNL     1       5.458  15.575  16.910  0.00  0.00    +0.000 HD
ATOM     33  H   UNL     1       4.588  14.121  17.159  0.00  0.00    +0.000 HD
ENDBRANCH  28  31
ENDBRANCH  25  28
ENDBRANCH  18  21
ENDBRANCH   4  18
TORSDOF 10
ENDMDL
