MODEL 1
REMARK VINA RESULT:      -7.7      0.000      0.000
REMARK  Name = 
REMARK  3 active torsions:
REMARK  status: ('A' for Active; 'I' for Inactive)
REMARK    1  A    between atoms: C_1  and  C_2
REMARK    2  A    between atoms: C_7  and  C_9
REMARK    3  A    between atoms: C_9  and  C_10
REMARK                            x       y       z     vdW  Elec       q    Type
REMARK                         _______ _______ _______ _____ _____    ______ ____
ROOT
ATOM      1  C   UNL     1       3.234   7.293  17.721  0.00  0.00    +0.000 C 
ENDROOT
BRANCH   1   8
ATOM      2  C   UNL     1      -0.884  10.971  22.898  0.00  0.00    +0.000 C 
ATOM      3  C   UNL     1      -0.304  10.375  21.668  0.00  0.00    +0.000 A 
ATOM      4  C   UNL     1      -0.467  10.769  20.355  0.00  0.00    +0.000 A 
ATOM      5  N   UNL     1       0.261  10.060  19.426  0.00  0.00    +0.000 NA
ATOM      6  C   UNL     1       0.958   9.134  20.029  0.00  0.00    +0.000 A 
ATOM      7  N   UNL     1       1.843   8.242  19.485  0.00  0.00    +0.000 N 
ATOM      8  C   UNL     1       2.326   8.408  18.204  0.00  0.00    +0.000 C 
ATOM      9  O   UNL     1       2.070   9.335  17.440  0.00  0.00    +0.000 OA
ATOM     10  S   UNL     1       0.741   9.010  21.720  0.00  0.00    +0.000 S 
ATOM     11  H   UNL     1       2.215   7.531  20.103  0.00  0.00    +0.000 HD
ENDBRANCH   1   8
BRANCH   1  12
ATOM     12  C   UNL     1       3.512   6.190  18.731  0.00  0.00    +0.000 C 
ATOM     13  O   UNL     1       4.941   5.950  18.812  0.00  0.00    +0.000 OA
ATOM     14  C   UNL     1       5.244   4.626  18.653  0.00  0.00    +0.000 C 
ATOM     15  O   UNL     1       6.361   4.152  18.643  0.00  0.00    +0.000 OA
ATOM     16  C   UNL     1       3.988   3.926  18.444  0.00  0.00    +0.000 A 
ATOM     17  C   UNL     1       3.789   2.571  18.247  0.00  0.00    +0.000 A 
ATOM     18  C   UNL     1       2.475   2.130  18.097  0.00  0.00    +0.000 A 
ATOM     19  C   UNL     1       1.411   3.045  18.144  0.00  0.00    +0.000 A 
ATOM     20  C   UNL     1       1.644   4.414  18.330  0.00  0.00    +0.000 A 
ATOM     21  C   UNL     1       2.953   4.843  18.472  0.00  0.00    +0.000 A 
ENDBRANCH   1  12
TORSDOF 2
ENDMDL
MODEL 2
REMARK VINA RESULT:      -7.5      5.149      7.328
REMARK  Name = 
REMARK  3 active torsions:
REMARK  status: ('A' for Active; 'I' for Inactive)
REMARK    1  A    between atoms: C_1  and  C_2
REMARK    2  A    between atoms: C_7  and  C_9
REMARK    3  A    between atoms: C_9  and  C_10
REMARK                            x       y       z     vdW  Elec       q    Type
REMARK                         _______ _______ _______ _____ _____    ______ ____
ROOT
ATOM      1  C   UNL     1       5.336   4.514  18.752  0.00  0.00    +0.000 C 
ENDROOT
BRANCH   1   8
ATOM      2  C   UNL     1       7.157   4.284  11.409  0.00  0.00    +0.000 C 
ATOM      3  C   UNL     1       7.108   4.462  12.883  0.00  0.00    +0.000 A 
ATOM      4  C   UNL     1       7.852   5.312  13.677  0.00  0.00    +0.000 A 
ATOM      5  N   UNL     1       7.530   5.308  15.017  0.00  0.00    +0.000 NA
ATOM      6  C   UNL     1       6.562   4.458  15.232  0.00  0.00    +0.000 A 
ATOM      7  N   UNL     1       5.917   4.178  16.408  0.00  0.00    +0.000 N 
ATOM      8  C   UNL     1       6.047   5.004  17.505  0.00  0.00    +0.000 C 
ATOM      9  O   UNL     1       6.687   6.050  17.562  0.00  0.00    +0.000 OA
ATOM     10  S   UNL     1       6.022   3.570  13.875  0.00  0.00    +0.000 S 
ATOM     11  H   UNL     1       5.255   3.413  16.397  0.00  0.00    +0.000 HD
ENDBRANCH   1   8
BRANCH   1  12
ATOM     12  C   UNL     1       4.206   3.524  18.516  0.00  0.00    +0.000 C 
ATOM     13  O   UNL     1       3.332   4.020  17.470  0.00  0.00    +0.000 OA
ATOM     14  C   UNL     1       2.021   4.025  17.861  0.00  0.00    +0.000 C 
ATOM     15  O   UNL     1       1.085   4.420  17.197  0.00  0.00    +0.000 OA
ATOM     16  C   UNL     1       1.985   3.528  19.226  0.00  0.00    +0.000 A 
ATOM     17  C   UNL     1       0.880   3.345  20.038  0.00  0.00    +0.000 A 
ATOM     18  C   UNL     1       1.098   2.822  21.311  0.00  0.00    +0.000 A 
ATOM     19  C   UNL     1       2.400   2.506  21.734  0.00  0.00    +0.000 A 
ATOM     20  C   UNL     1       3.502   2.717  20.895  0.00  0.00    +0.000 A 
ATOM     21  C   UNL     1       3.275   3.242  19.634  0.00  0.00    +0.000 A 
ENDBRANCH   1  12
TORSDOF 2
ENDMDL
MODEL 3
REMARK VINA RESULT:      -7.5      1.188      1.194
REMARK  Name = 
REMARK  3 active torsions:
REMARK  status: ('A' for Active; 'I' for Inactive)
REMARK    1  A    between atoms: C_1  and  C_2
REMARK    2  A    between atoms: C_7  and  C_9
REMARK    3  A    between atoms: C_9  and  C_10
REMARK                            x       y       z     vdW  Elec       q    Type
REMARK                         _______ _______ _______ _____ _____    ______ ____
ROOT
ATOM      1  C   UNL     1       2.854   7.009  18.065  0.00  0.00    +0.000 C 
ENDROOT
BRANCH   1   8
ATOM      2  C   UNL     1      -0.768  11.953  22.506  0.00  0.00    +0.000 C 
ATOM      3  C   UNL     1      -0.248  11.120  21.392  0.00  0.00    +0.000 A 
ATOM      4  C   UNL     1      -0.272  11.375  20.036  0.00  0.00    +0.000 A 
ATOM      5  N   UNL     1       0.358  10.442  19.243  0.00  0.00    +0.000 NA
ATOM      6  C   UNL     1       0.844   9.487  19.992  0.00  0.00    +0.000 A 
ATOM      7  N   UNL     1       1.577   8.394  19.613  0.00  0.00    +0.000 N 
ATOM      8  C   UNL     1       2.143   8.317  18.357  0.00  0.00    +0.000 C 
ATOM      9  O   UNL     1       2.098   9.174  17.480  0.00  0.00    +0.000 OA
ATOM     10  S   UNL     1       0.527   9.609  21.667  0.00  0.00    +0.000 S 
ATOM     11  H   UNL     1       1.783   7.710  20.330  0.00  0.00    +0.000 HD
ENDBRANCH   1   8
BRANCH   1  12
ATOM     12  C   UNL     1       3.382   6.264  19.281  0.00  0.00    +0.000 C 
ATOM     13  O   UNL     1       4.731   5.797  19.021  0.00  0.00    +0.000 OA
ATOM     14  C   UNL     1       4.867   4.461  19.281  0.00  0.00    +0.000 C 
ATOM     15  O   UNL     1       5.876   3.807  19.119  0.00  0.00    +0.000 OA
ATOM     16  C   UNL     1       3.568   3.983  19.725  0.00  0.00    +0.000 A 
ATOM     17  C   UNL     1       3.218   2.701  20.110  0.00  0.00    +0.000 A 
ATOM     18  C   UNL     1       1.905   2.492  20.528  0.00  0.00    +0.000 A 
ATOM     19  C   UNL     1       0.988   3.557  20.544  0.00  0.00    +0.000 A 
ATOM     20  C   UNL     1       1.368   4.842  20.133  0.00  0.00    +0.000 A 
ATOM     21  C   UNL     1       2.674   5.037  19.714  0.00  0.00    +0.000 A 
ENDBRANCH   1  12
TORSDOF 2
ENDMDL
MODEL 4
REMARK VINA RESULT:      -7.4      2.096      2.269
REMARK  Name = 
REMARK  3 active torsions:
REMARK  status: ('A' for Active; 'I' for Inactive)
REMARK    1  A    between atoms: C_1  and  C_2
REMARK    2  A    between atoms: C_7  and  C_9
REMARK    3  A    between atoms: C_9  and  C_10
REMARK                            x       y       z     vdW  Elec       q    Type
REMARK                         _______ _______ _______ _____ _____    ______ ____
ROOT
ATOM      1  C   UNL     1       2.611   6.767  19.863  0.00  0.00    +0.000 C 
ENDROOT
BRANCH   1   8
ATOM      2  C   UNL     1      -1.660  12.051  23.198  0.00  0.00    +0.000 C 
ATOM      3  C   UNL     1      -0.990  11.107  22.267  0.00  0.00    +0.000 A 
ATOM      4  C   UNL     1      -0.881  11.179  20.893  0.00  0.00    +0.000 A 
ATOM      5  N   UNL     1      -0.133  10.184  20.303  0.00  0.00    +0.000 NA
ATOM      6  C   UNL     1       0.309   9.366  21.221  0.00  0.00    +0.000 A 
ATOM      7  N   UNL     1       1.122   8.273  21.070  0.00  0.00    +0.000 N 
ATOM      8  C   UNL     1       1.820   8.061  19.900  0.00  0.00    +0.000 C 
ATOM      9  O   UNL     1       1.834   8.791  18.913  0.00  0.00    +0.000 OA
ATOM     10  S   UNL     1      -0.189   9.691  22.823  0.00  0.00    +0.000 S 
ATOM     11  H   UNL     1       1.277   7.702  21.891  0.00  0.00    +0.000 HD
ENDBRANCH   1   8
BRANCH   1  12
ATOM     12  C   UNL     1       1.787   5.492  19.944  0.00  0.00    +0.000 C 
ATOM     13  O   UNL     1       1.891   4.926  21.277  0.00  0.00    +0.000 OA
ATOM     14  C   UNL     1       2.249   3.606  21.243  0.00  0.00    +0.000 C 
ATOM     15  O   UNL     1       2.440   2.900  22.211  0.00  0.00    +0.000 OA
ATOM     16  C   UNL     1       2.411   3.248  19.844  0.00  0.00    +0.000 A 
ATOM     17  C   UNL     1       2.758   2.018  19.314  0.00  0.00    +0.000 A 
ATOM     18  C   UNL     1       2.822   1.912  17.926  0.00  0.00    +0.000 A 
ATOM     19  C   UNL     1       2.545   3.026  17.116  0.00  0.00    +0.000 A 
ATOM     20  C   UNL     1       2.210   4.264  17.682  0.00  0.00    +0.000 A 
ATOM     21  C   UNL     1       2.156   4.360  19.063  0.00  0.00    +0.000 A 
ENDBRANCH   1  12
TORSDOF 2
ENDMDL
MODEL 5
REMARK VINA RESULT:      -7.4      1.866      2.549
REMARK  Name = 
REMARK  3 active torsions:
REMARK  status: ('A' for Active; 'I' for Inactive)
REMARK    1  A    between atoms: C_1  and  C_2
REMARK    2  A    between atoms: C_7  and  C_9
REMARK    3  A    between atoms: C_9  and  C_10
REMARK                            x       y       z     vdW  Elec       q    Type
REMARK                         _______ _______ _______ _____ _____    ______ ____
ROOT
ATOM      1  C   UNL     1       2.908   6.201  19.615  0.00  0.00    +0.000 C 
ENDROOT
BRANCH   1   8
ATOM      2  C   UNL     1      -1.126  11.657  22.968  0.00  0.00    +0.000 C 
ATOM      3  C   UNL     1      -0.504  10.683  22.035  0.00  0.00    +0.000 A 
ATOM      4  C   UNL     1      -0.413  10.740  20.659  0.00  0.00    +0.000 A 
ATOM      5  N   UNL     1       0.292   9.716  20.066  0.00  0.00    +0.000 NA
ATOM      6  C   UNL     1       0.718   8.889  20.984  0.00  0.00    +0.000 A 
ATOM      7  N   UNL     1       1.490   7.768  20.831  0.00  0.00    +0.000 N 
ATOM      8  C   UNL     1       2.163   7.522  19.653  0.00  0.00    +0.000 C 
ATOM      9  O   UNL     1       2.188   8.244  18.659  0.00  0.00    +0.000 OA
ATOM     10  S   UNL     1       0.256   9.243  22.591  0.00  0.00    +0.000 S 
ATOM     11  H   UNL     1       1.637   7.198  21.654  0.00  0.00    +0.000 HD
ENDBRANCH   1   8
BRANCH   1  12
ATOM     12  C   UNL     1       2.771   5.408  18.324  0.00  0.00    +0.000 C 
ATOM     13  O   UNL     1       2.596   4.001  18.632  0.00  0.00    +0.000 OA
ATOM     14  C   UNL     1       3.484   3.216  17.947  0.00  0.00    +0.000 C 
ATOM     15  O   UNL     1       3.581   2.010  18.040  0.00  0.00    +0.000 OA
ATOM     16  C   UNL     1       4.308   4.108  17.149  0.00  0.00    +0.000 A 
ATOM     17  C   UNL     1       5.336   3.773  16.285  0.00  0.00    +0.000 A 
ATOM     18  C   UNL     1       5.965   4.813  15.603  0.00  0.00    +0.000 A 
ATOM     19  C   UNL     1       5.557   6.142  15.804  0.00  0.00    +0.000 A 
ATOM     20  C   UNL     1       4.522   6.452  16.697  0.00  0.00    +0.000 A 
ATOM     21  C   UNL     1       3.908   5.412  17.375  0.00  0.00    +0.000 A 
ENDBRANCH   1  12
TORSDOF 2
ENDMDL
MODEL 6
REMARK VINA RESULT:      -7.4      2.348      3.770
REMARK  Name = 
REMARK  3 active torsions:
REMARK  status: ('A' for Active; 'I' for Inactive)
REMARK    1  A    between atoms: C_1  and  C_2
REMARK    2  A    between atoms: C_7  and  C_9
REMARK    3  A    between atoms: C_9  and  C_10
REMARK                            x       y       z     vdW  Elec       q    Type
REMARK                         _______ _______ _______ _____ _____    ______ ____
ROOT
ATOM      1  C   UNL     1       2.835   3.597  17.844  0.00  0.00    +0.000 C 
ENDROOT
BRANCH   1   8
ATOM      2  C   UNL     1       1.130  10.844  19.205  0.00  0.00    +0.000 C 
ATOM      3  C   UNL     1       1.513   9.411  19.272  0.00  0.00    +0.000 A 
ATOM      4  C   UNL     1       1.472   8.553  20.353  0.00  0.00    +0.000 A 
ATOM      5  N   UNL     1       1.825   7.248  20.091  0.00  0.00    +0.000 NA
ATOM      6  C   UNL     1       2.138   7.124  18.828  0.00  0.00    +0.000 A 
ATOM      7  N   UNL     1       2.501   5.993  18.146  0.00  0.00    +0.000 N 
ATOM      8  C   UNL     1       2.307   4.740  18.689  0.00  0.00    +0.000 C 
ATOM      9  O   UNL     1       1.786   4.484  19.771  0.00  0.00    +0.000 OA
ATOM     10  S   UNL     1       2.094   8.556  17.897  0.00  0.00    +0.000 S 
ATOM     11  H   UNL     1       2.803   6.113  17.188  0.00  0.00    +0.000 HD
ENDBRANCH   1   8
BRANCH   1  12
ATOM     12  C   UNL     1       4.336   3.368  17.914  0.00  0.00    +0.000 C 
ATOM     13  O   UNL     1       4.856   3.912  19.155  0.00  0.00    +0.000 OA
ATOM     14  C   UNL     1       5.916   4.750  18.939  0.00  0.00    +0.000 C 
ATOM     15  O   UNL     1       6.518   5.366  19.793  0.00  0.00    +0.000 OA
ATOM     16  C   UNL     1       6.131   4.797  17.502  0.00  0.00    +0.000 A 
ATOM     17  C   UNL     1       7.097   5.504  16.808  0.00  0.00    +0.000 A 
ATOM     18  C   UNL     1       7.121   5.365  15.421  0.00  0.00    +0.000 A 
ATOM     19  C   UNL     1       6.187   4.538  14.775  0.00  0.00    +0.000 A 
ATOM     20  C   UNL     1       5.211   3.846  15.504  0.00  0.00    +0.000 A 
ATOM     21  C   UNL     1       5.192   3.995  16.881  0.00  0.00    +0.000 A 
ENDBRANCH   1  12
TORSDOF 2
ENDMDL
MODEL 7
REMARK VINA RESULT:      -7.3      2.032      2.840
REMARK  Name = 
REMARK  3 active torsions:
REMARK  status: ('A' for Active; 'I' for Inactive)
REMARK    1  A    between atoms: C_1  and  C_2
REMARK    2  A    between atoms: C_7  and  C_9
REMARK    3  A    between atoms: C_9  and  C_10
REMARK                            x       y       z     vdW  Elec       q    Type
REMARK                         _______ _______ _______ _____ _____    ______ ____
ROOT
ATOM      1  C   UNL     1       2.898   6.127  18.186  0.00  0.00    +0.000 C 
ENDROOT
BRANCH   1   8
ATOM      2  C   UNL     1      -0.607  11.458  22.259  0.00  0.00    +0.000 C 
ATOM      3  C   UNL     1       0.196  10.312  21.760  0.00  0.00    +0.000 A 
ATOM      4  C   UNL     1       0.635   9.198  22.448  0.00  0.00    +0.000 A 
ATOM      5  N   UNL     1       1.305   8.260  21.695  0.00  0.00    +0.000 NA
ATOM      6  C   UNL     1       1.381   8.666  20.456  0.00  0.00    +0.000 A 
ATOM      7  N   UNL     1       1.924   8.019  19.377  0.00  0.00    +0.000 N 
ATOM      8  C   UNL     1       2.231   6.675  19.433  0.00  0.00    +0.000 C 
ATOM      9  O   UNL     1       2.039   5.919  20.382  0.00  0.00    +0.000 OA
ATOM     10  S   UNL     1       0.720  10.207  20.125  0.00  0.00    +0.000 S 
ATOM     11  H   UNL     1       1.977   8.538  18.510  0.00  0.00    +0.000 HD
ENDBRANCH   1   8
BRANCH   1  12
ATOM     12  C   UNL     1       3.921   5.026  18.419  0.00  0.00    +0.000 C 
ATOM     13  O   UNL     1       4.774   5.381  19.538  0.00  0.00    +0.000 OA
ATOM     14  C   UNL     1       6.101   5.287  19.216  0.00  0.00    +0.000 C 
ATOM     15  O   UNL     1       7.028   5.556  19.950  0.00  0.00    +0.000 OA
ATOM     16  C   UNL     1       6.170   4.866  17.827  0.00  0.00    +0.000 A 
ATOM     17  C   UNL     1       7.299   4.628  17.064  0.00  0.00    +0.000 A 
ATOM     18  C   UNL     1       7.108   4.200  15.751  0.00  0.00    +0.000 A 
ATOM     19  C   UNL     1       5.810   4.029  15.243  0.00  0.00    +0.000 A 
ATOM     20  C   UNL     1       4.684   4.293  16.035  0.00  0.00    +0.000 A 
ATOM     21  C   UNL     1       4.885   4.723  17.336  0.00  0.00    +0.000 A 
ENDBRANCH   1  12
TORSDOF 2
ENDMDL
MODEL 8
REMARK VINA RESULT:      -7.3      4.504      7.140
REMARK  Name = 
REMARK  3 active torsions:
REMARK  status: ('A' for Active; 'I' for Inactive)
REMARK    1  A    between atoms: C_1  and  C_2
REMARK    2  A    between atoms: C_7  and  C_9
REMARK    3  A    between atoms: C_9  and  C_10
REMARK                            x       y       z     vdW  Elec       q    Type
REMARK                         _______ _______ _______ _____ _____    ______ ____
ROOT
ATOM      1  C   UNL     1       5.122   5.851  18.371  0.00  0.00    +0.000 C 
ENDROOT
BRANCH   1   8
ATOM      2  C   UNL     1       7.029   3.662  11.381  0.00  0.00    +0.000 C 
ATOM      3  C   UNL     1       6.972   4.206  12.762  0.00  0.00    +0.000 A 
ATOM      4  C   UNL     1       7.770   5.168  13.347  0.00  0.00    +0.000 A 
ATOM      5  N   UNL     1       7.429   5.523  14.633  0.00  0.00    +0.000 NA
ATOM      6  C   UNL     1       6.392   4.828  15.019  0.00  0.00    +0.000 A 
ATOM      7  N   UNL     1       5.710   4.899  16.205  0.00  0.00    +0.000 N 
ATOM      8  C   UNL     1       5.889   5.961  17.067  0.00  0.00    +0.000 C 
ATOM      9  O   UNL     1       6.611   6.937  16.886  0.00  0.00    +0.000 OA
ATOM     10  S   UNL     1       5.803   3.672  13.906  0.00  0.00    +0.000 S 
ATOM     11  H   UNL     1       4.988   4.207  16.360  0.00  0.00    +0.000 HD
ENDBRANCH   1   8
BRANCH   1  12
ATOM     12  C   UNL     1       3.608   5.906  18.248  0.00  0.00    +0.000 C 
ATOM     13  O   UNL     1       3.066   6.786  19.266  0.00  0.00    +0.000 OA
ATOM     14  C   UNL     1       2.071   6.182  19.986  0.00  0.00    +0.000 C 
ATOM     15  O   UNL     1       1.470   6.676  20.917  0.00  0.00    +0.000 OA
ATOM     16  C   UNL     1       1.927   4.835  19.458  0.00  0.00    +0.000 A 
ATOM     17  C   UNL     1       1.041   3.852  19.862  0.00  0.00    +0.000 A 
ATOM     18  C   UNL     1       1.072   2.639  19.177  0.00  0.00    +0.000 A 
ATOM     19  C   UNL     1       1.981   2.443  18.124  0.00  0.00    +0.000 A 
ATOM     20  C   UNL     1       2.878   3.452  17.747  0.00  0.00    +0.000 A 
ATOM     21  C   UNL     1       2.842   4.652  18.438  0.00  0.00    +0.000 A 
ENDBRANCH   1  12
TORSDOF 2
ENDMDL
MODEL 9
REMARK VINA RESULT:      -7.3      2.200      3.307
REMARK  Name = 
REMARK  3 active torsions:
REMARK  status: ('A' for Active; 'I' for Inactive)
REMARK    1  A    between atoms: C_1  and  C_2
REMARK    2  A    between atoms: C_7  and  C_9
REMARK    3  A    between atoms: C_9  and  C_10
REMARK                            x       y       z     vdW  Elec       q    Type
REMARK                         _______ _______ _______ _____ _____    ______ ____
ROOT
ATOM      1  C   UNL     1       4.961   4.877  18.128  0.00  0.00    +0.000 C 
ENDROOT
BRANCH   1   8
ATOM      2  C   UNL     1       0.408  10.727  19.654  0.00  0.00    +0.000 C 
ATOM      3  C   UNL     1       1.259   9.679  19.035  0.00  0.00    +0.000 A 
ATOM      4  C   UNL     1       1.876   9.682  17.800  0.00  0.00    +0.000 A 
ATOM      5  N   UNL     1       2.669   8.589  17.528  0.00  0.00    +0.000 NA
ATOM      6  C   UNL     1       2.641   7.765  18.541  0.00  0.00    +0.000 A 
ATOM      7  N   UNL     1       3.318   6.585  18.700  0.00  0.00    +0.000 N 
ATOM      8  C   UNL     1       4.370   6.250  17.873  0.00  0.00    +0.000 C 
ATOM      9  O   UNL     1       4.833   6.934  16.964  0.00  0.00    +0.000 OA
ATOM     10  S   UNL     1       1.627   8.206  19.845  0.00  0.00    +0.000 S 
ATOM     11  H   UNL     1       3.091   6.033  19.518  0.00  0.00    +0.000 HD
ENDBRANCH   1   8
BRANCH   1  12
ATOM     12  C   UNL     1       3.979   3.718  18.069  0.00  0.00    +0.000 C 
ATOM     13  O   UNL     1       2.912   4.029  17.135  0.00  0.00    +0.000 OA
ATOM     14  C   UNL     1       1.677   3.852  17.697  0.00  0.00    +0.000 C 
ATOM     15  O   UNL     1       0.615   4.071  17.153  0.00  0.00    +0.000 OA
ATOM     16  C   UNL     1       1.893   3.417  19.066  0.00  0.00    +0.000 A 
ATOM     17  C   UNL     1       0.942   3.105  20.022  0.00  0.00    +0.000 A 
ATOM     18  C   UNL     1       1.400   2.679  21.267  0.00  0.00    +0.000 A 
ATOM     19  C   UNL     1       2.778   2.582  21.521  0.00  0.00    +0.000 A 
ATOM     20  C   UNL     1       3.718   2.920  20.539  0.00  0.00    +0.000 A 
ATOM     21  C   UNL     1       3.253   3.348  19.306  0.00  0.00    +0.000 A 
ENDBRANCH   1  12
TORSDOF 2
ENDMDL
