MODEL 1
REMARK VINA RESULT:      -6.9      0.000      0.000
REMARK  Name = 
REMARK  12 active torsions:
REMARK  status: ('A' for Active; 'I' for Inactive)
REMARK    1  A    between atoms: C_1  and  O_2
REMARK    2  A    between atoms: O_2  and  C_3
REMARK    3  A    between atoms: C_3  and  C_4
REMARK    4  A    between atoms: C_4  and  C_5
REMARK    5  A    between atoms: C_5  and  C_6
REMARK    6  A    between atoms: C_5  and  C_26
REMARK    7  A    between atoms: C_6  and  C_7
REMARK    8  A    between atoms: C_7  and  C_8
REMARK    9  A    between atoms: N_10  and  C_11
REMARK   10  A    between atoms: C_11  and  C_12
REMARK   11  A    between atoms: C_12  and  O_13
REMARK   12  A    between atoms: C_26  and  O_28
REMARK                            x       y       z     vdW  Elec       q    Type
REMARK                         _______ _______ _______ _____ _____    ______ ____
ROOT
ATOM      1  C   UNL     1       2.994   7.381  18.053  0.00  0.00    +0.000 C 
ATOM      2  O   UNL     1       3.110   7.958  16.972  0.00  0.00    +0.000 OA
ATOM      3  N   UNL     1       2.101   7.829  19.000  0.00  0.00    +0.000 N 
ATOM      4  H   UNL     1       2.135   7.420  19.922  0.00  0.00    +0.000 HD
ENDROOT
BRANCH   3   5
ATOM      5  C   UNL     1       1.461   9.176  18.909  0.00  0.00    +0.000 C 
ATOM      6  C   UNL     1       0.334   9.196  17.820  0.00  0.00    +0.000 C 
ATOM      7  C   UNL     1      -0.623  10.215  18.373  0.00  0.00    +0.000 A 
ATOM      8  C   UNL     1      -1.625  10.901  17.706  0.00  0.00    +0.000 A 
ATOM      9  C   UNL     1      -2.404  11.805  18.431  0.00  0.00    +0.000 A 
ATOM     10  C   UNL     1      -2.184  12.001  19.805  0.00  0.00    +0.000 A 
ATOM     11  C   UNL     1      -1.180  11.297  20.469  0.00  0.00    +0.000 A 
ATOM     12  C   UNL     1      -0.403  10.414  19.739  0.00  0.00    +0.000 A 
ATOM     13  C   UNL     1       0.713   9.542  20.229  0.00  0.00    +0.000 C 
BRANCH   5  14
ATOM     14  C   UNL     1       2.512  10.273  18.560  0.00  0.00    +0.000 C 
BRANCH  14  15
ATOM     15  O   UNL     1       2.300  10.755  17.229  0.00  0.00    +0.000 OA
ATOM     16  H   UNL     1       2.525  11.702  17.262  0.00  0.00    +0.000 HD
ENDBRANCH  14  15
ENDBRANCH   5  14
ENDBRANCH   3   5
BRANCH   1  17
ATOM     17  C   UNL     1       3.792   6.078  18.317  0.00  0.00    +0.000 C 
ATOM     18  C   UNL     1       3.238   4.946  17.414  0.00  0.00    +0.000 C 
ATOM     19  C   UNL     1       2.048   4.364  18.158  0.00  0.00    +0.000 C 
ATOM     20  C   UNL     1       2.350   4.577  19.635  0.00  0.00    +0.000 C 
ATOM     21  C   UNL     1       3.612   5.445  19.706  0.00  0.00    +0.000 C 
BRANCH  17  22
ATOM     22  C   UNL     1       5.288   6.306  17.904  0.00  0.00    +0.000 C 
BRANCH  22  23
ATOM     23  C   UNL     1       6.419   5.352  18.365  0.00  0.00    +0.000 C 
BRANCH  23  24
ATOM     24  C   UNL     1       7.556   6.114  19.013  0.00  0.00    +0.000 C 
ATOM     25  O   UNL     1       8.056   7.130  18.553  0.00  0.00    +0.000 OA
BRANCH  24  26
ATOM     26  O   UNL     1       7.950   5.584  20.192  0.00  0.00    +0.000 OA
ATOM     27  H   UNL     1       7.862   6.196  20.947  0.00  0.00    +0.000 HD
ENDBRANCH  24  26
ENDBRANCH  23  24
BRANCH  23  28
ATOM     28  C   UNL     1       6.944   4.385  17.291  0.00  0.00    +0.000 C 
BRANCH  28  29
ATOM     29  C   UNL     1       6.609   4.809  15.857  0.00  0.00    +0.000 C 
BRANCH  29  31
ATOM     30  C   UNL     1       6.088   3.940  13.729  0.00  0.00    +0.000 C 
ATOM     31  O   UNL     1       6.115   3.683  15.129  0.00  0.00    +0.000 OA
ENDBRANCH  29  31
ENDBRANCH  28  29
ENDBRANCH  23  28
ENDBRANCH  22  23
ENDBRANCH  17  22
ENDBRANCH   1  17
TORSDOF 11
ENDMDL
MODEL 2
REMARK VINA RESULT:      -6.9      1.075      1.269
REMARK  Name = 
REMARK  12 active torsions:
REMARK  status: ('A' for Active; 'I' for Inactive)
REMARK    1  A    between atoms: C_1  and  O_2
REMARK    2  A    between atoms: O_2  and  C_3
REMARK    3  A    between atoms: C_3  and  C_4
REMARK    4  A    between atoms: C_4  and  C_5
REMARK    5  A    between atoms: C_5  and  C_6
REMARK    6  A    between atoms: C_5  and  C_26
REMARK    7  A    between atoms: C_6  and  C_7
REMARK    8  A    between atoms: C_7  and  C_8
REMARK    9  A    between atoms: N_10  and  C_11
REMARK   10  A    between atoms: C_11  and  C_12
REMARK   11  A    between atoms: C_12  and  O_13
REMARK   12  A    between atoms: C_26  and  O_28
REMARK                            x       y       z     vdW  Elec       q    Type
REMARK                         _______ _______ _______ _____ _____    ______ ____
ROOT
ATOM      1  C   UNL     1       2.319   6.979  18.834  0.00  0.00    +0.000 C 
ATOM      2  O   UNL     1       2.212   7.240  17.637  0.00  0.00    +0.000 OA
ATOM      3  N   UNL     1       1.750   7.793  19.788  0.00  0.00    +0.000 N 
ATOM      4  H   UNL     1       1.978   7.627  20.757  0.00  0.00    +0.000 HD
ENDROOT
BRANCH   3   5
ATOM      5  C   UNL     1       1.251   9.163  19.463  0.00  0.00    +0.000 C 
ATOM      6  C   UNL     1      -0.062   9.099  18.609  0.00  0.00    +0.000 C 
ATOM      7  C   UNL     1      -0.778  10.351  19.034  0.00  0.00    +0.000 A 
ATOM      8  C   UNL     1      -1.815  11.006  18.391  0.00  0.00    +0.000 A 
ATOM      9  C   UNL     1      -2.334  12.162  18.979  0.00  0.00    +0.000 A 
ATOM     10  C   UNL     1      -1.825  12.636  20.199  0.00  0.00    +0.000 A 
ATOM     11  C   UNL     1      -0.788  11.962  20.844  0.00  0.00    +0.000 A 
ATOM     12  C   UNL     1      -0.270  10.827  20.246  0.00  0.00    +0.000 A 
ATOM     13  C   UNL     1       0.823   9.934  20.750  0.00  0.00    +0.000 C 
BRANCH   5  14
ATOM     14  C   UNL     1       2.320   9.977  18.672  0.00  0.00    +0.000 C 
BRANCH  14  15
ATOM     15  O   UNL     1       1.918  10.126  17.308  0.00  0.00    +0.000 OA
ATOM     16  H   UNL     1       0.944  10.141  17.329  0.00  0.00    +0.000 HD
ENDBRANCH  14  15
ENDBRANCH   5  14
ENDBRANCH   3   5
BRANCH   1  17
ATOM     17  C   UNL     1       3.021   5.668  19.274  0.00  0.00    +0.000 C 
ATOM     18  C   UNL     1       2.774   4.572  18.206  0.00  0.00    +0.000 C 
ATOM     19  C   UNL     1       1.425   3.958  18.541  0.00  0.00    +0.000 C 
ATOM     20  C   UNL     1       1.273   4.113  20.048  0.00  0.00    +0.000 C 
ATOM     21  C   UNL     1       2.446   4.980  20.523  0.00  0.00    +0.000 C 
BRANCH  17  22
ATOM     22  C   UNL     1       4.568   5.914  19.332  0.00  0.00    +0.000 C 
BRANCH  22  23
ATOM     23  C   UNL     1       5.504   5.526  18.160  0.00  0.00    +0.000 C 
BRANCH  23  24
ATOM     24  C   UNL     1       6.851   5.050  18.660  0.00  0.00    +0.000 C 
ATOM     25  O   UNL     1       7.659   4.430  17.983  0.00  0.00    +0.000 OA
BRANCH  24  26
ATOM     26  O   UNL     1       7.106   5.414  19.936  0.00  0.00    +0.000 OA
ATOM     27  H   UNL     1       6.789   6.309  20.161  0.00  0.00    +0.000 HD
ENDBRANCH  24  26
ENDBRANCH  23  24
BRANCH  23  28
ATOM     28  C   UNL     1       5.668   6.596  17.067  0.00  0.00    +0.000 C 
BRANCH  28  29
ATOM     29  C   UNL     1       5.322   6.102  15.658  0.00  0.00    +0.000 C 
BRANCH  29  31
ATOM     30  C   UNL     1       6.317   4.211  14.665  0.00  0.00    +0.000 C 
ATOM     31  O   UNL     1       6.494   5.574  15.035  0.00  0.00    +0.000 OA
ENDBRANCH  29  31
ENDBRANCH  28  29
ENDBRANCH  23  28
ENDBRANCH  22  23
ENDBRANCH  17  22
ENDBRANCH   1  17
TORSDOF 11
ENDMDL
MODEL 3
REMARK VINA RESULT:      -6.7      1.134      1.308
REMARK  Name = 
REMARK  12 active torsions:
REMARK  status: ('A' for Active; 'I' for Inactive)
REMARK    1  A    between atoms: C_1  and  O_2
REMARK    2  A    between atoms: O_2  and  C_3
REMARK    3  A    between atoms: C_3  and  C_4
REMARK    4  A    between atoms: C_4  and  C_5
REMARK    5  A    between atoms: C_5  and  C_6
REMARK    6  A    between atoms: C_5  and  C_26
REMARK    7  A    between atoms: C_6  and  C_7
REMARK    8  A    between atoms: C_7  and  C_8
REMARK    9  A    between atoms: N_10  and  C_11
REMARK   10  A    between atoms: C_11  and  C_12
REMARK   11  A    between atoms: C_12  and  O_13
REMARK   12  A    between atoms: C_26  and  O_28
REMARK                            x       y       z     vdW  Elec       q    Type
REMARK                         _______ _______ _______ _____ _____    ______ ____
ROOT
ATOM      1  C   UNL     1       2.367   7.488  18.344  0.00  0.00    +0.000 C 
ATOM      2  O   UNL     1       2.212   7.920  17.202  0.00  0.00    +0.000 OA
ATOM      3  N   UNL     1       1.760   8.100  19.418  0.00  0.00    +0.000 N 
ATOM      4  H   UNL     1       2.023   7.807  20.347  0.00  0.00    +0.000 HD
ENDROOT
BRANCH   3   5
ATOM      5  C   UNL     1       1.150   9.460  19.313  0.00  0.00    +0.000 C 
ATOM      6  C   UNL     1      -0.077   9.456  18.338  0.00  0.00    +0.000 C 
ATOM      7  C   UNL     1      -0.949  10.533  18.921  0.00  0.00    +0.000 A 
ATOM      8  C   UNL     1      -1.993  11.212  18.316  0.00  0.00    +0.000 A 
ATOM      9  C   UNL     1      -2.674  12.179  19.060  0.00  0.00    +0.000 A 
ATOM     10  C   UNL     1      -2.316  12.441  20.393  0.00  0.00    +0.000 A 
ATOM     11  C   UNL     1      -1.270  11.743  20.996  0.00  0.00    +0.000 A 
ATOM     12  C   UNL     1      -0.592  10.798  20.246  0.00  0.00    +0.000 A 
ATOM     13  C   UNL     1       0.544   9.919  20.676  0.00  0.00    +0.000 C 
BRANCH   5  14
ATOM     14  C   UNL     1       2.189  10.503  18.802  0.00  0.00    +0.000 C 
BRANCH  14  15
ATOM     15  O   UNL     1       2.070  10.668  17.387  0.00  0.00    +0.000 OA
ATOM     16  H   UNL     1       2.972  10.862  17.076  0.00  0.00    +0.000 HD
ENDBRANCH  14  15
ENDBRANCH   5  14
ENDBRANCH   3   5
BRANCH   1  17
ATOM     17  C   UNL     1       3.176   6.185  18.569  0.00  0.00    +0.000 C 
ATOM     18  C   UNL     1       2.417   4.994  17.931  0.00  0.00    +0.000 C 
ATOM     19  C   UNL     1       1.404   4.540  18.970  0.00  0.00    +0.000 C 
ATOM     20  C   UNL     1       2.023   4.886  20.317  0.00  0.00    +0.000 C 
ATOM     21  C   UNL     1       3.289   5.702  20.024  0.00  0.00    +0.000 C 
BRANCH  17  22
ATOM     22  C   UNL     1       4.552   6.306  17.825  0.00  0.00    +0.000 C 
BRANCH  22  23
ATOM     23  C   UNL     1       5.211   5.094  17.120  0.00  0.00    +0.000 C 
BRANCH  23  24
ATOM     24  C   UNL     1       6.241   4.430  18.008  0.00  0.00    +0.000 C 
ATOM     25  O   UNL     1       7.432   4.708  18.012  0.00  0.00    +0.000 OA
BRANCH  24  26
ATOM     26  O   UNL     1       5.712   3.511  18.846  0.00  0.00    +0.000 OA
ATOM     27  H   UNL     1       5.062   2.919  18.422  0.00  0.00    +0.000 HD
ENDBRANCH  24  26
ENDBRANCH  23  24
BRANCH  23  28
ATOM     28  C   UNL     1       5.788   5.378  15.723  0.00  0.00    +0.000 C 
BRANCH  28  29
ATOM     29  C   UNL     1       5.577   4.238  14.720  0.00  0.00    +0.000 C 
BRANCH  29  31
ATOM     30  C   UNL     1       6.350   3.631  12.579  0.00  0.00    +0.000 C 
ATOM     31  O   UNL     1       6.710   4.146  13.856  0.00  0.00    +0.000 OA
ENDBRANCH  29  31
ENDBRANCH  28  29
ENDBRANCH  23  28
ENDBRANCH  22  23
ENDBRANCH  17  22
ENDBRANCH   1  17
TORSDOF 11
ENDMDL
MODEL 4
REMARK VINA RESULT:      -6.6      2.210      4.174
REMARK  Name = 
REMARK  12 active torsions:
REMARK  status: ('A' for Active; 'I' for Inactive)
REMARK    1  A    between atoms: C_1  and  O_2
REMARK    2  A    between atoms: O_2  and  C_3
REMARK    3  A    between atoms: C_3  and  C_4
REMARK    4  A    between atoms: C_4  and  C_5
REMARK    5  A    between atoms: C_5  and  C_6
REMARK    6  A    between atoms: C_5  and  C_26
REMARK    7  A    between atoms: C_6  and  C_7
REMARK    8  A    between atoms: C_7  and  C_8
REMARK    9  A    between atoms: N_10  and  C_11
REMARK   10  A    between atoms: C_11  and  C_12
REMARK   11  A    between atoms: C_12  and  O_13
REMARK   12  A    between atoms: C_26  and  O_28
REMARK                            x       y       z     vdW  Elec       q    Type
REMARK                         _______ _______ _______ _____ _____    ______ ____
ROOT
ATOM      1  C   UNL     1       5.037   6.407  18.152  0.00  0.00    +0.000 C 
ATOM      2  O   UNL     1       4.868   5.840  19.232  0.00  0.00    +0.000 OA
ATOM      3  N   UNL     1       4.106   7.300  17.671  0.00  0.00    +0.000 N 
ATOM      4  H   UNL     1       4.208   7.634  16.724  0.00  0.00    +0.000 HD
ENDROOT
BRANCH   3   5
ATOM      5  C   UNL     1       2.733   7.403  18.252  0.00  0.00    +0.000 C 
ATOM      6  C   UNL     1       2.782   7.435  19.818  0.00  0.00    +0.000 C 
ATOM      7  C   UNL     1       1.579   8.269  20.156  0.00  0.00    +0.000 A 
ATOM      8  C   UNL     1       0.916   8.366  21.368  0.00  0.00    +0.000 A 
ATOM      9  C   UNL     1      -0.187   9.219  21.453  0.00  0.00    +0.000 A 
ATOM     10  C   UNL     1      -0.602   9.968  20.340  0.00  0.00    +0.000 A 
ATOM     11  C   UNL     1       0.080   9.872  19.127  0.00  0.00    +0.000 A 
ATOM     12  C   UNL     1       1.162   9.013  19.048  0.00  0.00    +0.000 A 
ATOM     13  C   UNL     1       2.053   8.754  17.871  0.00  0.00    +0.000 C 
BRANCH   5  14
ATOM     14  C   UNL     1       1.844   6.203  17.806  0.00  0.00    +0.000 C 
BRANCH  14  15
ATOM     15  O   UNL     1       1.987   5.114  18.722  0.00  0.00    +0.000 OA
ATOM     16  H   UNL     1       1.492   5.383  19.517  0.00  0.00    +0.000 HD
ENDBRANCH  14  15
ENDBRANCH   5  14
ENDBRANCH   3   5
BRANCH   1  17
ATOM     17  C   UNL     1       6.356   6.187  17.368  0.00  0.00    +0.000 C 
ATOM     18  C   UNL     1       7.173   5.057  18.047  0.00  0.00    +0.000 C 
ATOM     19  C   UNL     1       7.953   5.721  19.168  0.00  0.00    +0.000 C 
ATOM     20  C   UNL     1       8.186   7.153  18.707  0.00  0.00    +0.000 C 
ATOM     21  C   UNL     1       7.373   7.339  17.420  0.00  0.00    +0.000 C 
BRANCH  17  22
ATOM     22  C   UNL     1       6.011   5.699  15.919  0.00  0.00    +0.000 C 
BRANCH  22  23
ATOM     23  C   UNL     1       6.441   4.304  15.399  0.00  0.00    +0.000 C 
BRANCH  23  24
ATOM     24  C   UNL     1       6.801   4.346  13.930  0.00  0.00    +0.000 C 
ATOM     25  O   UNL     1       7.469   5.226  13.408  0.00  0.00    +0.000 OA
BRANCH  24  26
ATOM     26  O   UNL     1       6.345   3.278  13.238  0.00  0.00    +0.000 OA
ATOM     27  H   UNL     1       7.036   2.817  12.725  0.00  0.00    +0.000 HD
ENDBRANCH  24  26
ENDBRANCH  23  24
BRANCH  23  28
ATOM     28  C   UNL     1       5.456   3.160  15.695  0.00  0.00    +0.000 C 
BRANCH  28  29
ATOM     29  C   UNL     1       4.178   3.610  16.409  0.00  0.00    +0.000 C 
BRANCH  29  31
ATOM     30  C   UNL     1       3.344   1.950  17.859  0.00  0.00    +0.000 C 
ATOM     31  O   UNL     1       4.172   3.102  17.744  0.00  0.00    +0.000 OA
ENDBRANCH  29  31
ENDBRANCH  28  29
ENDBRANCH  23  28
ENDBRANCH  22  23
ENDBRANCH  17  22
ENDBRANCH   1  17
TORSDOF 11
ENDMDL
MODEL 5
REMARK VINA RESULT:      -6.5      4.972      6.644
REMARK  Name = 
REMARK  12 active torsions:
REMARK  status: ('A' for Active; 'I' for Inactive)
REMARK    1  A    between atoms: C_1  and  O_2
REMARK    2  A    between atoms: O_2  and  C_3
REMARK    3  A    between atoms: C_3  and  C_4
REMARK    4  A    between atoms: C_4  and  C_5
REMARK    5  A    between atoms: C_5  and  C_6
REMARK    6  A    between atoms: C_5  and  C_26
REMARK    7  A    between atoms: C_6  and  C_7
REMARK    8  A    between atoms: C_7  and  C_8
REMARK    9  A    between atoms: N_10  and  C_11
REMARK   10  A    between atoms: C_11  and  C_12
REMARK   11  A    between atoms: C_12  and  O_13
REMARK   12  A    between atoms: C_26  and  O_28
REMARK                            x       y       z     vdW  Elec       q    Type
REMARK                         _______ _______ _______ _____ _____    ______ ____
ROOT
ATOM      1  C   UNL     1       4.938   4.891  17.118  0.00  0.00    +0.000 C 
ATOM      2  O   UNL     1       4.054   5.568  17.642  0.00  0.00    +0.000 OA
ATOM      3  N   UNL     1       4.882   3.516  17.144  0.00  0.00    +0.000 N 
ATOM      4  H   UNL     1       5.690   2.998  16.832  0.00  0.00    +0.000 HD
ENDROOT
BRANCH   3   5
ATOM      5  C   UNL     1       3.945   2.778  18.044  0.00  0.00    +0.000 C 
ATOM      6  C   UNL     1       4.384   2.903  19.543  0.00  0.00    +0.000 C 
ATOM      7  C   UNL     1       3.069   2.834  20.266  0.00  0.00    +0.000 A 
ATOM      8  C   UNL     1       2.838   2.556  21.603  0.00  0.00    +0.000 A 
ATOM      9  C   UNL     1       1.518   2.553  22.061  0.00  0.00    +0.000 A 
ATOM     10  C   UNL     1       0.456   2.840  21.188  0.00  0.00    +0.000 A 
ATOM     11  C   UNL     1       0.700   3.130  19.846  0.00  0.00    +0.000 A 
ATOM     12  C   UNL     1       2.009   3.115  19.398  0.00  0.00    +0.000 A 
ATOM     13  C   UNL     1       2.517   3.408  18.019  0.00  0.00    +0.000 C 
BRANCH   5  14
ATOM     14  C   UNL     1       3.878   1.267  17.667  0.00  0.00    +0.000 C 
BRANCH  14  15
ATOM     15  O   UNL     1       4.494   0.476  18.688  0.00  0.00    +0.000 OA
ATOM     16  H   UNL     1       5.216  -0.000  18.240  0.00  0.00    +0.000 HD
ENDBRANCH  14  15
ENDBRANCH   5  14
ENDBRANCH   3   5
BRANCH   1  17
ATOM     17  C   UNL     1       6.080   5.591  16.337  0.00  0.00    +0.000 C 
ATOM     18  C   UNL     1       5.517   6.164  15.011  0.00  0.00    +0.000 C 
ATOM     19  C   UNL     1       5.544   5.017  14.016  0.00  0.00    +0.000 C 
ATOM     20  C   UNL     1       6.699   4.127  14.454  0.00  0.00    +0.000 C 
ATOM     21  C   UNL     1       7.191   4.676  15.800  0.00  0.00    +0.000 C 
BRANCH  17  22
ATOM     22  C   UNL     1       6.601   6.807  17.179  0.00  0.00    +0.000 C 
BRANCH  22  23
ATOM     23  C   UNL     1       7.858   6.701  18.080  0.00  0.00    +0.000 C 
BRANCH  23  24
ATOM     24  C   UNL     1       7.634   5.748  19.234  0.00  0.00    +0.000 C 
ATOM     25  O   UNL     1       8.511   5.067  19.747  0.00  0.00    +0.000 OA
BRANCH  24  26
ATOM     26  O   UNL     1       6.361   5.745  19.686  0.00  0.00    +0.000 OA
ATOM     27  H   UNL     1       5.826   5.000  19.353  0.00  0.00    +0.000 HD
ENDBRANCH  24  26
ENDBRANCH  23  24
BRANCH  23  28
ATOM     28  C   UNL     1       8.428   8.042  18.574  0.00  0.00    +0.000 C 
BRANCH  28  29
ATOM     29  C   UNL     1       8.064   9.237  17.686  0.00  0.00    +0.000 C 
BRANCH  29  31
ATOM     30  C   UNL     1       9.722  10.827  18.212  0.00  0.00    +0.000 C 
ATOM     31  O   UNL     1       8.358  10.452  18.377  0.00  0.00    +0.000 OA
ENDBRANCH  29  31
ENDBRANCH  28  29
ENDBRANCH  23  28
ENDBRANCH  22  23
ENDBRANCH  17  22
ENDBRANCH   1  17
TORSDOF 11
ENDMDL
MODEL 6
REMARK VINA RESULT:      -6.5      1.808      2.152
REMARK  Name = 
REMARK  12 active torsions:
REMARK  status: ('A' for Active; 'I' for Inactive)
REMARK    1  A    between atoms: C_1  and  O_2
REMARK    2  A    between atoms: O_2  and  C_3
REMARK    3  A    between atoms: C_3  and  C_4
REMARK    4  A    between atoms: C_4  and  C_5
REMARK    5  A    between atoms: C_5  and  C_6
REMARK    6  A    between atoms: C_5  and  C_26
REMARK    7  A    between atoms: C_6  and  C_7
REMARK    8  A    between atoms: C_7  and  C_8
REMARK    9  A    between atoms: N_10  and  C_11
REMARK   10  A    between atoms: C_11  and  C_12
REMARK   11  A    between atoms: C_12  and  O_13
REMARK   12  A    between atoms: C_26  and  O_28
REMARK                            x       y       z     vdW  Elec       q    Type
REMARK                         _______ _______ _______ _____ _____    ______ ____
ROOT
ATOM      1  C   UNL     1       2.360   6.903  19.503  0.00  0.00    +0.000 C 
ATOM      2  O   UNL     1       2.392   7.561  18.464  0.00  0.00    +0.000 OA
ATOM      3  N   UNL     1       1.699   7.372  20.616  0.00  0.00    +0.000 N 
ATOM      4  H   UNL     1       1.814   6.875  21.486  0.00  0.00    +0.000 HD
ENDROOT
BRANCH   3   5
ATOM      5  C   UNL     1       1.259   8.795  20.733  0.00  0.00    +0.000 C 
ATOM      6  C   UNL     1       1.800   9.655  19.540  0.00  0.00    +0.000 C 
ATOM      7  C   UNL     1       0.726  10.695  19.387  0.00  0.00    +0.000 A 
ATOM      8  C   UNL     1       0.799  11.914  18.732  0.00  0.00    +0.000 A 
ATOM      9  C   UNL     1      -0.338  12.725  18.712  0.00  0.00    +0.000 A 
ATOM     10  C   UNL     1      -1.528  12.305  19.328  0.00  0.00    +0.000 A 
ATOM     11  C   UNL     1      -1.595  11.071  19.974  0.00  0.00    +0.000 A 
ATOM     12  C   UNL     1      -0.459  10.282  20.002  0.00  0.00    +0.000 A 
ATOM     13  C   UNL     1      -0.291   8.924  20.615  0.00  0.00    +0.000 C 
BRANCH   5  14
ATOM     14  C   UNL     1       1.756   9.427  22.069  0.00  0.00    +0.000 C 
BRANCH  14  15
ATOM     15  O   UNL     1       0.690   9.473  23.021  0.00  0.00    +0.000 OA
ATOM     16  H   UNL     1       1.101   9.781  23.849  0.00  0.00    +0.000 HD
ENDBRANCH  14  15
ENDBRANCH   5  14
ENDBRANCH   3   5
BRANCH   1  17
ATOM     17  C   UNL     1       2.988   5.486  19.533  0.00  0.00    +0.000 C 
ATOM     18  C   UNL     1       2.636   4.741  18.219  0.00  0.00    +0.000 C 
ATOM     19  C   UNL     1       1.261   4.133  18.440  0.00  0.00    +0.000 C 
ATOM     20  C   UNL     1       1.168   3.874  19.938  0.00  0.00    +0.000 C 
ATOM     21  C   UNL     1       2.410   4.512  20.573  0.00  0.00    +0.000 C 
BRANCH  17  22
ATOM     22  C   UNL     1       4.549   5.622  19.580  0.00  0.00    +0.000 C 
BRANCH  22  23
ATOM     23  C   UNL     1       5.432   5.372  18.331  0.00  0.00    +0.000 C 
BRANCH  23  24
ATOM     24  C   UNL     1       6.841   4.979  18.717  0.00  0.00    +0.000 C 
ATOM     25  O   UNL     1       7.615   4.378  17.987  0.00  0.00    +0.000 OA
BRANCH  24  26
ATOM     26  O   UNL     1       7.193   5.399  19.953  0.00  0.00    +0.000 OA
ATOM     27  H   UNL     1       7.900   4.866  20.364  0.00  0.00    +0.000 HD
ENDBRANCH  24  26
ENDBRANCH  23  24
BRANCH  23  28
ATOM     28  C   UNL     1       5.440   6.508  17.293  0.00  0.00    +0.000 C 
BRANCH  28  29
ATOM     29  C   UNL     1       5.313   6.025  15.844  0.00  0.00    +0.000 C 
BRANCH  29  31
ATOM     30  C   UNL     1       6.778   4.707  14.551  0.00  0.00    +0.000 C 
ATOM     31  O   UNL     1       6.612   5.933  15.255  0.00  0.00    +0.000 OA
ENDBRANCH  29  31
ENDBRANCH  28  29
ENDBRANCH  23  28
ENDBRANCH  22  23
ENDBRANCH  17  22
ENDBRANCH   1  17
TORSDOF 11
ENDMDL
MODEL 7
REMARK VINA RESULT:      -6.4      1.688      1.992
REMARK  Name = 
REMARK  12 active torsions:
REMARK  status: ('A' for Active; 'I' for Inactive)
REMARK    1  A    between atoms: C_1  and  O_2
REMARK    2  A    between atoms: O_2  and  C_3
REMARK    3  A    between atoms: C_3  and  C_4
REMARK    4  A    between atoms: C_4  and  C_5
REMARK    5  A    between atoms: C_5  and  C_6
REMARK    6  A    between atoms: C_5  and  C_26
REMARK    7  A    between atoms: C_6  and  C_7
REMARK    8  A    between atoms: C_7  and  C_8
REMARK    9  A    between atoms: N_10  and  C_11
REMARK   10  A    between atoms: C_11  and  C_12
REMARK   11  A    between atoms: C_12  and  O_13
REMARK   12  A    between atoms: C_26  and  O_28
REMARK                            x       y       z     vdW  Elec       q    Type
REMARK                         _______ _______ _______ _____ _____    ______ ____
ROOT
ATOM      1  C   UNL     1       2.170   7.469  18.875  0.00  0.00    +0.000 C 
ATOM      2  O   UNL     1       1.828   8.022  17.829  0.00  0.00    +0.000 OA
ATOM      3  N   UNL     1       1.721   7.926  20.094  0.00  0.00    +0.000 N 
ATOM      4  H   UNL     1       2.133   7.541  20.930  0.00  0.00    +0.000 HD
ENDROOT
BRANCH   3   5
ATOM      5  C   UNL     1       1.066   9.260  20.247  0.00  0.00    +0.000 C 
ATOM      6  C   UNL     1       1.769  10.342  19.356  0.00  0.00    +0.000 C 
ATOM      7  C   UNL     1       0.634  11.271  19.031  0.00  0.00    +0.000 A 
ATOM      8  C   UNL     1       0.699  12.575  18.566  0.00  0.00    +0.000 A 
ATOM      9  C   UNL     1      -0.499  13.252  18.324  0.00  0.00    +0.000 A 
ATOM     10  C   UNL     1      -1.735  12.620  18.534  0.00  0.00    +0.000 A 
ATOM     11  C   UNL     1      -1.789  11.303  18.992  0.00  0.00    +0.000 A 
ATOM     12  C   UNL     1      -0.598  10.645  19.243  0.00  0.00    +0.000 A 
ATOM     13  C   UNL     1      -0.402   9.237  19.719  0.00  0.00    +0.000 C 
BRANCH   5  14
ATOM     14  C   UNL     1       1.103   9.736  21.730  0.00  0.00    +0.000 C 
BRANCH  14  15
ATOM     15  O   UNL     1       1.936   8.871  22.507  0.00  0.00    +0.000 OA
ATOM     16  H   UNL     1       2.824   9.268  22.466  0.00  0.00    +0.000 HD
ENDBRANCH  14  15
ENDBRANCH   5  14
ENDBRANCH   3   5
BRANCH   1  17
ATOM     17  C   UNL     1       3.040   6.187  18.817  0.00  0.00    +0.000 C 
ATOM     18  C   UNL     1       2.379   5.163  17.858  0.00  0.00    +0.000 C 
ATOM     19  C   UNL     1       1.345   4.421  18.689  0.00  0.00    +0.000 C 
ATOM     20  C   UNL     1       1.880   4.443  20.114  0.00  0.00    +0.000 C 
ATOM     21  C   UNL     1       3.110   5.359  20.109  0.00  0.00    +0.000 C 
BRANCH  17  22
ATOM     22  C   UNL     1       4.440   6.549  18.209  0.00  0.00    +0.000 C 
BRANCH  22  23
ATOM     23  C   UNL     1       5.433   5.459  17.734  0.00  0.00    +0.000 C 
BRANCH  23  24
ATOM     24  C   UNL     1       6.099   4.767  18.903  0.00  0.00    +0.000 C 
ATOM     25  O   UNL     1       6.817   5.327  19.719  0.00  0.00    +0.000 OA
BRANCH  24  26
ATOM     26  O   UNL     1       5.788   3.455  18.995  0.00  0.00    +0.000 OA
ATOM     27  H   UNL     1       4.999   3.274  19.542  0.00  0.00    +0.000 HD
ENDBRANCH  24  26
ENDBRANCH  23  24
BRANCH  23  28
ATOM     28  C   UNL     1       6.475   5.923  16.701  0.00  0.00    +0.000 C 
BRANCH  28  29
ATOM     29  C   UNL     1       7.176   4.775  15.967  0.00  0.00    +0.000 C 
BRANCH  29  31
ATOM     30  C   UNL     1       6.094   3.950  14.043  0.00  0.00    +0.000 C 
ATOM     31  O   UNL     1       6.199   3.864  15.460  0.00  0.00    +0.000 OA
ENDBRANCH  29  31
ENDBRANCH  28  29
ENDBRANCH  23  28
ENDBRANCH  22  23
ENDBRANCH  17  22
ENDBRANCH   1  17
TORSDOF 11
ENDMDL
MODEL 8
REMARK VINA RESULT:      -6.3      2.403      7.778
REMARK  Name = 
REMARK  12 active torsions:
REMARK  status: ('A' for Active; 'I' for Inactive)
REMARK    1  A    between atoms: C_1  and  O_2
REMARK    2  A    between atoms: O_2  and  C_3
REMARK    3  A    between atoms: C_3  and  C_4
REMARK    4  A    between atoms: C_4  and  C_5
REMARK    5  A    between atoms: C_5  and  C_6
REMARK    6  A    between atoms: C_5  and  C_26
REMARK    7  A    between atoms: C_6  and  C_7
REMARK    8  A    between atoms: C_7  and  C_8
REMARK    9  A    between atoms: N_10  and  C_11
REMARK   10  A    between atoms: C_11  and  C_12
REMARK   11  A    between atoms: C_12  and  O_13
REMARK   12  A    between atoms: C_26  and  O_28
REMARK                            x       y       z     vdW  Elec       q    Type
REMARK                         _______ _______ _______ _____ _____    ______ ____
ROOT
ATOM      1  C   UNL     1       2.925   5.230  19.266  0.00  0.00    +0.000 C 
ATOM      2  O   UNL     1       2.472   5.042  18.137  0.00  0.00    +0.000 OA
ATOM      3  N   UNL     1       4.266   5.481  19.455  0.00  0.00    +0.000 N 
ATOM      4  H   UNL     1       4.622   5.488  20.399  0.00  0.00    +0.000 HD
ENDROOT
BRANCH   3   5
ATOM      5  C   UNL     1       5.275   5.241  18.380  0.00  0.00    +0.000 C 
ATOM      6  C   UNL     1       5.015   3.878  17.652  0.00  0.00    +0.000 C 
ATOM      7  C   UNL     1       5.519   4.158  16.265  0.00  0.00    +0.000 A 
ATOM      8  C   UNL     1       5.861   3.249  15.277  0.00  0.00    +0.000 A 
ATOM      9  C   UNL     1       6.306   3.743  14.048  0.00  0.00    +0.000 A 
ATOM     10  C   UNL     1       6.388   5.126  13.818  0.00  0.00    +0.000 A 
ATOM     11  C   UNL     1       6.030   6.033  14.816  0.00  0.00    +0.000 A 
ATOM     12  C   UNL     1       5.606   5.534  16.035  0.00  0.00    +0.000 A 
ATOM     13  C   UNL     1       5.158   6.302  17.242  0.00  0.00    +0.000 C 
BRANCH   5  14
ATOM     14  C   UNL     1       6.721   5.227  18.962  0.00  0.00    +0.000 C 
BRANCH  14  15
ATOM     15  O   UNL     1       7.400   6.442  18.631  0.00  0.00    +0.000 OA
ATOM     16  H   UNL     1       7.279   7.021  19.405  0.00  0.00    +0.000 HD
ENDBRANCH  14  15
ENDBRANCH   5  14
ENDBRANCH   3   5
BRANCH   1  17
ATOM     17  C   UNL     1       1.963   5.280  20.480  0.00  0.00    +0.000 C 
ATOM     18  C   UNL     1       2.538   4.407  21.626  0.00  0.00    +0.000 C 
ATOM     19  C   UNL     1       2.089   2.986  21.333  0.00  0.00    +0.000 C 
ATOM     20  C   UNL     1       0.774   3.124  20.577  0.00  0.00    +0.000 C 
ATOM     21  C   UNL     1       0.590   4.618  20.283  0.00  0.00    +0.000 C 
BRANCH  17  22
ATOM     22  C   UNL     1       1.894   6.753  21.015  0.00  0.00    +0.000 C 
BRANCH  22  23
ATOM     23  C   UNL     1       0.868   7.776  20.467  0.00  0.00    +0.000 C 
BRANCH  23  24
ATOM     24  C   UNL     1       1.488   8.680  19.424  0.00  0.00    +0.000 C 
ATOM     25  O   UNL     1       1.201   9.859  19.273  0.00  0.00    +0.000 OA
BRANCH  24  26
ATOM     26  O   UNL     1       2.440   8.068  18.685  0.00  0.00    +0.000 OA
ATOM     27  H   UNL     1       2.528   7.113  18.868  0.00  0.00    +0.000 HD
ENDBRANCH  24  26
ENDBRANCH  23  24
BRANCH  23  28
ATOM     28  C   UNL     1       0.122   8.596  21.534  0.00  0.00    +0.000 C 
BRANCH  28  29
ATOM     29  C   UNL     1       1.040   9.234  22.582  0.00  0.00    +0.000 C 
BRANCH  29  31
ATOM     30  C   UNL     1      -0.927  10.404  23.143  0.00  0.00    +0.000 C 
ATOM     31  O   UNL     1       0.252   9.778  23.641  0.00  0.00    +0.000 OA
ENDBRANCH  29  31
ENDBRANCH  28  29
ENDBRANCH  23  28
ENDBRANCH  22  23
ENDBRANCH  17  22
ENDBRANCH   1  17
TORSDOF 11
ENDMDL
MODEL 9
REMARK VINA RESULT:      -6.3      2.312      7.433
REMARK  Name = 
REMARK  12 active torsions:
REMARK  status: ('A' for Active; 'I' for Inactive)
REMARK    1  A    between atoms: C_1  and  O_2
REMARK    2  A    between atoms: O_2  and  C_3
REMARK    3  A    between atoms: C_3  and  C_4
REMARK    4  A    between atoms: C_4  and  C_5
REMARK    5  A    between atoms: C_5  and  C_6
REMARK    6  A    between atoms: C_5  and  C_26
REMARK    7  A    between atoms: C_6  and  C_7
REMARK    8  A    between atoms: C_7  and  C_8
REMARK    9  A    between atoms: N_10  and  C_11
REMARK   10  A    between atoms: C_11  and  C_12
REMARK   11  A    between atoms: C_12  and  O_13
REMARK   12  A    between atoms: C_26  and  O_28
REMARK                            x       y       z     vdW  Elec       q    Type
REMARK                         _______ _______ _______ _____ _____    ______ ____
ROOT
ATOM      1  C   UNL     1       2.570   5.070  19.134  0.00  0.00    +0.000 C 
ATOM      2  O   UNL     1       2.165   5.060  17.972  0.00  0.00    +0.000 OA
ATOM      3  N   UNL     1       3.902   5.280  19.415  0.00  0.00    +0.000 N 
ATOM      4  H   UNL     1       4.219   5.140  20.363  0.00  0.00    +0.000 HD
ENDROOT
BRANCH   3   5
ATOM      5  C   UNL     1       4.955   5.202  18.359  0.00  0.00    +0.000 C 
ATOM      6  C   UNL     1       4.934   3.811  17.639  0.00  0.00    +0.000 C 
ATOM      7  C   UNL     1       5.411   4.161  16.257  0.00  0.00    +0.000 A 
ATOM      8  C   UNL     1       5.914   3.315  15.283  0.00  0.00    +0.000 A 
ATOM      9  C   UNL     1       6.293   3.867  14.057  0.00  0.00    +0.000 A 
ATOM     10  C   UNL     1       6.152   5.244  13.817  0.00  0.00    +0.000 A 
ATOM     11  C   UNL     1       5.633   6.086  14.801  0.00  0.00    +0.000 A 
ATOM     12  C   UNL     1       5.275   5.532  16.017  0.00  0.00    +0.000 A 
ATOM     13  C   UNL     1       4.687   6.223  17.210  0.00  0.00    +0.000 C 
BRANCH   5  14
ATOM     14  C   UNL     1       6.374   5.428  18.965  0.00  0.00    +0.000 C 
BRANCH  14  15
ATOM     15  O   UNL     1       7.237   4.340  18.622  0.00  0.00    +0.000 OA
ATOM     16  H   UNL     1       6.673   3.547  18.656  0.00  0.00    +0.000 HD
ENDBRANCH  14  15
ENDBRANCH   5  14
ENDBRANCH   3   5
BRANCH   1  17
ATOM     17  C   UNL     1       1.558   4.939  20.301  0.00  0.00    +0.000 C 
ATOM     18  C   UNL     1       2.321   4.578  21.602  0.00  0.00    +0.000 C 
ATOM     19  C   UNL     1       2.488   3.068  21.582  0.00  0.00    +0.000 C 
ATOM     20  C   UNL     1       1.299   2.538  20.794  0.00  0.00    +0.000 C 
ATOM     21  C   UNL     1       0.575   3.760  20.214  0.00  0.00    +0.000 C 
BRANCH  17  22
ATOM     22  C   UNL     1       0.873   6.329  20.539  0.00  0.00    +0.000 C 
BRANCH  22  23
ATOM     23  C   UNL     1       1.696   7.635  20.678  0.00  0.00    +0.000 C 
BRANCH  23  24
ATOM     24  C   UNL     1       1.070   8.582  21.678  0.00  0.00    +0.000 C 
ATOM     25  O   UNL     1       1.679   9.455  22.278  0.00  0.00    +0.000 OA
BRANCH  24  26
ATOM     26  O   UNL     1      -0.262   8.401  21.822  0.00  0.00    +0.000 OA
ATOM     27  H   UNL     1      -0.519   7.474  21.985  0.00  0.00    +0.000 HD
ENDBRANCH  24  26
ENDBRANCH  23  24
BRANCH  23  28
ATOM     28  C   UNL     1       2.013   8.357  19.357  0.00  0.00    +0.000 C 
BRANCH  28  29
ATOM     29  C   UNL     1       0.942   9.366  18.929  0.00  0.00    +0.000 C 
BRANCH  29  31
ATOM     30  C   UNL     1       1.167  11.655  19.441  0.00  0.00    +0.000 C 
ATOM     31  O   UNL     1       1.564  10.601  18.571  0.00  0.00    +0.000 OA
ENDBRANCH  29  31
ENDBRANCH  28  29
ENDBRANCH  23  28
ENDBRANCH  22  23
ENDBRANCH  17  22
ENDBRANCH   1  17
TORSDOF 11
ENDMDL
