MODEL 1
REMARK VINA RESULT:      -7.0      0.000      0.000
REMARK  Name = 
REMARK  4 active torsions:
REMARK  status: ('A' for Active; 'I' for Inactive)
REMARK    1  A    between atoms: C_1  and  C_2
REMARK    2  A    between atoms: C_5  and  C_6
REMARK    3  A    between atoms: C_6  and  N_7
REMARK    4  A    between atoms: C_16  and  C_17
REMARK                            x       y       z     vdW  Elec       q    Type
REMARK                         _______ _______ _______ _____ _____    ______ ____
ROOT
ATOM      1  C   UNL     1       6.810   4.079  12.276  0.00  0.00    +0.000 C 
ATOM      2  C   UNL     1       6.396   4.177  13.704  0.00  0.00    +0.000 A 
ATOM      3  C   UNL     1       5.381   3.499  14.259  0.00  0.00    +0.000 A 
ATOM      4  N   UNL     1       4.957   3.714  15.538  0.00  0.00    +0.000 N 
ATOM      5  C   UNL     1       5.501   4.690  16.356  0.00  0.00    +0.000 A 
ATOM      6  C   UNL     1       6.620   5.353  15.987  0.00  0.00    +0.000 A 
ATOM      7  C   UNL     1       7.397   6.328  16.811  0.00  0.00    +0.000 C 
ATOM      8  C   UNL     1       7.146   5.111  14.600  0.00  0.00    +0.000 A 
ATOM      9  O   UNL     1       8.157   5.682  14.195  0.00  0.00    +0.000 OA
ATOM     10  H   UNL     1       4.213   3.128  15.904  0.00  0.00    +0.000 HD
ENDROOT
BRANCH   5  11
ATOM     11  C   UNL     1       4.744   4.991  17.650  0.00  0.00    +0.000 C 
BRANCH  11  12
ATOM     12  N   UNL     1       3.277   5.060  17.483  0.00  0.00    +0.000 NA
ATOM     13  C   UNL     1       2.706   6.139  18.332  0.00  0.00    +0.000 C 
ATOM     14  C   UNL     1       2.637   5.828  19.856  0.00  0.00    +0.000 C 
ATOM     15  N   UNL     1       1.964   4.558  20.097  0.00  0.00    +0.000 NA
ATOM     16  C   UNL     1       1.966   4.065  21.467  0.00  0.00    +0.000 C 
ATOM     17  C   UNL     1       1.597   2.585  21.290  0.00  0.00    +0.000 C 
ATOM     18  C   UNL     1       1.669   2.330  19.776  0.00  0.00    +0.000 C 
ATOM     19  C   UNL     1       2.551   3.472  19.302  0.00  0.00    +0.000 C 
ATOM     20  C   UNL     1       2.559   3.792  17.798  0.00  0.00    +0.000 C 
ENDBRANCH  11  12
ENDBRANCH   5  11
TORSDOF 2
ENDMDL
MODEL 2
REMARK VINA RESULT:      -6.8      1.042      1.702
REMARK  Name = 
REMARK  4 active torsions:
REMARK  status: ('A' for Active; 'I' for Inactive)
REMARK    1  A    between atoms: C_1  and  C_2
REMARK    2  A    between atoms: C_5  and  C_6
REMARK    3  A    between atoms: C_6  and  N_7
REMARK    4  A    between atoms: C_16  and  C_17
REMARK                            x       y       z     vdW  Elec       q    Type
REMARK                         _______ _______ _______ _____ _____    ______ ____
ROOT
ATOM      1  C   UNL     1       6.950   3.907  12.434  0.00  0.00    +0.000 C 
ATOM      2  C   UNL     1       6.361   4.216  13.767  0.00  0.00    +0.000 A 
ATOM      3  C   UNL     1       5.226   3.689  14.248  0.00  0.00    +0.000 A 
ATOM      4  N   UNL     1       4.658   4.095  15.420  0.00  0.00    +0.000 N 
ATOM      5  C   UNL     1       5.173   5.127  16.186  0.00  0.00    +0.000 A 
ATOM      6  C   UNL     1       6.384   5.655  15.906  0.00  0.00    +0.000 A 
ATOM      7  C   UNL     1       7.129   6.670  16.712  0.00  0.00    +0.000 C 
ATOM      8  C   UNL     1       7.066   5.202  14.645  0.00  0.00    +0.000 A 
ATOM      9  O   UNL     1       8.168   5.643  14.323  0.00  0.00    +0.000 OA
ATOM     10  H   UNL     1       3.823   3.615  15.742  0.00  0.00    +0.000 HD
ENDROOT
BRANCH   5  11
ATOM     11  C   UNL     1       4.281   5.643  17.316  0.00  0.00    +0.000 C 
BRANCH  11  12
ATOM     12  N   UNL     1       4.743   5.257  18.667  0.00  0.00    +0.000 NA
ATOM     13  C   UNL     1       5.146   3.826  18.691  0.00  0.00    +0.000 C 
ATOM     14  C   UNL     1       3.978   2.798  18.667  0.00  0.00    +0.000 C 
ATOM     15  N   UNL     1       3.010   3.089  19.717  0.00  0.00    +0.000 NA
ATOM     16  C   UNL     1       1.784   2.302  19.714  0.00  0.00    +0.000 C 
ATOM     17  C   UNL     1       0.855   3.129  20.615  0.00  0.00    +0.000 C 
ATOM     18  C   UNL     1       1.590   4.459  20.839  0.00  0.00    +0.000 C 
ATOM     19  C   UNL     1       2.563   4.487  19.674  0.00  0.00    +0.000 C 
ATOM     20  C   UNL     1       3.739   5.475  19.747  0.00  0.00    +0.000 C 
ENDBRANCH  11  12
ENDBRANCH   5  11
TORSDOF 2
ENDMDL
MODEL 3
REMARK VINA RESULT:      -6.7      3.482      7.063
REMARK  Name = 
REMARK  4 active torsions:
REMARK  status: ('A' for Active; 'I' for Inactive)
REMARK    1  A    between atoms: C_1  and  C_2
REMARK    2  A    between atoms: C_5  and  C_6
REMARK    3  A    between atoms: C_6  and  N_7
REMARK    4  A    between atoms: C_16  and  C_17
REMARK                            x       y       z     vdW  Elec       q    Type
REMARK                         _______ _______ _______ _____ _____    ______ ____
ROOT
ATOM      1  C   UNL     1       0.153   9.340  22.572  0.00  0.00    +0.000 C 
ATOM      2  C   UNL     1       0.761   8.644  21.403  0.00  0.00    +0.000 A 
ATOM      3  C   UNL     1       1.196   7.376  21.403  0.00  0.00    +0.000 A 
ATOM      4  N   UNL     1       1.860   6.820  20.350  0.00  0.00    +0.000 N 
ATOM      5  C   UNL     1       2.194   7.534  19.211  0.00  0.00    +0.000 A 
ATOM      6  C   UNL     1       1.701   8.775  19.006  0.00  0.00    +0.000 A 
ATOM      7  C   UNL     1       1.858   9.611  17.778  0.00  0.00    +0.000 C 
ATOM      8  C   UNL     1       0.925   9.408  20.127  0.00  0.00    +0.000 A 
ATOM      9  O   UNL     1       0.451  10.537  20.014  0.00  0.00    +0.000 OA
ATOM     10  H   UNL     1       2.116   5.838  20.405  0.00  0.00    +0.000 HD
ENDROOT
BRANCH   5  11
ATOM     11  C   UNL     1       3.168   6.856  18.246  0.00  0.00    +0.000 C 
BRANCH  11  12
ATOM     12  N   UNL     1       3.356   5.412  18.503  0.00  0.00    +0.000 NA
ATOM     13  C   UNL     1       4.467   5.195  19.468  0.00  0.00    +0.000 C 
ATOM     14  C   UNL     1       5.901   5.402  18.899  0.00  0.00    +0.000 C 
ATOM     15  N   UNL     1       6.097   4.617  17.687  0.00  0.00    +0.000 NA
ATOM     16  C   UNL     1       7.340   4.835  16.959  0.00  0.00    +0.000 C 
ATOM     17  C   UNL     1       7.032   4.225  15.584  0.00  0.00    +0.000 C 
ATOM     18  C   UNL     1       5.522   3.941  15.598  0.00  0.00    +0.000 C 
ATOM     19  C   UNL     1       5.034   4.860  16.703  0.00  0.00    +0.000 C 
ATOM     20  C   UNL     1       3.635   4.600  17.284  0.00  0.00    +0.000 C 
ENDBRANCH  11  12
ENDBRANCH   5  11
TORSDOF 2
ENDMDL
MODEL 4
REMARK VINA RESULT:      -6.6      1.902      2.583
REMARK  Name = 
REMARK  4 active torsions:
REMARK  status: ('A' for Active; 'I' for Inactive)
REMARK    1  A    between atoms: C_1  and  C_2
REMARK    2  A    between atoms: C_5  and  C_6
REMARK    3  A    between atoms: C_6  and  N_7
REMARK    4  A    between atoms: C_16  and  C_17
REMARK                            x       y       z     vdW  Elec       q    Type
REMARK                         _______ _______ _______ _____ _____    ______ ____
ROOT
ATOM      1  C   UNL     1       7.177   5.141  13.762  0.00  0.00    +0.000 C 
ATOM      2  C   UNL     1       6.819   5.102  15.208  0.00  0.00    +0.000 A 
ATOM      3  C   UNL     1       7.417   4.334  16.128  0.00  0.00    +0.000 A 
ATOM      4  N   UNL     1       6.974   4.236  17.415  0.00  0.00    +0.000 N 
ATOM      5  C   UNL     1       5.833   4.878  17.867  0.00  0.00    +0.000 A 
ATOM      6  C   UNL     1       5.208   5.796  17.097  0.00  0.00    +0.000 A 
ATOM      7  C   UNL     1       4.057   6.664  17.492  0.00  0.00    +0.000 C 
ATOM      8  C   UNL     1       5.695   5.966  15.685  0.00  0.00    +0.000 A 
ATOM      9  O   UNL     1       5.171   6.780  14.925  0.00  0.00    +0.000 OA
ATOM     10  H   UNL     1       7.509   3.671  18.068  0.00  0.00    +0.000 HD
ENDROOT
BRANCH   5  11
ATOM     11  C   UNL     1       5.318   4.457  19.243  0.00  0.00    +0.000 C 
BRANCH  11  12
ATOM     12  N   UNL     1       5.008   3.015  19.350  0.00  0.00    +0.000 NA
ATOM     13  C   UNL     1       4.358   2.528  18.105  0.00  0.00    +0.000 C 
ATOM     14  C   UNL     1       2.873   2.954  17.910  0.00  0.00    +0.000 C 
ATOM     15  N   UNL     1       2.079   2.616  19.085  0.00  0.00    +0.000 NA
ATOM     16  C   UNL     1       0.705   3.098  19.106  0.00  0.00    +0.000 C 
ATOM     17  C   UNL     1       0.328   2.964  20.589  0.00  0.00    +0.000 C 
ATOM     18  C   UNL     1       1.645   2.645  21.312  0.00  0.00    +0.000 C 
ATOM     19  C   UNL     1       2.682   3.136  20.318  0.00  0.00    +0.000 C 
ATOM     20  C   UNL     1       4.131   2.657  20.502  0.00  0.00    +0.000 C 
ENDBRANCH  11  12
ENDBRANCH   5  11
TORSDOF 2
ENDMDL
MODEL 5
REMARK VINA RESULT:      -6.6      1.221      1.876
REMARK  Name = 
REMARK  4 active torsions:
REMARK  status: ('A' for Active; 'I' for Inactive)
REMARK    1  A    between atoms: C_1  and  C_2
REMARK    2  A    between atoms: C_5  and  C_6
REMARK    3  A    between atoms: C_6  and  N_7
REMARK    4  A    between atoms: C_16  and  C_17
REMARK                            x       y       z     vdW  Elec       q    Type
REMARK                         _______ _______ _______ _____ _____    ______ ____
ROOT
ATOM      1  C   UNL     1       7.290   4.417  11.713  0.00  0.00    +0.000 C 
ATOM      2  C   UNL     1       6.677   4.337  13.069  0.00  0.00    +0.000 A 
ATOM      3  C   UNL     1       5.594   3.613  13.383  0.00  0.00    +0.000 A 
ATOM      4  N   UNL     1       4.993   3.668  14.606  0.00  0.00    +0.000 N 
ATOM      5  C   UNL     1       5.416   4.521  15.613  0.00  0.00    +0.000 A 
ATOM      6  C   UNL     1       6.576   5.204  15.495  0.00  0.00    +0.000 A 
ATOM      7  C   UNL     1       7.228   6.051  16.539  0.00  0.00    +0.000 C 
ATOM      8  C   UNL     1       7.293   5.135  14.175  0.00  0.00    +0.000 A 
ATOM      9  O   UNL     1       8.351   5.735  13.994  0.00  0.00    +0.000 OA
ATOM     10  H   UNL     1       4.205   3.053  14.785  0.00  0.00    +0.000 HD
ENDROOT
BRANCH   5  11
ATOM     11  C   UNL     1       4.484   4.665  16.816  0.00  0.00    +0.000 C 
BRANCH  11  12
ATOM     12  N   UNL     1       4.800   3.748  17.931  0.00  0.00    +0.000 NA
ATOM     13  C   UNL     1       4.189   2.412  17.696  0.00  0.00    +0.000 C 
ATOM     14  C   UNL     1       2.649   2.330  17.908  0.00  0.00    +0.000 C 
ATOM     15  N   UNL     1       2.277   2.855  19.216  0.00  0.00    +0.000 NA
ATOM     16  C   UNL     1       0.852   2.986  19.488  0.00  0.00    +0.000 C 
ATOM     17  C   UNL     1       0.829   3.935  20.695  0.00  0.00    +0.000 C 
ATOM     18  C   UNL     1       2.269   4.452  20.829  0.00  0.00    +0.000 C 
ATOM     19  C   UNL     1       2.831   4.197  19.442  0.00  0.00    +0.000 C 
ATOM     20  C   UNL     1       4.358   4.230  19.271  0.00  0.00    +0.000 C 
ENDBRANCH  11  12
ENDBRANCH   5  11
TORSDOF 2
ENDMDL
MODEL 6
REMARK VINA RESULT:      -6.5      2.444      6.853
REMARK  Name = 
REMARK  4 active torsions:
REMARK  status: ('A' for Active; 'I' for Inactive)
REMARK    1  A    between atoms: C_1  and  C_2
REMARK    2  A    between atoms: C_5  and  C_6
REMARK    3  A    between atoms: C_6  and  N_7
REMARK    4  A    between atoms: C_16  and  C_17
REMARK                            x       y       z     vdW  Elec       q    Type
REMARK                         _______ _______ _______ _____ _____    ______ ____
ROOT
ATOM      1  C   UNL     1       1.875   3.322  21.782  0.00  0.00    +0.000 C 
ATOM      2  C   UNL     1       2.402   3.686  20.437  0.00  0.00    +0.000 A 
ATOM      3  C   UNL     1       2.993   2.835  19.586  0.00  0.00    +0.000 A 
ATOM      4  N   UNL     1       3.572   3.237  18.418  0.00  0.00    +0.000 N 
ATOM      5  C   UNL     1       3.651   4.567  18.037  0.00  0.00    +0.000 A 
ATOM      6  C   UNL     1       2.977   5.519  18.719  0.00  0.00    +0.000 A 
ATOM      7  C   UNL     1       2.854   6.964  18.355  0.00  0.00    +0.000 C 
ATOM      8  C   UNL     1       2.287   5.109  19.990  0.00  0.00    +0.000 A 
ATOM      9  O   UNL     1       1.659   5.923  20.664  0.00  0.00    +0.000 OA
ATOM     10  H   UNL     1       3.959   2.528  17.802  0.00  0.00    +0.000 HD
ENDROOT
BRANCH   5  11
ATOM     11  C   UNL     1       4.562   4.880  16.850  0.00  0.00    +0.000 C 
BRANCH  11  12
ATOM     12  N   UNL     1       5.662   3.909  16.668  0.00  0.00    +0.000 NA
ATOM     13  C   UNL     1       6.976   4.554  16.930  0.00  0.00    +0.000 C 
ATOM     14  C   UNL     1       7.485   5.519  15.820  0.00  0.00    +0.000 C 
ATOM     15  N   UNL     1       7.472   4.864  14.518  0.00  0.00    +0.000 NA
ATOM     16  C   UNL     1       7.773   5.698  13.362  0.00  0.00    +0.000 C 
ATOM     17  C   UNL     1       7.255   4.847  12.193  0.00  0.00    +0.000 C 
ATOM     18  C   UNL     1       6.469   3.700  12.846  0.00  0.00    +0.000 C 
ATOM     19  C   UNL     1       6.163   4.266  14.222  0.00  0.00    +0.000 C 
ATOM     20  C   UNL     1       5.714   3.283  15.316  0.00  0.00    +0.000 C 
ENDBRANCH  11  12
ENDBRANCH   5  11
TORSDOF 2
ENDMDL
MODEL 7
REMARK VINA RESULT:      -6.3      4.074      6.838
REMARK  Name = 
REMARK  4 active torsions:
REMARK  status: ('A' for Active; 'I' for Inactive)
REMARK    1  A    between atoms: C_1  and  C_2
REMARK    2  A    between atoms: C_5  and  C_6
REMARK    3  A    between atoms: C_6  and  N_7
REMARK    4  A    between atoms: C_16  and  C_17
REMARK                            x       y       z     vdW  Elec       q    Type
REMARK                         _______ _______ _______ _____ _____    ______ ____
ROOT
ATOM      1  C   UNL     1      -0.118  11.002  22.105  0.00  0.00    +0.000 C 
ATOM      2  C   UNL     1       0.477   9.901  21.296  0.00  0.00    +0.000 A 
ATOM      3  C   UNL     1       0.850   8.707  21.777  0.00  0.00    +0.000 A 
ATOM      4  N   UNL     1       1.505   7.776  21.025  0.00  0.00    +0.000 N 
ATOM      5  C   UNL     1       1.892   8.006  19.715  0.00  0.00    +0.000 A 
ATOM      6  C   UNL     1       1.462   9.102  19.052  0.00  0.00    +0.000 A 
ATOM      7  C   UNL     1       1.680   9.419  17.608  0.00  0.00    +0.000 C 
ATOM      8  C   UNL     1       0.698  10.133  19.835  0.00  0.00    +0.000 A 
ATOM      9  O   UNL     1       0.280  11.158  19.298  0.00  0.00    +0.000 OA
ATOM     10  H   UNL     1       1.713   6.875  21.447  0.00  0.00    +0.000 HD
ENDROOT
BRANCH   5  11
ATOM     11  C   UNL     1       2.849   6.983  19.102  0.00  0.00    +0.000 C 
BRANCH  11  12
ATOM     12  N   UNL     1       3.305   5.945  20.051  0.00  0.00    +0.000 NA
ATOM     13  C   UNL     1       4.369   5.108  19.436  0.00  0.00    +0.000 C 
ATOM     14  C   UNL     1       3.886   4.086  18.366  0.00  0.00    +0.000 C 
ATOM     15  N   UNL     1       2.804   3.260  18.889  0.00  0.00    +0.000 NA
ATOM     16  C   UNL     1       2.148   2.366  17.945  0.00  0.00    +0.000 C 
ATOM     17  C   UNL     1       0.845   2.009  18.675  0.00  0.00    +0.000 C 
ATOM     18  C   UNL     1       0.785   2.960  19.880  0.00  0.00    +0.000 C 
ATOM     19  C   UNL     1       1.722   4.076  19.454  0.00  0.00    +0.000 C 
ATOM     20  C   UNL     1       2.227   5.040  20.540  0.00  0.00    +0.000 C 
ENDBRANCH  11  12
ENDBRANCH   5  11
TORSDOF 2
ENDMDL
MODEL 8
REMARK VINA RESULT:      -6.3      1.143      1.243
REMARK  Name = 
REMARK  4 active torsions:
REMARK  status: ('A' for Active; 'I' for Inactive)
REMARK    1  A    between atoms: C_1  and  C_2
REMARK    2  A    between atoms: C_5  and  C_6
REMARK    3  A    between atoms: C_6  and  N_7
REMARK    4  A    between atoms: C_16  and  C_17
REMARK                            x       y       z     vdW  Elec       q    Type
REMARK                         _______ _______ _______ _____ _____    ______ ____
ROOT
ATOM      1  C   UNL     1       7.711   5.630  13.213  0.00  0.00    +0.000 C 
ATOM      2  C   UNL     1       7.067   4.881  14.329  0.00  0.00    +0.000 A 
ATOM      3  C   UNL     1       6.375   3.741  14.192  0.00  0.00    +0.000 A 
ATOM      4  N   UNL     1       5.698   3.157  15.222  0.00  0.00    +0.000 N 
ATOM      5  C   UNL     1       5.618   3.721  16.485  0.00  0.00    +0.000 A 
ATOM      6  C   UNL     1       6.378   4.789  16.811  0.00  0.00    +0.000 A 
ATOM      7  C   UNL     1       6.504   5.422  18.159  0.00  0.00    +0.000 C 
ATOM      8  C   UNL     1       7.176   5.437  15.714  0.00  0.00    +0.000 A 
ATOM      9  O   UNL     1       7.887   6.415  15.936  0.00  0.00    +0.000 OA
ATOM     10  H   UNL     1       5.235   2.269  15.053  0.00  0.00    +0.000 HD
ENDROOT
BRANCH   5  11
ATOM     11  C   UNL     1       4.606   3.095  17.445  0.00  0.00    +0.000 C 
BRANCH  11  12
ATOM     12  N   UNL     1       3.225   3.592  17.265  0.00  0.00    +0.000 NA
ATOM     13  C   UNL     1       3.103   4.987  17.766  0.00  0.00    +0.000 C 
ATOM     14  C   UNL     1       3.087   5.147  19.314  0.00  0.00    +0.000 C 
ATOM     15  N   UNL     1       2.076   4.284  19.913  0.00  0.00    +0.000 NA
ATOM     16  C   UNL     1       2.055   4.213  21.368  0.00  0.00    +0.000 C 
ATOM     17  C   UNL     1       1.227   2.946  21.628  0.00  0.00    +0.000 C 
ATOM     18  C   UNL     1       1.071   2.277  20.254  0.00  0.00    +0.000 C 
ATOM     19  C   UNL     1       2.216   2.891  19.468  0.00  0.00    +0.000 C 
ATOM     20  C   UNL     1       2.180   2.766  17.936  0.00  0.00    +0.000 C 
ENDBRANCH  11  12
ENDBRANCH   5  11
TORSDOF 2
ENDMDL
MODEL 9
REMARK VINA RESULT:      -6.2      2.512      6.542
REMARK  Name = 
REMARK  4 active torsions:
REMARK  status: ('A' for Active; 'I' for Inactive)
REMARK    1  A    between atoms: C_1  and  C_2
REMARK    2  A    between atoms: C_5  and  C_6
REMARK    3  A    between atoms: C_6  and  N_7
REMARK    4  A    between atoms: C_16  and  C_17
REMARK                            x       y       z     vdW  Elec       q    Type
REMARK                         _______ _______ _______ _____ _____    ______ ____
ROOT
ATOM      1  C   UNL     1       1.128   2.410  22.050  0.00  0.00    +0.000 C 
ATOM      2  C   UNL     1       1.850   3.252  21.055  0.00  0.00    +0.000 A 
ATOM      3  C   UNL     1       2.461   4.413  21.329  0.00  0.00    +0.000 A 
ATOM      4  N   UNL     1       3.002   5.212  20.364  0.00  0.00    +0.000 N 
ATOM      5  C   UNL     1       2.915   4.921  19.013  0.00  0.00    +0.000 A 
ATOM      6  C   UNL     1       2.457   3.721  18.594  0.00  0.00    +0.000 A 
ATOM      7  C   UNL     1       2.430   3.212  17.189  0.00  0.00    +0.000 C 
ATOM      8  C   UNL     1       1.892   2.792  19.632  0.00  0.00    +0.000 A 
ATOM      9  O   UNL     1       1.453   1.685  19.324  0.00  0.00    +0.000 OA
ATOM     10  H   UNL     1       3.491   6.054  20.653  0.00  0.00    +0.000 HD
ENDROOT
BRANCH   5  11
ATOM     11  C   UNL     1       3.323   6.038  18.051  0.00  0.00    +0.000 C 
BRANCH  11  12
ATOM     12  N   UNL     1       4.778   6.300  18.021  0.00  0.00    +0.000 NA
ATOM     13  C   UNL     1       5.095   7.366  17.034  0.00  0.00    +0.000 C 
ATOM     14  C   UNL     1       5.021   6.941  15.538  0.00  0.00    +0.000 C 
ATOM     15  N   UNL     1       5.822   5.747  15.298  0.00  0.00    +0.000 NA
ATOM     16  C   UNL     1       5.720   5.145  13.976  0.00  0.00    +0.000 C 
ATOM     17  C   UNL     1       6.300   3.741  14.204  0.00  0.00    +0.000 C 
ATOM     18  C   UNL     1       6.445   3.607  15.727  0.00  0.00    +0.000 C 
ATOM     19  C   UNL     1       5.483   4.667  16.234  0.00  0.00    +0.000 C 
ATOM     20  C   UNL     1       5.613   5.108  17.701  0.00  0.00    +0.000 C 
ENDBRANCH  11  12
ENDBRANCH   5  11
TORSDOF 2
ENDMDL
