MODEL 1
REMARK VINA RESULT:      -7.4      0.000      0.000
REMARK  Name = 
REMARK  2 active torsions:
REMARK  status: ('A' for Active; 'I' for Inactive)
REMARK    1  A    between atoms: C_2  and  C_16
REMARK    2  A    between atoms: N_3  and  N_4
REMARK                            x       y       z     vdW  Elec       q    Type
REMARK                         _______ _______ _______ _____ _____    ______ ____
ROOT
ATOM      1  N   UNL     1       3.502   6.719  18.821  0.00  0.00    +0.000 NA
ATOM      2  C   UNL     1       3.160   5.799  17.972  0.00  0.00    +0.000 C 
ATOM      3  C   UNL     1       1.767   5.249  17.740  0.00  0.00    +0.000 C 
ATOM      4  C   UNL     1       1.528   3.941  18.484  0.00  0.00    +0.000 C 
ATOM      5  C   UNL     1       2.372   2.767  17.971  0.00  0.00    +0.000 C 
ATOM      6  C   UNL     1       3.868   2.948  18.221  0.00  0.00    +0.000 C 
ATOM      7  C   UNL     1       4.504   3.833  17.180  0.00  0.00    +0.000 A 
ATOM      8  C   UNL     1       5.402   3.277  16.255  0.00  0.00    +0.000 A 
ATOM      9  C   UNL     1       5.984   4.071  15.266  0.00  0.00    +0.000 A 
ATOM     10  C   UNL     1       5.696   5.434  15.206  0.00  0.00    +0.000 A 
ATOM     11  C   UNL     1       4.817   6.008  16.128  0.00  0.00    +0.000 A 
ATOM     12  C   UNL     1       4.210   5.204  17.099  0.00  0.00    +0.000 A 
ENDROOT
BRANCH   1  15
ATOM     13  O   UNL     1       2.136   9.044  18.241  0.00  0.00    +0.000 OA
ATOM     14  C   UNL     1       1.971   8.468  19.317  0.00  0.00    +0.000 C 
ATOM     15  N   UNL     1       2.585   7.272  19.677  0.00  0.00    +0.000 N 
ATOM     16  H   UNL     1       2.398   6.882  20.595  0.00  0.00    +0.000 HD
BRANCH  14  17
ATOM     17  C   UNL     1       1.047   9.073  20.335  0.00  0.00    +0.000 A 
ATOM     18  C   UNL     1       1.051   8.551  21.631  0.00  0.00    +0.000 A 
ATOM     19  C   UNL     1       0.180   9.084  22.576  0.00  0.00    +0.000 A 
ATOM     20  C   UNL     1      -0.665  10.123  22.203  0.00  0.00    +0.000 A 
ATOM     21  C   UNL     1      -0.601  10.586  20.893  0.00  0.00    +0.000 A 
ATOM     22  N   UNL     1       0.235  10.094  19.941  0.00  0.00    +0.000 NA
ENDBRANCH  14  17
ENDBRANCH   1  15
TORSDOF 2
ENDMDL
MODEL 2
REMARK VINA RESULT:      -7.4      0.625      1.054
REMARK  Name = 
REMARK  2 active torsions:
REMARK  status: ('A' for Active; 'I' for Inactive)
REMARK    1  A    between atoms: C_2  and  C_16
REMARK    2  A    between atoms: N_3  and  N_4
REMARK                            x       y       z     vdW  Elec       q    Type
REMARK                         _______ _______ _______ _____ _____    ______ ____
ROOT
ATOM      1  N   UNL     1       3.490   6.670  18.897  0.00  0.00    +0.000 NA
ATOM      2  C   UNL     1       3.141   5.772  18.028  0.00  0.00    +0.000 C 
ATOM      3  C   UNL     1       1.744   5.236  17.787  0.00  0.00    +0.000 C 
ATOM      4  C   UNL     1       1.498   3.913  18.501  0.00  0.00    +0.000 C 
ATOM      5  C   UNL     1       2.334   2.746  17.959  0.00  0.00    +0.000 C 
ATOM      6  C   UNL     1       3.832   2.911  18.209  0.00  0.00    +0.000 C 
ATOM      7  C   UNL     1       4.470   3.817  17.188  0.00  0.00    +0.000 A 
ATOM      8  C   UNL     1       5.363   3.277  16.248  0.00  0.00    +0.000 A 
ATOM      9  C   UNL     1       5.947   4.090  15.276  0.00  0.00    +0.000 A 
ATOM     10  C   UNL     1       5.668   5.455  15.249  0.00  0.00    +0.000 A 
ATOM     11  C   UNL     1       4.795   6.013  16.186  0.00  0.00    +0.000 A 
ATOM     12  C   UNL     1       4.185   5.191  17.139  0.00  0.00    +0.000 A 
ENDROOT
BRANCH   1  15
ATOM     13  O   UNL     1       2.091   8.983  18.346  0.00  0.00    +0.000 OA
ATOM     14  C   UNL     1       1.946   8.399  19.422  0.00  0.00    +0.000 C 
ATOM     15  N   UNL     1       2.579   7.209  19.768  0.00  0.00    +0.000 N 
ATOM     16  H   UNL     1       2.408   6.812  20.687  0.00  0.00    +0.000 HD
BRANCH  14  17
ATOM     17  C   UNL     1       1.030   8.989  20.455  0.00  0.00    +0.000 A 
ATOM     18  C   UNL     1       0.170  10.021  20.071  0.00  0.00    +0.000 A 
ATOM     19  C   UNL     1      -0.663  10.596  21.025  0.00  0.00    +0.000 A 
ATOM     20  C   UNL     1      -0.619  10.122  22.331  0.00  0.00    +0.000 A 
ATOM     21  C   UNL     1       0.263   9.089  22.628  0.00  0.00    +0.000 A 
ATOM     22  N   UNL     1       1.093   8.501  21.725  0.00  0.00    +0.000 NA
ENDBRANCH  14  17
ENDBRANCH   1  15
TORSDOF 2
ENDMDL
MODEL 3
REMARK VINA RESULT:      -7.3      1.678      2.532
REMARK  Name = 
REMARK  2 active torsions:
REMARK  status: ('A' for Active; 'I' for Inactive)
REMARK    1  A    between atoms: C_2  and  C_16
REMARK    2  A    between atoms: N_3  and  N_4
REMARK                            x       y       z     vdW  Elec       q    Type
REMARK                         _______ _______ _______ _____ _____    ______ ____
ROOT
ATOM      1  N   UNL     1       3.625   6.626  17.297  0.00  0.00    +0.000 NA
ATOM      2  C   UNL     1       4.542   5.719  17.442  0.00  0.00    +0.000 C 
ATOM      3  C   UNL     1       4.884   4.971  18.715  0.00  0.00    +0.000 C 
ATOM      4  C   UNL     1       6.081   5.574  19.439  0.00  0.00    +0.000 C 
ATOM      5  C   UNL     1       7.406   5.438  18.680  0.00  0.00    +0.000 C 
ATOM      6  C   UNL     1       7.442   6.246  17.383  0.00  0.00    +0.000 C 
ATOM      7  C   UNL     1       6.746   5.525  16.258  0.00  0.00    +0.000 A 
ATOM      8  C   UNL     1       7.502   5.024  15.186  0.00  0.00    +0.000 A 
ATOM      9  C   UNL     1       6.883   4.331  14.145  0.00  0.00    +0.000 A 
ATOM     10  C   UNL     1       5.500   4.153  14.149  0.00  0.00    +0.000 A 
ATOM     11  C   UNL     1       4.730   4.659  15.200  0.00  0.00    +0.000 A 
ATOM     12  C   UNL     1       5.356   5.325  16.259  0.00  0.00    +0.000 A 
ENDROOT
BRANCH   1  15
ATOM     13  O   UNL     1       2.192   8.982  17.250  0.00  0.00    +0.000 OA
ATOM     14  C   UNL     1       2.213   8.277  18.260  0.00  0.00    +0.000 C 
ATOM     15  N   UNL     1       2.875   7.056  18.360  0.00  0.00    +0.000 N 
ATOM     16  H   UNL     1       2.848   6.555  19.242  0.00  0.00    +0.000 HD
BRANCH  14  17
ATOM     17  C   UNL     1       1.485   8.739  19.489  0.00  0.00    +0.000 A 
ATOM     18  C   UNL     1       1.627   8.000  20.666  0.00  0.00    +0.000 A 
ATOM     19  C   UNL     1       0.935   8.401  21.804  0.00  0.00    +0.000 A 
ATOM     20  C   UNL     1       0.125   9.529  21.736  0.00  0.00    +0.000 A 
ATOM     21  C   UNL     1       0.043  10.210  20.527  0.00  0.00    +0.000 A 
ATOM     22  N   UNL     1       0.703   9.851  19.394  0.00  0.00    +0.000 NA
ENDBRANCH  14  17
ENDBRANCH   1  15
TORSDOF 2
ENDMDL
MODEL 4
REMARK VINA RESULT:      -7.3      1.772      2.755
REMARK  Name = 
REMARK  2 active torsions:
REMARK  status: ('A' for Active; 'I' for Inactive)
REMARK    1  A    between atoms: C_2  and  C_16
REMARK    2  A    between atoms: N_3  and  N_4
REMARK                            x       y       z     vdW  Elec       q    Type
REMARK                         _______ _______ _______ _____ _____    ______ ____
ROOT
ATOM      1  N   UNL     1       3.624   6.586  17.292  0.00  0.00    +0.000 NA
ATOM      2  C   UNL     1       4.558   5.697  17.434  0.00  0.00    +0.000 C 
ATOM      3  C   UNL     1       4.928   4.964  18.708  0.00  0.00    +0.000 C 
ATOM      4  C   UNL     1       6.121   5.595  19.415  0.00  0.00    +0.000 C 
ATOM      5  C   UNL     1       7.440   5.477  18.642  0.00  0.00    +0.000 C 
ATOM      6  C   UNL     1       7.448   6.276  17.340  0.00  0.00    +0.000 C 
ATOM      7  C   UNL     1       6.753   5.534  16.228  0.00  0.00    +0.000 A 
ATOM      8  C   UNL     1       7.506   5.039  15.150  0.00  0.00    +0.000 A 
ATOM      9  C   UNL     1       6.889   4.327  14.122  0.00  0.00    +0.000 A 
ATOM     10  C   UNL     1       5.509   4.124  14.143  0.00  0.00    +0.000 A 
ATOM     11  C   UNL     1       4.742   4.623  15.198  0.00  0.00    +0.000 A 
ATOM     12  C   UNL     1       5.366   5.309  16.245  0.00  0.00    +0.000 A 
ENDROOT
BRANCH   1  15
ATOM     13  O   UNL     1       2.222   8.962  17.278  0.00  0.00    +0.000 OA
ATOM     14  C   UNL     1       2.232   8.241  18.278  0.00  0.00    +0.000 C 
ATOM     15  N   UNL     1       2.878   7.011  18.360  0.00  0.00    +0.000 N 
ATOM     16  H   UNL     1       2.842   6.497  19.235  0.00  0.00    +0.000 HD
BRANCH  14  17
ATOM     17  C   UNL     1       1.508   8.695  19.512  0.00  0.00    +0.000 A 
ATOM     18  C   UNL     1       0.702   9.833  19.431  0.00  0.00    +0.000 A 
ATOM     19  C   UNL     1       0.048  10.281  20.574  0.00  0.00    +0.000 A 
ATOM     20  C   UNL     1       0.212   9.578  21.763  0.00  0.00    +0.000 A 
ATOM     21  C   UNL     1       1.028   8.453  21.755  0.00  0.00    +0.000 A 
ATOM     22  N   UNL     1       1.684   7.983  20.660  0.00  0.00    +0.000 NA
ENDBRANCH  14  17
ENDBRANCH   1  15
TORSDOF 2
ENDMDL
MODEL 5
REMARK VINA RESULT:      -7.3      3.762      7.608
REMARK  Name = 
REMARK  2 active torsions:
REMARK  status: ('A' for Active; 'I' for Inactive)
REMARK    1  A    between atoms: C_2  and  C_16
REMARK    2  A    between atoms: N_3  and  N_4
REMARK                            x       y       z     vdW  Elec       q    Type
REMARK                         _______ _______ _______ _____ _____    ______ ____
ROOT
ATOM      1  N   UNL     1       4.470   3.079  17.515  0.00  0.00    +0.000 NA
ATOM      2  C   UNL     1       3.437   3.754  17.917  0.00  0.00    +0.000 C 
ATOM      3  C   UNL     1       2.651   4.773  17.117  0.00  0.00    +0.000 C 
ATOM      4  C   UNL     1       3.073   6.204  17.425  0.00  0.00    +0.000 C 
ATOM      5  C   UNL     1       2.738   6.661  18.850  0.00  0.00    +0.000 C 
ATOM      6  C   UNL     1       3.526   5.913  19.924  0.00  0.00    +0.000 C 
ATOM      7  C   UNL     1       2.913   4.571  20.231  0.00  0.00    +0.000 A 
ATOM      8  C   UNL     1       2.301   4.360  21.477  0.00  0.00    +0.000 A 
ATOM      9  C   UNL     1       1.704   3.135  21.776  0.00  0.00    +0.000 A 
ATOM     10  C   UNL     1       1.734   2.098  20.844  0.00  0.00    +0.000 A 
ATOM     11  C   UNL     1       2.352   2.285  19.605  0.00  0.00    +0.000 A 
ATOM     12  C   UNL     1       2.922   3.524  19.295  0.00  0.00    +0.000 A 
ENDROOT
BRANCH   1  15
ATOM     13  O   UNL     1       6.679   4.677  17.094  0.00  0.00    +0.000 OA
ATOM     14  C   UNL     1       6.105   4.132  16.149  0.00  0.00    +0.000 C 
ATOM     15  N   UNL     1       5.012   3.280  16.272  0.00  0.00    +0.000 N 
ATOM     16  H   UNL     1       4.596   2.892  15.431  0.00  0.00    +0.000 HD
BRANCH  14  17
ATOM     17  C   UNL     1       6.595   4.387  14.753  0.00  0.00    +0.000 A 
ATOM     18  C   UNL     1       6.021   3.666  13.704  0.00  0.00    +0.000 A 
ATOM     19  C   UNL     1       6.485   3.871  12.409  0.00  0.00    +0.000 A 
ATOM     20  C   UNL     1       7.505   4.791  12.197  0.00  0.00    +0.000 A 
ATOM     21  C   UNL     1       8.018   5.470  13.297  0.00  0.00    +0.000 A 
ATOM     22  N   UNL     1       7.592   5.299  14.577  0.00  0.00    +0.000 NA
ENDBRANCH  14  17
ENDBRANCH   1  15
TORSDOF 2
ENDMDL
MODEL 6
REMARK VINA RESULT:      -7.3      1.870      2.175
REMARK  Name = 
REMARK  2 active torsions:
REMARK  status: ('A' for Active; 'I' for Inactive)
REMARK    1  A    between atoms: C_2  and  C_16
REMARK    2  A    between atoms: N_3  and  N_4
REMARK                            x       y       z     vdW  Elec       q    Type
REMARK                         _______ _______ _______ _____ _____    ______ ____
ROOT
ATOM      1  N   UNL     1       3.189   7.774  17.783  0.00  0.00    +0.000 NA
ATOM      2  C   UNL     1       3.331   6.486  17.701  0.00  0.00    +0.000 C 
ATOM      3  C   UNL     1       2.274   5.436  17.975  0.00  0.00    +0.000 C 
ATOM      4  C   UNL     1       2.384   4.852  19.377  0.00  0.00    +0.000 C 
ATOM      5  C   UNL     1       3.654   4.024  19.611  0.00  0.00    +0.000 C 
ATOM      6  C   UNL     1       4.933   4.859  19.567  0.00  0.00    +0.000 C 
ATOM      7  C   UNL     1       5.383   5.114  18.152  0.00  0.00    +0.000 A 
ATOM      8  C   UNL     1       6.558   4.505  17.680  0.00  0.00    +0.000 A 
ATOM      9  C   UNL     1       6.982   4.705  16.367  0.00  0.00    +0.000 A 
ATOM     10  C   UNL     1       6.253   5.536  15.517  0.00  0.00    +0.000 A 
ATOM     11  C   UNL     1       5.092   6.164  15.973  0.00  0.00    +0.000 A 
ATOM     12  C   UNL     1       4.650   5.937  17.281  0.00  0.00    +0.000 A 
ENDROOT
BRANCH   1  15
ATOM     13  O   UNL     1       2.611  10.451  17.454  0.00  0.00    +0.000 OA
ATOM     14  C   UNL     1       1.820   9.701  18.028  0.00  0.00    +0.000 C 
ATOM     15  N   UNL     1       2.010   8.333  18.203  0.00  0.00    +0.000 N 
ATOM     16  H   UNL     1       1.307   7.801  18.706  0.00  0.00    +0.000 HD
BRANCH  14  17
ATOM     17  C   UNL     1       0.551  10.272  18.592  0.00  0.00    +0.000 A 
ATOM     18  C   UNL     1      -0.644  10.046  17.906  0.00  0.00    +0.000 A 
ATOM     19  C   UNL     1      -1.823  10.594  18.402  0.00  0.00    +0.000 A 
ATOM     20  C   UNL     1      -1.776  11.347  19.570  0.00  0.00    +0.000 A 
ATOM     21  C   UNL     1      -0.545  11.519  20.194  0.00  0.00    +0.000 A 
ATOM     22  N   UNL     1       0.628  11.000  19.742  0.00  0.00    +0.000 NA
ENDBRANCH  14  17
ENDBRANCH   1  15
TORSDOF 2
ENDMDL
MODEL 7
REMARK VINA RESULT:      -7.2      1.358      1.594
REMARK  Name = 
REMARK  2 active torsions:
REMARK  status: ('A' for Active; 'I' for Inactive)
REMARK    1  A    between atoms: C_2  and  C_16
REMARK    2  A    between atoms: N_3  and  N_4
REMARK                            x       y       z     vdW  Elec       q    Type
REMARK                         _______ _______ _______ _____ _____    ______ ____
ROOT
ATOM      1  N   UNL     1       3.542   7.452  17.822  0.00  0.00    +0.000 NA
ATOM      2  C   UNL     1       3.721   6.173  17.690  0.00  0.00    +0.000 C 
ATOM      3  C   UNL     1       2.817   5.072  18.207  0.00  0.00    +0.000 C 
ATOM      4  C   UNL     1       3.305   4.492  19.529  0.00  0.00    +0.000 C 
ATOM      5  C   UNL     1       4.631   3.728  19.425  0.00  0.00    +0.000 C 
ATOM      6  C   UNL     1       5.816   4.626  19.072  0.00  0.00    +0.000 C 
ATOM      7  C   UNL     1       5.883   4.903  17.593  0.00  0.00    +0.000 A 
ATOM      8  C   UNL     1       6.928   4.353  16.833  0.00  0.00    +0.000 A 
ATOM      9  C   UNL     1       6.998   4.575  15.458  0.00  0.00    +0.000 A 
ATOM     10  C   UNL     1       6.040   5.370  14.829  0.00  0.00    +0.000 A 
ATOM     11  C   UNL     1       5.003   5.939  15.571  0.00  0.00    +0.000 A 
ATOM     12  C   UNL     1       4.916   5.689  16.945  0.00  0.00    +0.000 A 
ENDROOT
BRANCH   1  15
ATOM     13  O   UNL     1       2.377   9.884  17.242  0.00  0.00    +0.000 OA
ATOM     14  C   UNL     1       1.981   9.205  18.192  0.00  0.00    +0.000 C 
ATOM     15  N   UNL     1       2.482   7.952  18.533  0.00  0.00    +0.000 N 
ATOM     16  H   UNL     1       2.102   7.477  19.345  0.00  0.00    +0.000 HD
BRANCH  14  17
ATOM     17  C   UNL     1       0.883   9.741  19.065  0.00  0.00    +0.000 A 
ATOM     18  C   UNL     1       0.842   9.343  20.403  0.00  0.00    +0.000 A 
ATOM     19  C   UNL     1      -0.187   9.809  21.215  0.00  0.00    +0.000 A 
ATOM     20  C   UNL     1      -1.141  10.662  20.670  0.00  0.00    +0.000 A 
ATOM     21  C   UNL     1      -1.023  11.012  19.330  0.00  0.00    +0.000 A 
ATOM     22  N   UNL     1      -0.034  10.579  18.504  0.00  0.00    +0.000 NA
ENDBRANCH  14  17
ENDBRANCH   1  15
TORSDOF 2
ENDMDL
MODEL 8
REMARK VINA RESULT:      -7.1      3.901      7.505
REMARK  Name = 
REMARK  2 active torsions:
REMARK  status: ('A' for Active; 'I' for Inactive)
REMARK    1  A    between atoms: C_2  and  C_16
REMARK    2  A    between atoms: N_3  and  N_4
REMARK                            x       y       z     vdW  Elec       q    Type
REMARK                         _______ _______ _______ _____ _____    ______ ____
ROOT
ATOM      1  N   UNL     1       5.263   3.543  17.986  0.00  0.00    +0.000 NA
ATOM      2  C   UNL     1       4.018   3.206  18.127  0.00  0.00    +0.000 C 
ATOM      3  C   UNL     1       3.075   2.736  17.037  0.00  0.00    +0.000 C 
ATOM      4  C   UNL     1       2.187   3.858  16.514  0.00  0.00    +0.000 C 
ATOM      5  C   UNL     1       1.175   4.384  17.540  0.00  0.00    +0.000 C 
ATOM      6  C   UNL     1       1.831   5.092  18.724  0.00  0.00    +0.000 C 
ATOM      7  C   UNL     1       2.333   4.110  19.752  0.00  0.00    +0.000 A 
ATOM      8  C   UNL     1       1.699   4.035  21.003  0.00  0.00    +0.000 A 
ATOM      9  C   UNL     1       2.128   3.117  21.961  0.00  0.00    +0.000 A 
ATOM     10  C   UNL     1       3.212   2.281  21.692  0.00  0.00    +0.000 A 
ATOM     11  C   UNL     1       3.864   2.353  20.459  0.00  0.00    +0.000 A 
ATOM     12  C   UNL     1       3.412   3.252  19.487  0.00  0.00    +0.000 A 
ENDROOT
BRANCH   1  15
ATOM     13  O   UNL     1       5.309   5.788  16.384  0.00  0.00    +0.000 OA
ATOM     14  C   UNL     1       5.803   4.726  15.997  0.00  0.00    +0.000 C 
ATOM     15  N   UNL     1       5.860   3.559  16.752  0.00  0.00    +0.000 N 
ATOM     16  H   UNL     1       6.273   2.728  16.340  0.00  0.00    +0.000 HD
BRANCH  14  17
ATOM     17  C   UNL     1       6.392   4.655  14.618  0.00  0.00    +0.000 A 
ATOM     18  C   UNL     1       5.816   3.783  13.692  0.00  0.00    +0.000 A 
ATOM     19  C   UNL     1       6.369   3.686  12.419  0.00  0.00    +0.000 A 
ATOM     20  C   UNL     1       7.478   4.464  12.107  0.00  0.00    +0.000 A 
ATOM     21  C   UNL     1       7.987   5.309  13.086  0.00  0.00    +0.000 A 
ATOM     22  N   UNL     1       7.475   5.433  14.340  0.00  0.00    +0.000 NA
ENDBRANCH  14  17
ENDBRANCH   1  15
TORSDOF 2
ENDMDL
MODEL 9
REMARK VINA RESULT:      -7.0      1.228      1.565
REMARK  Name = 
REMARK  2 active torsions:
REMARK  status: ('A' for Active; 'I' for Inactive)
REMARK    1  A    between atoms: C_2  and  C_16
REMARK    2  A    between atoms: N_3  and  N_4
REMARK                            x       y       z     vdW  Elec       q    Type
REMARK                         _______ _______ _______ _____ _____    ______ ____
ROOT
ATOM      1  N   UNL     1       2.801   6.875  19.871  0.00  0.00    +0.000 NA
ATOM      2  C   UNL     1       2.450   5.739  19.352  0.00  0.00    +0.000 C 
ATOM      3  C   UNL     1       1.105   5.055  19.489  0.00  0.00    +0.000 C 
ATOM      4  C   UNL     1       1.104   3.985  20.574  0.00  0.00    +0.000 C 
ATOM      5  C   UNL     1       1.992   2.775  20.258  0.00  0.00    +0.000 C 
ATOM      6  C   UNL     1       3.481   3.115  20.219  0.00  0.00    +0.000 C 
ATOM      7  C   UNL     1       3.878   3.725  18.899  0.00  0.00    +0.000 A 
ATOM      8  C   UNL     1       4.701   3.000  18.022  0.00  0.00    +0.000 A 
ATOM      9  C   UNL     1       5.061   3.532  16.784  0.00  0.00    +0.000 A 
ATOM     10  C   UNL     1       4.625   4.805  16.418  0.00  0.00    +0.000 A 
ATOM     11  C   UNL     1       3.820   5.548  17.285  0.00  0.00    +0.000 A 
ATOM     12  C   UNL     1       3.433   5.000  18.512  0.00  0.00    +0.000 A 
ENDROOT
BRANCH   1  15
ATOM     13  O   UNL     1       1.470   9.141  19.033  0.00  0.00    +0.000 OA
ATOM     14  C   UNL     1       1.351   8.731  20.189  0.00  0.00    +0.000 C 
ATOM     15  N   UNL     1       1.952   7.578  20.686  0.00  0.00    +0.000 N 
ATOM     16  H   UNL     1       1.807   7.330  21.659  0.00  0.00    +0.000 HD
BRANCH  14  17
ATOM     17  C   UNL     1       0.506   9.508  21.156  0.00  0.00    +0.000 A 
ATOM     18  C   UNL     1       0.398   9.044  22.469  0.00  0.00    +0.000 A 
ATOM     19  C   UNL     1      -0.405   9.739  23.368  0.00  0.00    +0.000 A 
ATOM     20  C   UNL     1      -1.073  10.878  22.932  0.00  0.00    +0.000 A 
ATOM     21  C   UNL     1      -0.907  11.274  21.610  0.00  0.00    +0.000 A 
ATOM     22  N   UNL     1      -0.132  10.623  20.702  0.00  0.00    +0.000 NA
ENDBRANCH  14  17
ENDBRANCH   1  15
TORSDOF 2
ENDMDL
