MODEL 1
REMARK VINA RESULT:      -8.2      0.000      0.000
REMARK  Name = 
REMARK  6 active torsions:
REMARK  status: ('A' for Active; 'I' for Inactive)
REMARK    1  A    between atoms: C_1  and  C_2
REMARK    2  A    between atoms: C_3  and  O_4
REMARK    3  A    between atoms: O_4  and  C_5
REMARK    4  A    between atoms: C_5  and  C_6
REMARK    5  A    between atoms: N_17  and  C_18
REMARK    6  A    between atoms: C_21  and  C_22
REMARK                            x       y       z     vdW  Elec       q    Type
REMARK                         _______ _______ _______ _____ _____    ______ ____
ROOT
ATOM      1  C   UNL     1       2.185   9.093  17.423  0.00  0.00    +0.000 C 
ATOM      2  C   UNL     1       1.872   8.490  18.782  0.00  0.00    +0.000 A 
ATOM      3  C   UNL     1       1.069   9.197  19.622  0.00  0.00    +0.000 A 
ATOM      4  C   UNL     1       0.708   8.584  20.947  0.00  0.00    +0.000 A 
ATOM      5  O   UNL     1      -0.058   9.111  21.748  0.00  0.00    +0.000 OA
ATOM      6  C   UNL     1       1.334   7.297  21.295  0.00  0.00    +0.000 A 
ATOM      7  C   UNL     1       2.126   6.717  20.393  0.00  0.00    +0.000 A 
ATOM      8  N   UNL     1       2.390   7.200  19.112  0.00  0.00    +0.000 N 
ENDROOT
BRANCH   8   9
ATOM      9  C   UNL     1       3.285   6.476  18.238  0.00  0.00    +0.000 A 
ATOM     10  N   UNL     1       4.455   7.075  17.873  0.00  0.00    +0.000 NA
ATOM     11  C   UNL     1       5.332   6.429  17.067  0.00  0.00    +0.000 A 
ATOM     12  C   UNL     1       5.140   5.144  16.601  0.00  0.00    +0.000 A 
ATOM     13  C   UNL     1       3.958   4.508  16.969  0.00  0.00    +0.000 A 
ATOM     14  C   UNL     1       3.009   5.176  17.760  0.00  0.00    +0.000 A 
ATOM     15 CL   UNL     1       1.507   4.340  17.980  0.00  0.00    +0.000 Cl
BRANCH  12  16
ATOM     16  C   UNL     1       6.159   4.476  15.728  0.00  0.00    +0.000 C 
ATOM     17  F   UNL     1       5.891   3.165  15.482  0.00  0.00    +0.000 F 
ATOM     18  F   UNL     1       6.265   5.072  14.509  0.00  0.00    +0.000 F 
ATOM     19  F   UNL     1       7.407   4.508  16.270  0.00  0.00    +0.000 F 
ENDBRANCH  12  16
ENDBRANCH   8   9
BRANCH   3  20
ATOM     20  O   UNL     1       0.562  10.431  19.238  0.00  0.00    +0.000 OA
BRANCH  20  21
ATOM     21  C   UNL     1      -0.732  10.781  19.732  0.00  0.00    +0.000 C 
BRANCH  21  22
ATOM     22  C   UNL     1      -1.695  10.729  18.567  0.00  0.00    +0.000 A 
ATOM     23  C   UNL     1      -1.441   9.916  17.453  0.00  0.00    +0.000 A 
ATOM     24  C   UNL     1      -2.338   9.892  16.380  0.00  0.00    +0.000 A 
ATOM     25  C   UNL     1      -3.484  10.679  16.427  0.00  0.00    +0.000 A 
ATOM     26  F   UNL     1      -4.338  10.660  15.395  0.00  0.00    +0.000 F 
ATOM     27  C   UNL     1      -3.756  11.485  17.524  0.00  0.00    +0.000 A 
ATOM     28  C   UNL     1      -2.864  11.509  18.596  0.00  0.00    +0.000 A 
ENDBRANCH  21  22
ENDBRANCH  20  21
ENDBRANCH   3  20
TORSDOF 5
ENDMDL
MODEL 2
REMARK VINA RESULT:      -8.2      4.359      7.991
REMARK  Name = 
REMARK  6 active torsions:
REMARK  status: ('A' for Active; 'I' for Inactive)
REMARK    1  A    between atoms: C_1  and  C_2
REMARK    2  A    between atoms: C_3  and  O_4
REMARK    3  A    between atoms: O_4  and  C_5
REMARK    4  A    between atoms: C_5  and  C_6
REMARK    5  A    between atoms: N_17  and  C_18
REMARK    6  A    between atoms: C_21  and  C_22
REMARK                            x       y       z     vdW  Elec       q    Type
REMARK                         _______ _______ _______ _____ _____    ______ ____
ROOT
ATOM      1  C   UNL     1       1.695   5.056  17.709  0.00  0.00    +0.000 C 
ATOM      2  C   UNL     1       3.160   5.413  17.523  0.00  0.00    +0.000 A 
ATOM      3  C   UNL     1       4.004   4.434  17.096  0.00  0.00    +0.000 A 
ATOM      4  C   UNL     1       5.446   4.791  16.855  0.00  0.00    +0.000 A 
ATOM      5  O   UNL     1       6.271   3.999  16.412  0.00  0.00    +0.000 OA
ATOM      6  C   UNL     1       5.875   6.157  17.197  0.00  0.00    +0.000 A 
ATOM      7  C   UNL     1       4.953   7.018  17.633  0.00  0.00    +0.000 A 
ATOM      8  N   UNL     1       3.591   6.755  17.758  0.00  0.00    +0.000 N 
ENDROOT
BRANCH   8   9
ATOM      9  C   UNL     1       2.702   7.778  18.261  0.00  0.00    +0.000 A 
ATOM     10  N   UNL     1       2.461   8.866  17.474  0.00  0.00    +0.000 NA
ATOM     11  C   UNL     1       1.624   9.844  17.898  0.00  0.00    +0.000 A 
ATOM     12  C   UNL     1       0.940   9.801  19.095  0.00  0.00    +0.000 A 
ATOM     13  C   UNL     1       1.162   8.695  19.911  0.00  0.00    +0.000 A 
ATOM     14  C   UNL     1       2.065   7.694  19.518  0.00  0.00    +0.000 A 
ATOM     15 CL   UNL     1       2.387   6.478  20.710  0.00  0.00    +0.000 Cl
BRANCH  12  16
ATOM     16  C   UNL     1       0.011  10.907  19.498  0.00  0.00    +0.000 C 
ATOM     17  F   UNL     1       0.081  12.000  18.692  0.00  0.00    +0.000 F 
ATOM     18  F   UNL     1      -1.293  10.515  19.488  0.00  0.00    +0.000 F 
ATOM     19  F   UNL     1       0.257  11.355  20.760  0.00  0.00    +0.000 F 
ENDBRANCH  12  16
ENDBRANCH   8   9
BRANCH   3  20
ATOM     20  O   UNL     1       3.528   3.155  16.847  0.00  0.00    +0.000 OA
BRANCH  20  21
ATOM     21  C   UNL     1       3.925   2.128  17.759  0.00  0.00    +0.000 C 
BRANCH  21  22
ATOM     22  C   UNL     1       3.097   2.288  19.015  0.00  0.00    +0.000 A 
ATOM     23  C   UNL     1       3.701   2.560  20.251  0.00  0.00    +0.000 A 
ATOM     24  C   UNL     1       2.919   2.692  21.403  0.00  0.00    +0.000 A 
ATOM     25  C   UNL     1       1.538   2.554  21.314  0.00  0.00    +0.000 A 
ATOM     26  F   UNL     1       0.792   2.673  22.420  0.00  0.00    +0.000 F 
ATOM     27  C   UNL     1       0.921   2.292  20.098  0.00  0.00    +0.000 A 
ATOM     28  C   UNL     1       1.699   2.161  18.948  0.00  0.00    +0.000 A 
ENDBRANCH  21  22
ENDBRANCH  20  21
ENDBRANCH   3  20
TORSDOF 5
ENDMDL
MODEL 3
REMARK VINA RESULT:      -8.1      3.744      8.877
REMARK  Name = 
REMARK  6 active torsions:
REMARK  status: ('A' for Active; 'I' for Inactive)
REMARK    1  A    between atoms: C_1  and  C_2
REMARK    2  A    between atoms: C_3  and  O_4
REMARK    3  A    between atoms: O_4  and  C_5
REMARK    4  A    between atoms: C_5  and  C_6
REMARK    5  A    between atoms: N_17  and  C_18
REMARK    6  A    between atoms: C_21  and  C_22
REMARK                            x       y       z     vdW  Elec       q    Type
REMARK                         _______ _______ _______ _____ _____    ______ ____
ROOT
ATOM      1  C   UNL     1       0.530   8.310  21.496  0.00  0.00    +0.000 C 
ATOM      2  C   UNL     1       1.240   8.386  20.155  0.00  0.00    +0.000 A 
ATOM      3  C   UNL     1       2.014   7.330  19.784  0.00  0.00    +0.000 A 
ATOM      4  C   UNL     1       2.676   7.371  18.434  0.00  0.00    +0.000 A 
ATOM      5  O   UNL     1       3.342   6.445  17.981  0.00  0.00    +0.000 OA
ATOM      6  C   UNL     1       2.528   8.603  17.641  0.00  0.00    +0.000 A 
ATOM      7  C   UNL     1       1.763   9.580  18.129  0.00  0.00    +0.000 A 
ATOM      8  N   UNL     1       1.042   9.529  19.321  0.00  0.00    +0.000 N 
ENDROOT
BRANCH   8   9
ATOM      9  C   UNL     1       0.262  10.671  19.741  0.00  0.00    +0.000 A 
ATOM     10  N   UNL     1       0.793  11.504  20.681  0.00  0.00    +0.000 NA
ATOM     11  C   UNL     1       0.105  12.595  21.095  0.00  0.00    +0.000 A 
ATOM     12  C   UNL     1      -1.125  12.963  20.589  0.00  0.00    +0.000 A 
ATOM     13  C   UNL     1      -1.683  12.133  19.620  0.00  0.00    +0.000 A 
ATOM     14  C   UNL     1      -1.014  10.968  19.213  0.00  0.00    +0.000 A 
ATOM     15 CL   UNL     1      -1.908   9.934  18.147  0.00  0.00    +0.000 Cl
BRANCH  12  16
ATOM     16  C   UNL     1      -1.828  14.194  21.075  0.00  0.00    +0.000 C 
ATOM     17  F   UNL     1      -1.664  14.428  22.406  0.00  0.00    +0.000 F 
ATOM     18  F   UNL     1      -1.396  15.319  20.441  0.00  0.00    +0.000 F 
ATOM     19  F   UNL     1      -3.172  14.140  20.866  0.00  0.00    +0.000 F 
ENDBRANCH  12  16
ENDBRANCH   8   9
BRANCH   3  20
ATOM     20  O   UNL     1       2.145   6.227  20.616  0.00  0.00    +0.000 OA
BRANCH  20  21
ATOM     21  C   UNL     1       1.195   5.174  20.447  0.00  0.00    +0.000 C 
BRANCH  21  22
ATOM     22  C   UNL     1       1.920   4.000  19.829  0.00  0.00    +0.000 A 
ATOM     23  C   UNL     1       3.091   3.486  20.405  0.00  0.00    +0.000 A 
ATOM     24  C   UNL     1       3.754   2.407  19.811  0.00  0.00    +0.000 A 
ATOM     25  C   UNL     1       3.243   1.846  18.645  0.00  0.00    +0.000 A 
ATOM     26  F   UNL     1       3.884   0.818  18.074  0.00  0.00    +0.000 F 
ATOM     27  C   UNL     1       2.082   2.336  18.063  0.00  0.00    +0.000 A 
ATOM     28  C   UNL     1       1.418   3.410  18.655  0.00  0.00    +0.000 A 
ENDBRANCH  21  22
ENDBRANCH  20  21
ENDBRANCH   3  20
TORSDOF 5
ENDMDL
MODEL 4
REMARK VINA RESULT:      -8.1      3.758      8.880
REMARK  Name = 
REMARK  6 active torsions:
REMARK  status: ('A' for Active; 'I' for Inactive)
REMARK    1  A    between atoms: C_1  and  C_2
REMARK    2  A    between atoms: C_3  and  O_4
REMARK    3  A    between atoms: O_4  and  C_5
REMARK    4  A    between atoms: C_5  and  C_6
REMARK    5  A    between atoms: N_17  and  C_18
REMARK    6  A    between atoms: C_21  and  C_22
REMARK                            x       y       z     vdW  Elec       q    Type
REMARK                         _______ _______ _______ _____ _____    ______ ____
ROOT
ATOM      1  C   UNL     1       0.712   8.253  21.557  0.00  0.00    +0.000 C 
ATOM      2  C   UNL     1       1.352   8.348  20.182  0.00  0.00    +0.000 A 
ATOM      3  C   UNL     1       2.128   7.310  19.768  0.00  0.00    +0.000 A 
ATOM      4  C   UNL     1       2.720   7.369  18.386  0.00  0.00    +0.000 A 
ATOM      5  O   UNL     1       3.381   6.459  17.896  0.00  0.00    +0.000 OA
ATOM      6  C   UNL     1       2.506   8.600  17.606  0.00  0.00    +0.000 A 
ATOM      7  C   UNL     1       1.746   9.559  18.137  0.00  0.00    +0.000 A 
ATOM      8  N   UNL     1       1.088   9.489  19.363  0.00  0.00    +0.000 N 
ENDROOT
BRANCH   8   9
ATOM      9  C   UNL     1       0.306  10.613  19.827  0.00  0.00    +0.000 A 
ATOM     10  N   UNL     1       0.845  11.423  20.783  0.00  0.00    +0.000 NA
ATOM     11  C   UNL     1       0.155  12.497  21.237  0.00  0.00    +0.000 A 
ATOM     12  C   UNL     1      -1.084  12.870  20.760  0.00  0.00    +0.000 A 
ATOM     13  C   UNL     1      -1.651  12.064  19.776  0.00  0.00    +0.000 A 
ATOM     14  C   UNL     1      -0.980  10.916  19.326  0.00  0.00    +0.000 A 
ATOM     15 CL   UNL     1      -1.882   9.905  18.244  0.00  0.00    +0.000 Cl
BRANCH  12  16
ATOM     16  C   UNL     1      -1.788  14.082  21.291  0.00  0.00    +0.000 C 
ATOM     17  F   UNL     1      -3.033  13.822  21.776  0.00  0.00    +0.000 F 
ATOM     18  F   UNL     1      -1.104  14.671  22.309  0.00  0.00    +0.000 F 
ATOM     19  F   UNL     1      -1.949  15.044  20.342  0.00  0.00    +0.000 F 
ENDBRANCH  12  16
ENDBRANCH   8   9
BRANCH   3  20
ATOM     20  O   UNL     1       2.324   6.208  20.588  0.00  0.00    +0.000 OA
BRANCH  20  21
ATOM     21  C   UNL     1       1.367   5.151  20.490  0.00  0.00    +0.000 C 
BRANCH  21  22
ATOM     22  C   UNL     1       2.036   3.994  19.783  0.00  0.00    +0.000 A 
ATOM     23  C   UNL     1       1.516   3.476  18.588  0.00  0.00    +0.000 A 
ATOM     24  C   UNL     1       2.142   2.397  17.956  0.00  0.00    +0.000 A 
ATOM     25  C   UNL     1       3.286   1.842  18.520  0.00  0.00    +0.000 A 
ATOM     26  F   UNL     1       3.880   0.804  17.917  0.00  0.00    +0.000 F 
ATOM     27  C   UNL     1       3.821   2.345  19.698  0.00  0.00    +0.000 A 
ATOM     28  C   UNL     1       3.199   3.422  20.329  0.00  0.00    +0.000 A 
ENDBRANCH  21  22
ENDBRANCH  20  21
ENDBRANCH   3  20
TORSDOF 5
ENDMDL
MODEL 5
REMARK VINA RESULT:      -8.0      1.258      1.834
REMARK  Name = 
REMARK  6 active torsions:
REMARK  status: ('A' for Active; 'I' for Inactive)
REMARK    1  A    between atoms: C_1  and  C_2
REMARK    2  A    between atoms: C_3  and  O_4
REMARK    3  A    between atoms: O_4  and  C_5
REMARK    4  A    between atoms: C_5  and  C_6
REMARK    5  A    between atoms: N_17  and  C_18
REMARK    6  A    between atoms: C_21  and  C_22
REMARK                            x       y       z     vdW  Elec       q    Type
REMARK                         _______ _______ _______ _____ _____    ______ ____
ROOT
ATOM      1  C   UNL     1       1.135   9.199  17.674  0.00  0.00    +0.000 C 
ATOM      2  C   UNL     1       1.096   9.130  19.192  0.00  0.00    +0.000 A 
ATOM      3  C   UNL     1       0.413  10.102  19.855  0.00  0.00    +0.000 A 
ATOM      4  C   UNL     1       0.321  10.012  21.354  0.00  0.00    +0.000 A 
ATOM      5  O   UNL     1      -0.322  10.802  22.039  0.00  0.00    +0.000 OA
ATOM      6  C   UNL     1       1.067   8.930  22.018  0.00  0.00    +0.000 A 
ATOM      7  C   UNL     1       1.722   8.054  21.254  0.00  0.00    +0.000 A 
ATOM      8  N   UNL     1       1.733   8.040  19.861  0.00  0.00    +0.000 N 
ENDROOT
BRANCH   8   9
ATOM      9  C   UNL     1       2.501   7.039  19.156  0.00  0.00    +0.000 A 
ATOM     10  N   UNL     1       3.372   7.455  18.192  0.00  0.00    +0.000 NA
ATOM     11  C   UNL     1       4.124   6.554  17.515  0.00  0.00    +0.000 A 
ATOM     12  C   UNL     1       4.103   5.197  17.764  0.00  0.00    +0.000 A 
ATOM     13  C   UNL     1       3.229   4.749  18.751  0.00  0.00    +0.000 A 
ATOM     14  C   UNL     1       2.401   5.657  19.430  0.00  0.00    +0.000 A 
ATOM     15 CL   UNL     1       1.232   4.943  20.492  0.00  0.00    +0.000 Cl
BRANCH  12  16
ATOM     16  C   UNL     1       4.975   4.253  16.993  0.00  0.00    +0.000 C 
ATOM     17  F   UNL     1       5.102   4.577  15.677  0.00  0.00    +0.000 F 
ATOM     18  F   UNL     1       6.242   4.198  17.489  0.00  0.00    +0.000 F 
ATOM     19  F   UNL     1       4.507   2.975  17.021  0.00  0.00    +0.000 F 
ENDBRANCH  12  16
ENDBRANCH   8   9
BRANCH   3  20
ATOM     20  O   UNL     1      -0.219  11.120  19.156  0.00  0.00    +0.000 OA
BRANCH  20  21
ATOM     21  C   UNL     1      -1.614  11.306  19.404  0.00  0.00    +0.000 C 
BRANCH  21  22
ATOM     22  C   UNL     1      -2.349  11.025  18.113  0.00  0.00    +0.000 A 
ATOM     23  C   UNL     1      -3.559  11.668  17.813  0.00  0.00    +0.000 A 
ATOM     24  C   UNL     1      -4.230  11.385  16.620  0.00  0.00    +0.000 A 
ATOM     25  C   UNL     1      -3.689  10.462  15.731  0.00  0.00    +0.000 A 
ATOM     26  F   UNL     1      -4.337  10.186  14.592  0.00  0.00    +0.000 F 
ATOM     27  C   UNL     1      -2.489   9.820  16.007  0.00  0.00    +0.000 A 
ATOM     28  C   UNL     1      -1.817  10.102  17.196  0.00  0.00    +0.000 A 
ENDBRANCH  21  22
ENDBRANCH  20  21
ENDBRANCH   3  20
TORSDOF 5
ENDMDL
MODEL 6
REMARK VINA RESULT:      -8.0      1.272      1.464
REMARK  Name = 
REMARK  6 active torsions:
REMARK  status: ('A' for Active; 'I' for Inactive)
REMARK    1  A    between atoms: C_1  and  C_2
REMARK    2  A    between atoms: C_3  and  O_4
REMARK    3  A    between atoms: O_4  and  C_5
REMARK    4  A    between atoms: C_5  and  C_6
REMARK    5  A    between atoms: N_17  and  C_18
REMARK    6  A    between atoms: C_21  and  C_22
REMARK                            x       y       z     vdW  Elec       q    Type
REMARK                         _______ _______ _______ _____ _____    ______ ____
ROOT
ATOM      1  C   UNL     1       1.156   9.234  17.689  0.00  0.00    +0.000 C 
ATOM      2  C   UNL     1       1.081   9.153  19.204  0.00  0.00    +0.000 A 
ATOM      3  C   UNL     1       0.380  10.118  19.859  0.00  0.00    +0.000 A 
ATOM      4  C   UNL     1       0.252  10.016  21.354  0.00  0.00    +0.000 A 
ATOM      5  O   UNL     1      -0.409  10.798  22.030  0.00  0.00    +0.000 OA
ATOM      6  C   UNL     1       0.986   8.931  22.027  0.00  0.00    +0.000 A 
ATOM      7  C   UNL     1       1.662   8.063  21.273  0.00  0.00    +0.000 A 
ATOM      8  N   UNL     1       1.706   8.060  19.880  0.00  0.00    +0.000 N 
ENDROOT
BRANCH   8   9
ATOM      9  C   UNL     1       2.494   7.067  19.185  0.00  0.00    +0.000 A 
ATOM     10  N   UNL     1       3.339   7.488  18.200  0.00  0.00    +0.000 NA
ATOM     11  C   UNL     1       4.108   6.595  17.532  0.00  0.00    +0.000 A 
ATOM     12  C   UNL     1       4.131   5.244  17.810  0.00  0.00    +0.000 A 
ATOM     13  C   UNL     1       3.285   4.792  18.819  0.00  0.00    +0.000 A 
ATOM     14  C   UNL     1       2.439   5.689  19.491  0.00  0.00    +0.000 A 
ATOM     15 CL   UNL     1       1.307   4.964  20.584  0.00  0.00    +0.000 Cl
BRANCH  12  16
ATOM     16  C   UNL     1       5.021   4.309  17.047  0.00  0.00    +0.000 C 
ATOM     17  F   UNL     1       4.521   3.048  16.936  0.00  0.00    +0.000 F 
ATOM     18  F   UNL     1       5.248   4.736  15.775  0.00  0.00    +0.000 F 
ATOM     19  F   UNL     1       6.248   4.177  17.622  0.00  0.00    +0.000 F 
ENDBRANCH  12  16
ENDBRANCH   8   9
BRANCH   3  20
ATOM     20  O   UNL     1      -0.239  11.139  19.152  0.00  0.00    +0.000 OA
BRANCH  20  21
ATOM     21  C   UNL     1      -1.637  11.327  19.379  0.00  0.00    +0.000 C 
BRANCH  21  22
ATOM     22  C   UNL     1      -2.357  11.003  18.089  0.00  0.00    +0.000 A 
ATOM     23  C   UNL     1      -1.820  10.089  17.169  0.00  0.00    +0.000 A 
ATOM     24  C   UNL     1      -2.495   9.813  15.977  0.00  0.00    +0.000 A 
ATOM     25  C   UNL     1      -3.704  10.447  15.709  0.00  0.00    +0.000 A 
ATOM     26  F   UNL     1      -4.344  10.186  14.562  0.00  0.00    +0.000 F 
ATOM     27  C   UNL     1      -4.254  11.349  16.609  0.00  0.00    +0.000 A 
ATOM     28  C   UNL     1      -3.584  11.626  17.800  0.00  0.00    +0.000 A 
ENDBRANCH  21  22
ENDBRANCH  20  21
ENDBRANCH   3  20
TORSDOF 5
ENDMDL
MODEL 7
REMARK VINA RESULT:      -7.8      1.383      1.874
REMARK  Name = 
REMARK  6 active torsions:
REMARK  status: ('A' for Active; 'I' for Inactive)
REMARK    1  A    between atoms: C_1  and  C_2
REMARK    2  A    between atoms: C_3  and  O_4
REMARK    3  A    between atoms: O_4  and  C_5
REMARK    4  A    between atoms: C_5  and  C_6
REMARK    5  A    between atoms: N_17  and  C_18
REMARK    6  A    between atoms: C_21  and  C_22
REMARK                            x       y       z     vdW  Elec       q    Type
REMARK                         _______ _______ _______ _____ _____    ______ ____
ROOT
ATOM      1  C   UNL     1       2.372   8.998  17.502  0.00  0.00    +0.000 C 
ATOM      2  C   UNL     1       1.977   8.353  18.819  0.00  0.00    +0.000 A 
ATOM      3  C   UNL     1       1.137   9.042  19.639  0.00  0.00    +0.000 A 
ATOM      4  C   UNL     1       0.695   8.388  20.920  0.00  0.00    +0.000 A 
ATOM      5  O   UNL     1      -0.108   8.898  21.695  0.00  0.00    +0.000 OA
ATOM      6  C   UNL     1       1.286   7.082  21.256  0.00  0.00    +0.000 A 
ATOM      7  C   UNL     1       2.120   6.522  20.379  0.00  0.00    +0.000 A 
ATOM      8  N   UNL     1       2.460   7.045  19.133  0.00  0.00    +0.000 N 
ENDROOT
BRANCH   8   9
ATOM      9  C   UNL     1       3.394   6.339  18.285  0.00  0.00    +0.000 A 
ATOM     10  N   UNL     1       4.622   6.895  18.076  0.00  0.00    +0.000 NA
ATOM     11  C   UNL     1       5.536   6.262  17.300  0.00  0.00    +0.000 A 
ATOM     12  C   UNL     1       5.322   5.031  16.714  0.00  0.00    +0.000 A 
ATOM     13  C   UNL     1       4.079   4.439  16.922  0.00  0.00    +0.000 A 
ATOM     14  C   UNL     1       3.097   5.099  17.678  0.00  0.00    +0.000 A 
ATOM     15 CL   UNL     1       1.539   4.339  17.694  0.00  0.00    +0.000 Cl
BRANCH  12  16
ATOM     16  C   UNL     1       6.381   4.373  15.883  0.00  0.00    +0.000 C 
ATOM     17  F   UNL     1       6.050   3.121  15.466  0.00  0.00    +0.000 F 
ATOM     18  F   UNL     1       6.666   5.081  14.755  0.00  0.00    +0.000 F 
ATOM     19  F   UNL     1       7.560   4.246  16.551  0.00  0.00    +0.000 F 
ENDBRANCH  12  16
ENDBRANCH   8   9
BRANCH   3  20
ATOM     20  O   UNL     1       0.666  10.294  19.271  0.00  0.00    +0.000 OA
BRANCH  20  21
ATOM     21  C   UNL     1      -0.438  10.331  18.365  0.00  0.00    +0.000 C 
BRANCH  21  22
ATOM     22  C   UNL     1      -1.527  11.161  19.005  0.00  0.00    +0.000 A 
ATOM     23  C   UNL     1      -1.299  11.858  20.201  0.00  0.00    +0.000 A 
ATOM     24  C   UNL     1      -2.324  12.611  20.784  0.00  0.00    +0.000 A 
ATOM     25  C   UNL     1      -3.570  12.665  20.169  0.00  0.00    +0.000 A 
ATOM     26  F   UNL     1      -4.552  13.380  20.733  0.00  0.00    +0.000 F 
ATOM     27  C   UNL     1      -3.813  11.988  18.981  0.00  0.00    +0.000 A 
ATOM     28  C   UNL     1      -2.793  11.238  18.397  0.00  0.00    +0.000 A 
ENDBRANCH  21  22
ENDBRANCH  20  21
ENDBRANCH   3  20
TORSDOF 5
ENDMDL
MODEL 8
REMARK VINA RESULT:      -7.8      3.397      4.664
REMARK  Name = 
REMARK  6 active torsions:
REMARK  status: ('A' for Active; 'I' for Inactive)
REMARK    1  A    between atoms: C_1  and  C_2
REMARK    2  A    between atoms: C_3  and  O_4
REMARK    3  A    between atoms: O_4  and  C_5
REMARK    4  A    between atoms: C_5  and  C_6
REMARK    5  A    between atoms: N_17  and  C_18
REMARK    6  A    between atoms: C_21  and  C_22
REMARK                            x       y       z     vdW  Elec       q    Type
REMARK                         _______ _______ _______ _____ _____    ______ ____
ROOT
ATOM      1  C   UNL     1       4.259   7.065  17.323  0.00  0.00    +0.000 C 
ATOM      2  C   UNL     1       4.003   5.790  18.110  0.00  0.00    +0.000 A 
ATOM      3  C   UNL     1       3.362   5.898  19.306  0.00  0.00    +0.000 A 
ATOM      4  C   UNL     1       3.055   4.637  20.066  0.00  0.00    +0.000 A 
ATOM      5  O   UNL     1       2.428   4.622  21.121  0.00  0.00    +0.000 OA
ATOM      6  C   UNL     1       3.562   3.370  19.515  0.00  0.00    +0.000 A 
ATOM      7  C   UNL     1       4.201   3.401  18.344  0.00  0.00    +0.000 A 
ATOM      8  N   UNL     1       4.401   4.534  17.558  0.00  0.00    +0.000 N 
ENDROOT
BRANCH   8   9
ATOM      9  C   UNL     1       5.128   4.428  16.313  0.00  0.00    +0.000 A 
ATOM     10  N   UNL     1       4.420   4.184  15.172  0.00  0.00    +0.000 NA
ATOM     11  C   UNL     1       5.057   4.091  13.980  0.00  0.00    +0.000 A 
ATOM     12  C   UNL     1       6.415   4.271  13.821  0.00  0.00    +0.000 A 
ATOM     13  C   UNL     1       7.157   4.532  14.970  0.00  0.00    +0.000 A 
ATOM     14  C   UNL     1       6.529   4.580  16.224  0.00  0.00    +0.000 A 
ATOM     15 CL   UNL     1       7.595   4.722  17.583  0.00  0.00    +0.000 Cl
BRANCH  12  16
ATOM     16  C   UNL     1       7.058   4.175  12.470  0.00  0.00    +0.000 C 
ATOM     17  F   UNL     1       8.093   5.041  12.295  0.00  0.00    +0.000 F 
ATOM     18  F   UNL     1       7.562   2.934  12.225  0.00  0.00    +0.000 F 
ATOM     19  F   UNL     1       6.182   4.429  11.460  0.00  0.00    +0.000 F 
ENDBRANCH  12  16
ENDBRANCH   8   9
BRANCH   3  20
ATOM     20  O   UNL     1       2.964   7.140  19.781  0.00  0.00    +0.000 OA
BRANCH  20  21
ATOM     21  C   UNL     1       1.833   7.742  19.149  0.00  0.00    +0.000 C 
BRANCH  21  22
ATOM     22  C   UNL     1       1.202   8.688  20.146  0.00  0.00    +0.000 A 
ATOM     23  C   UNL     1       0.596   9.882  19.729  0.00  0.00    +0.000 A 
ATOM     24  C   UNL     1       0.029  10.749  20.669  0.00  0.00    +0.000 A 
ATOM     25  C   UNL     1       0.069  10.418  22.019  0.00  0.00    +0.000 A 
ATOM     26  F   UNL     1      -0.468  11.254  22.917  0.00  0.00    +0.000 F 
ATOM     27  C   UNL     1       0.658   9.237  22.451  0.00  0.00    +0.000 A 
ATOM     28  C   UNL     1       1.222   8.370  21.516  0.00  0.00    +0.000 A 
ENDBRANCH  21  22
ENDBRANCH  20  21
ENDBRANCH   3  20
TORSDOF 5
ENDMDL
MODEL 9
REMARK VINA RESULT:      -7.8      1.326      1.888
REMARK  Name = 
REMARK  6 active torsions:
REMARK  status: ('A' for Active; 'I' for Inactive)
REMARK    1  A    between atoms: C_1  and  C_2
REMARK    2  A    between atoms: C_3  and  O_4
REMARK    3  A    between atoms: O_4  and  C_5
REMARK    4  A    between atoms: C_5  and  C_6
REMARK    5  A    between atoms: N_17  and  C_18
REMARK    6  A    between atoms: C_21  and  C_22
REMARK                            x       y       z     vdW  Elec       q    Type
REMARK                         _______ _______ _______ _____ _____    ______ ____
ROOT
ATOM      1  C   UNL     1       2.314   8.976  17.390  0.00  0.00    +0.000 C 
ATOM      2  C   UNL     1       1.954   8.351  18.727  0.00  0.00    +0.000 A 
ATOM      3  C   UNL     1       1.110   9.038  19.544  0.00  0.00    +0.000 A 
ATOM      4  C   UNL     1       0.703   8.403  20.846  0.00  0.00    +0.000 A 
ATOM      5  O   UNL     1      -0.100   8.911  21.622  0.00  0.00    +0.000 OA
ATOM      6  C   UNL     1       1.329   7.119  21.201  0.00  0.00    +0.000 A 
ATOM      7  C   UNL     1       2.164   6.559  20.324  0.00  0.00    +0.000 A 
ATOM      8  N   UNL     1       2.473   7.063  19.062  0.00  0.00    +0.000 N 
ENDROOT
BRANCH   8   9
ATOM      9  C   UNL     1       3.410   6.360  18.215  0.00  0.00    +0.000 A 
ATOM     10  N   UNL     1       4.605   6.959  17.940  0.00  0.00    +0.000 NA
ATOM     11  C   UNL     1       5.521   6.332  17.162  0.00  0.00    +0.000 A 
ATOM     12  C   UNL     1       5.346   5.067  16.640  0.00  0.00    +0.000 A 
ATOM     13  C   UNL     1       4.138   4.431  16.916  0.00  0.00    +0.000 A 
ATOM     14  C   UNL     1       3.151   5.081  17.675  0.00  0.00    +0.000 A 
ATOM     15 CL   UNL     1       1.631   4.254  17.778  0.00  0.00    +0.000 Cl
BRANCH  12  16
ATOM     16  C   UNL     1       6.407   4.419  15.803  0.00  0.00    +0.000 C 
ATOM     17  F   UNL     1       7.584   4.234  16.460  0.00  0.00    +0.000 F 
ATOM     18  F   UNL     1       6.030   3.191  15.353  0.00  0.00    +0.000 F 
ATOM     19  F   UNL     1       6.708   5.147  14.693  0.00  0.00    +0.000 F 
ENDBRANCH  12  16
ENDBRANCH   8   9
BRANCH   3  20
ATOM     20  O   UNL     1       0.605  10.271  19.157  0.00  0.00    +0.000 OA
BRANCH  20  21
ATOM     21  C   UNL     1      -0.488  10.262  18.236  0.00  0.00    +0.000 C 
BRANCH  21  22
ATOM     22  C   UNL     1      -1.607  11.074  18.848  0.00  0.00    +0.000 A 
ATOM     23  C   UNL     1      -2.878  11.118  18.257  0.00  0.00    +0.000 A 
ATOM     24  C   UNL     1      -3.896  11.884  18.832  0.00  0.00    +0.000 A 
ATOM     25  C   UNL     1      -3.641  12.602  19.996  0.00  0.00    +0.000 A 
ATOM     26  F   UNL     1      -4.616  13.341  20.541  0.00  0.00    +0.000 F 
ATOM     27  C   UNL     1      -2.392  12.565  20.601  0.00  0.00    +0.000 A 
ATOM     28  C   UNL     1      -1.376  11.800  20.030  0.00  0.00    +0.000 A 
ENDBRANCH  21  22
ENDBRANCH  20  21
ENDBRANCH   3  20
TORSDOF 5
ENDMDL
