MODEL 1
REMARK VINA RESULT:      -7.2      0.000      0.000
REMARK  Name = 
REMARK  12 active torsions:
REMARK  status: ('A' for Active; 'I' for Inactive)
REMARK    1  A    between atoms: C_1  and  C_2
REMARK    2  A    between atoms: C_2  and  C_3
REMARK    3  A    between atoms: C_3  and  O_4
REMARK    4  A    between atoms: O_4  and  C_5
REMARK    5  A    between atoms: C_8  and  N_9
REMARK    6  A    between atoms: C_12  and  O_13
REMARK    7  A    between atoms: O_13  and  C_14
REMARK    8  A    between atoms: C_17  and  C_18
REMARK    9  A    between atoms: C_18  and  C_19
REMARK   10  A    between atoms: C_18  and  N_20
REMARK   11  A    between atoms: C_21  and  C_22
REMARK   12  A    between atoms: C_27  and  C_28
REMARK                            x       y       z     vdW  Elec       q    Type
REMARK                         _______ _______ _______ _____ _____    ______ ____
ROOT
ATOM      1  N   UNL     1       5.102   6.341  16.955  0.00  0.00    +0.000 N 
ATOM      2  C   UNL     1       5.992   6.065  15.833  0.00  0.00    +0.000 C 
ATOM      3  C   UNL     1       7.346   5.879  16.492  0.00  0.00    +0.000 C 
ATOM      4  C   UNL     1       7.350   6.974  17.559  0.00  0.00    +0.000 C 
ATOM      5  C   UNL     1       5.889   6.912  18.076  0.00  0.00    +0.000 C 
ENDROOT
BRANCH   1   9
ATOM      6  C   UNL     1       1.956   3.711  17.991  0.00  0.00    +0.000 A 
ATOM      7  C   UNL     1       3.125   3.270  17.385  0.00  0.00    +0.000 A 
ATOM      8  C   UNL     1       4.120   4.185  17.033  0.00  0.00    +0.000 A 
ATOM      9  C   UNL     1       3.997   5.565  17.277  0.00  0.00    +0.000 A 
ATOM     10  C   UNL     1       2.784   6.003  17.844  0.00  0.00    +0.000 A 
ATOM     11  C   UNL     1       1.785   5.076  18.209  0.00  0.00    +0.000 A 
BRANCH  10  12
ATOM     12  C   UNL     1       2.449   7.390  18.022  0.00  0.00    +0.000 C 
ATOM     13  N   UNL     1       2.202   8.518  18.167  0.00  0.00    +0.000 NA
ENDBRANCH  10  12
BRANCH   6  14
ATOM     14  O   UNL     1       0.921   2.918  18.407  0.00  0.00    +0.000 OA
BRANCH  14  15
ATOM     15  C   UNL     1       1.216   2.026  19.483  0.00  0.00    +0.000 C 
BRANCH  15  17
ATOM     16  C   UNL     1       2.367   2.830  21.556  0.00  0.00    +0.000 C 
ATOM     17  C   UNL     1       1.047   2.763  20.805  0.00  0.00    +0.000 C 
ENDBRANCH  15  17
ENDBRANCH  14  15
ENDBRANCH   6  14
ENDBRANCH   1   9
BRANCH   4  18
ATOM     18  O   UNL     1       7.595   8.276  17.000  0.00  0.00    +0.000 OA
BRANCH  18  19
ATOM     19  C   UNL     1       8.180   9.189  17.835  0.00  0.00    +0.000 A 
ATOM     20  C   UNL     1       8.828   8.873  19.028  0.00  0.00    +0.000 A 
ATOM     21  C   UNL     1       9.469   9.864  19.775  0.00  0.00    +0.000 A 
ATOM     22  C   UNL     1       9.458  11.197  19.353  0.00  0.00    +0.000 A 
ATOM     23  C   UNL     1       8.785  11.516  18.162  0.00  0.00    +0.000 A 
ATOM     24  C   UNL     1       8.168  10.515  17.403  0.00  0.00    +0.000 A 
BRANCH  22  25
ATOM     25  C   UNL     1      10.194  12.238  20.174  0.00  0.00    +0.000 C 
ATOM     26  C   UNL     1      11.705  12.166  19.954  0.00  0.00    +0.000 C 
BRANCH  25  27
ATOM     27  N   UNL     1       9.855  12.091  21.578  0.00  0.00    +0.000 N 
ATOM     28  C   UNL     1       8.766  12.709  22.140  0.00  0.00    +0.000 C 
ATOM     29  C   UNL     1       8.610  12.452  23.616  0.00  0.00    +0.000 C 
ATOM     30  O   UNL     1       7.990  13.427  21.518  0.00  0.00    +0.000 OA
ATOM     31  H   UNL     1      10.452  11.518  22.157  0.00  0.00    +0.000 HD
ENDBRANCH  25  27
ENDBRANCH  22  25
ENDBRANCH  18  19
ENDBRANCH   4  18
TORSDOF 9
ENDMDL
MODEL 2
REMARK VINA RESULT:      -7.2      5.412      8.197
REMARK  Name = 
REMARK  12 active torsions:
REMARK  status: ('A' for Active; 'I' for Inactive)
REMARK    1  A    between atoms: C_1  and  C_2
REMARK    2  A    between atoms: C_2  and  C_3
REMARK    3  A    between atoms: C_3  and  O_4
REMARK    4  A    between atoms: O_4  and  C_5
REMARK    5  A    between atoms: C_8  and  N_9
REMARK    6  A    between atoms: C_12  and  O_13
REMARK    7  A    between atoms: O_13  and  C_14
REMARK    8  A    between atoms: C_17  and  C_18
REMARK    9  A    between atoms: C_18  and  C_19
REMARK   10  A    between atoms: C_18  and  N_20
REMARK   11  A    between atoms: C_21  and  C_22
REMARK   12  A    between atoms: C_27  and  C_28
REMARK                            x       y       z     vdW  Elec       q    Type
REMARK                         _______ _______ _______ _____ _____    ______ ____
ROOT
ATOM      1  N   UNL     1       2.289   6.887  18.310  0.00  0.00    +0.000 N 
ATOM      2  C   UNL     1       1.666   8.066  17.720  0.00  0.00    +0.000 C 
ATOM      3  C   UNL     1       2.053   9.184  18.670  0.00  0.00    +0.000 C 
ATOM      4  C   UNL     1       1.903   8.523  20.041  0.00  0.00    +0.000 C 
ATOM      5  C   UNL     1       2.470   7.106  19.767  0.00  0.00    +0.000 C 
ENDROOT
BRANCH   1   9
ATOM      6  C   UNL     1       5.387   4.710  16.425  0.00  0.00    +0.000 A 
ATOM      7  C   UNL     1       5.423   6.092  16.558  0.00  0.00    +0.000 A 
ATOM      8  C   UNL     1       4.358   6.767  17.160  0.00  0.00    +0.000 A 
ATOM      9  C   UNL     1       3.225   6.097  17.659  0.00  0.00    +0.000 A 
ATOM     10  C   UNL     1       3.179   4.701  17.469  0.00  0.00    +0.000 A 
ATOM     11  C   UNL     1       4.262   4.021  16.871  0.00  0.00    +0.000 A 
BRANCH  10  12
ATOM     12  C   UNL     1       2.033   3.896  17.791  0.00  0.00    +0.000 C 
ATOM     13  N   UNL     1       1.096   3.248  18.029  0.00  0.00    +0.000 NA
ENDBRANCH  10  12
BRANCH   6  14
ATOM     14  O   UNL     1       6.373   3.932  15.880  0.00  0.00    +0.000 OA
BRANCH  14  15
ATOM     15  C   UNL     1       6.793   4.293  14.564  0.00  0.00    +0.000 C 
BRANCH  15  17
ATOM     16  C   UNL     1       6.421   3.450  12.236  0.00  0.00    +0.000 C 
ATOM     17  C   UNL     1       5.759   3.806  13.557  0.00  0.00    +0.000 C 
ENDBRANCH  15  17
ENDBRANCH  14  15
ENDBRANCH   6  14
ENDBRANCH   1   9
BRANCH   4  18
ATOM     18  O   UNL     1       0.528   8.409  20.441  0.00  0.00    +0.000 OA
BRANCH  18  19
ATOM     19  C   UNL     1       0.008   9.478  21.121  0.00  0.00    +0.000 A 
ATOM     20  C   UNL     1      -0.286  10.714  20.550  0.00  0.00    +0.000 A 
ATOM     21  C   UNL     1      -0.892  11.722  21.305  0.00  0.00    +0.000 A 
ATOM     22  C   UNL     1      -1.198  11.518  22.654  0.00  0.00    +0.000 A 
ATOM     23  C   UNL     1      -0.879  10.279  23.232  0.00  0.00    +0.000 A 
ATOM     24  C   UNL     1      -0.297   9.263  22.464  0.00  0.00    +0.000 A 
BRANCH  22  25
ATOM     25  C   UNL     1      -1.886  12.624  23.431  0.00  0.00    +0.000 C 
ATOM     26  C   UNL     1      -3.383  12.359  23.583  0.00  0.00    +0.000 C 
BRANCH  25  27
ATOM     27  N   UNL     1      -1.636  13.905  22.793  0.00  0.00    +0.000 N 
ATOM     28  C   UNL     1      -1.060  14.957  23.458  0.00  0.00    +0.000 C 
ATOM     29  C   UNL     1      -0.919  16.205  22.626  0.00  0.00    +0.000 C 
ATOM     30  O   UNL     1      -0.704  14.914  24.632  0.00  0.00    +0.000 OA
ATOM     31  H   UNL     1      -1.908  14.019  21.827  0.00  0.00    +0.000 HD
ENDBRANCH  25  27
ENDBRANCH  22  25
ENDBRANCH  18  19
ENDBRANCH   4  18
TORSDOF 9
ENDMDL
MODEL 3
REMARK VINA RESULT:      -7.2      5.305      8.304
REMARK  Name = 
REMARK  12 active torsions:
REMARK  status: ('A' for Active; 'I' for Inactive)
REMARK    1  A    between atoms: C_1  and  C_2
REMARK    2  A    between atoms: C_2  and  C_3
REMARK    3  A    between atoms: C_3  and  O_4
REMARK    4  A    between atoms: O_4  and  C_5
REMARK    5  A    between atoms: C_8  and  N_9
REMARK    6  A    between atoms: C_12  and  O_13
REMARK    7  A    between atoms: O_13  and  C_14
REMARK    8  A    between atoms: C_17  and  C_18
REMARK    9  A    between atoms: C_18  and  C_19
REMARK   10  A    between atoms: C_18  and  N_20
REMARK   11  A    between atoms: C_21  and  C_22
REMARK   12  A    between atoms: C_27  and  C_28
REMARK                            x       y       z     vdW  Elec       q    Type
REMARK                         _______ _______ _______ _____ _____    ______ ____
ROOT
ATOM      1  N   UNL     1       3.491   5.982  19.440  0.00  0.00    +0.000 N 
ATOM      2  C   UNL     1       2.973   5.169  20.534  0.00  0.00    +0.000 C 
ATOM      3  C   UNL     1       1.476   5.405  20.473  0.00  0.00    +0.000 C 
ATOM      4  C   UNL     1       1.386   6.902  20.176  0.00  0.00    +0.000 C 
ATOM      5  C   UNL     1       2.542   7.089  19.160  0.00  0.00    +0.000 C 
ENDROOT
BRANCH   1   9
ATOM      6  C   UNL     1       5.993   4.517  16.361  0.00  0.00    +0.000 A 
ATOM      7  C   UNL     1       6.359   5.581  17.174  0.00  0.00    +0.000 A 
ATOM      8  C   UNL     1       5.482   6.048  18.155  0.00  0.00    +0.000 A 
ATOM      9  C   UNL     1       4.216   5.473  18.372  0.00  0.00    +0.000 A 
ATOM     10  C   UNL     1       3.837   4.428  17.504  0.00  0.00    +0.000 A 
ATOM     11  C   UNL     1       4.730   3.951  16.521  0.00  0.00    +0.000 A 
BRANCH  10  12
ATOM     12  C   UNL     1       2.527   3.837  17.504  0.00  0.00    +0.000 C 
ATOM     13  N   UNL     1       1.477   3.337  17.495  0.00  0.00    +0.000 NA
ENDBRANCH  10  12
BRANCH   6  14
ATOM     14  O   UNL     1       6.768   3.951  15.385  0.00  0.00    +0.000 OA
BRANCH  14  15
ATOM     15  C   UNL     1       6.716   4.584  14.105  0.00  0.00    +0.000 C 
BRANCH  15  17
ATOM     16  C   UNL     1       6.472   3.329  11.953  0.00  0.00    +0.000 C 
ATOM     17  C   UNL     1       5.759   3.816  13.204  0.00  0.00    +0.000 C 
ENDBRANCH  15  17
ENDBRANCH  14  15
ENDBRANCH   6  14
ENDBRANCH   1   9
BRANCH   4  18
ATOM     18  O   UNL     1       1.650   7.702  21.339  0.00  0.00    +0.000 OA
BRANCH  18  19
ATOM     19  C   UNL     1       0.941   8.869  21.441  0.00  0.00    +0.000 A 
ATOM     20  C   UNL     1       0.697   9.743  20.383  0.00  0.00    +0.000 A 
ATOM     21  C   UNL     1      -0.107  10.872  20.562  0.00  0.00    +0.000 A 
ATOM     22  C   UNL     1      -0.668  11.159  21.811  0.00  0.00    +0.000 A 
ATOM     23  C   UNL     1      -0.401  10.288  22.879  0.00  0.00    +0.000 A 
ATOM     24  C   UNL     1       0.382   9.144  22.688  0.00  0.00    +0.000 A 
BRANCH  22  25
ATOM     25  C   UNL     1      -1.563  12.374  21.957  0.00  0.00    +0.000 C 
ATOM     26  C   UNL     1      -0.760  13.674  21.928  0.00  0.00    +0.000 C 
BRANCH  25  27
ATOM     27  N   UNL     1      -2.351  12.264  23.172  0.00  0.00    +0.000 N 
ATOM     28  C   UNL     1      -3.695  12.537  23.205  0.00  0.00    +0.000 C 
ATOM     29  C   UNL     1      -4.317  12.392  24.570  0.00  0.00    +0.000 C 
ATOM     30  O   UNL     1      -4.346  12.889  22.226  0.00  0.00    +0.000 OA
ATOM     31  H   UNL     1      -1.882  11.984  24.022  0.00  0.00    +0.000 HD
ENDBRANCH  25  27
ENDBRANCH  22  25
ENDBRANCH  18  19
ENDBRANCH   4  18
TORSDOF 9
ENDMDL
MODEL 4
REMARK VINA RESULT:      -7.2      5.243      8.249
REMARK  Name = 
REMARK  12 active torsions:
REMARK  status: ('A' for Active; 'I' for Inactive)
REMARK    1  A    between atoms: C_1  and  C_2
REMARK    2  A    between atoms: C_2  and  C_3
REMARK    3  A    between atoms: C_3  and  O_4
REMARK    4  A    between atoms: O_4  and  C_5
REMARK    5  A    between atoms: C_8  and  N_9
REMARK    6  A    between atoms: C_12  and  O_13
REMARK    7  A    between atoms: O_13  and  C_14
REMARK    8  A    between atoms: C_17  and  C_18
REMARK    9  A    between atoms: C_18  and  C_19
REMARK   10  A    between atoms: C_18  and  N_20
REMARK   11  A    between atoms: C_21  and  C_22
REMARK   12  A    between atoms: C_27  and  C_28
REMARK                            x       y       z     vdW  Elec       q    Type
REMARK                         _______ _______ _______ _____ _____    ______ ____
ROOT
ATOM      1  N   UNL     1       3.979   5.908  18.268  0.00  0.00    +0.000 N 
ATOM      2  C   UNL     1       4.063   5.387  19.628  0.00  0.00    +0.000 C 
ATOM      3  C   UNL     1       2.611   5.190  20.022  0.00  0.00    +0.000 C 
ATOM      4  C   UNL     1       1.936   6.433  19.440  0.00  0.00    +0.000 C 
ATOM      5  C   UNL     1       2.667   6.576  18.079  0.00  0.00    +0.000 C 
ENDROOT
BRANCH   1   9
ATOM      6  C   UNL     1       5.950   4.283  14.897  0.00  0.00    +0.000 A 
ATOM      7  C   UNL     1       5.892   5.649  15.138  0.00  0.00    +0.000 A 
ATOM      8  C   UNL     1       5.200   6.137  16.249  0.00  0.00    +0.000 A 
ATOM      9  C   UNL     1       4.549   5.289  17.165  0.00  0.00    +0.000 A 
ATOM     10  C   UNL     1       4.572   3.909  16.878  0.00  0.00    +0.000 A 
ATOM     11  C   UNL     1       5.281   3.419  15.761  0.00  0.00    +0.000 A 
BRANCH  10  12
ATOM     12  C   UNL     1       3.836   2.932  17.634  0.00  0.00    +0.000 C 
ATOM     13  N   UNL     1       3.240   2.157  18.264  0.00  0.00    +0.000 NA
ENDBRANCH  10  12
BRANCH   6  14
ATOM     14  O   UNL     1       6.614   3.679  13.864  0.00  0.00    +0.000 OA
BRANCH  14  15
ATOM     15  C   UNL     1       6.145   3.999  12.553  0.00  0.00    +0.000 C 
BRANCH  15  17
ATOM     16  C   UNL     1       4.149   3.207  11.267  0.00  0.00    +0.000 C 
ATOM     17  C   UNL     1       5.431   2.788  11.968  0.00  0.00    +0.000 C 
ENDBRANCH  15  17
ENDBRANCH  14  15
ENDBRANCH   6  14
ENDBRANCH   1   9
BRANCH   4  18
ATOM     18  O   UNL     1       2.184   7.606  20.231  0.00  0.00    +0.000 OA
BRANCH  18  19
ATOM     19  C   UNL     1       1.424   8.705  19.934  0.00  0.00    +0.000 A 
ATOM     20  C   UNL     1       1.442   9.374  18.711  0.00  0.00    +0.000 A 
ATOM     21  C   UNL     1       0.571  10.439  18.469  0.00  0.00    +0.000 A 
ATOM     22  C   UNL     1      -0.325  10.868  19.454  0.00  0.00    +0.000 A 
ATOM     23  C   UNL     1      -0.324  10.206  20.692  0.00  0.00    +0.000 A 
ATOM     24  C   UNL     1       0.532   9.122  20.920  0.00  0.00    +0.000 A 
BRANCH  22  25
ATOM     25  C   UNL     1      -1.279  12.005  19.141  0.00  0.00    +0.000 C 
ATOM     26  C   UNL     1      -1.302  13.047  20.258  0.00  0.00    +0.000 C 
BRANCH  25  27
ATOM     27  N   UNL     1      -2.607  11.477  18.879  0.00  0.00    +0.000 N 
ATOM     28  C   UNL     1      -3.051  11.200  17.611  0.00  0.00    +0.000 C 
ATOM     29  C   UNL     1      -4.468  10.691  17.557  0.00  0.00    +0.000 C 
ATOM     30  O   UNL     1      -2.379  11.365  16.599  0.00  0.00    +0.000 OA
ATOM     31  H   UNL     1      -3.222  11.320  19.665  0.00  0.00    +0.000 HD
ENDBRANCH  25  27
ENDBRANCH  22  25
ENDBRANCH  18  19
ENDBRANCH   4  18
TORSDOF 9
ENDMDL
MODEL 5
REMARK VINA RESULT:      -7.1      4.725      7.513
REMARK  Name = 
REMARK  12 active torsions:
REMARK  status: ('A' for Active; 'I' for Inactive)
REMARK    1  A    between atoms: C_1  and  C_2
REMARK    2  A    between atoms: C_2  and  C_3
REMARK    3  A    between atoms: C_3  and  O_4
REMARK    4  A    between atoms: O_4  and  C_5
REMARK    5  A    between atoms: C_8  and  N_9
REMARK    6  A    between atoms: C_12  and  O_13
REMARK    7  A    between atoms: O_13  and  C_14
REMARK    8  A    between atoms: C_17  and  C_18
REMARK    9  A    between atoms: C_18  and  C_19
REMARK   10  A    between atoms: C_18  and  N_20
REMARK   11  A    between atoms: C_21  and  C_22
REMARK   12  A    between atoms: C_27  and  C_28
REMARK                            x       y       z     vdW  Elec       q    Type
REMARK                         _______ _______ _______ _____ _____    ______ ____
ROOT
ATOM      1  N   UNL     1       3.860   5.596  19.118  0.00  0.00    +0.000 N 
ATOM      2  C   UNL     1       3.309   4.799  20.208  0.00  0.00    +0.000 C 
ATOM      3  C   UNL     1       1.811   4.996  20.069  0.00  0.00    +0.000 C 
ATOM      4  C   UNL     1       1.701   6.482  19.729  0.00  0.00    +0.000 C 
ATOM      5  C   UNL     1       2.900   6.672  18.764  0.00  0.00    +0.000 C 
ENDROOT
BRANCH   1   9
ATOM      6  C   UNL     1       6.008   4.114  15.790  0.00  0.00    +0.000 A 
ATOM      7  C   UNL     1       4.620   4.131  15.832  0.00  0.00    +0.000 A 
ATOM      8  C   UNL     1       3.959   4.601  16.969  0.00  0.00    +0.000 A 
ATOM      9  C   UNL     1       4.647   5.078  18.100  0.00  0.00    +0.000 A 
ATOM     10  C   UNL     1       6.055   5.005  18.063  0.00  0.00    +0.000 A 
ATOM     11  C   UNL     1       6.720   4.540  16.908  0.00  0.00    +0.000 A 
BRANCH  10  12
ATOM     12  C   UNL     1       6.893   5.317  19.188  0.00  0.00    +0.000 C 
ATOM     13  N   UNL     1       7.585   5.550  20.093  0.00  0.00    +0.000 NA
ENDBRANCH  10  12
BRANCH   6  14
ATOM     14  O   UNL     1       6.772   3.705  14.730  0.00  0.00    +0.000 OA
BRANCH  14  15
ATOM     15  C   UNL     1       6.567   4.412  13.507  0.00  0.00    +0.000 C 
BRANCH  15  17
ATOM     16  C   UNL     1       4.870   3.378  11.984  0.00  0.00    +0.000 C 
ATOM     17  C   UNL     1       6.337   3.412  12.382  0.00  0.00    +0.000 C 
ENDBRANCH  15  17
ENDBRANCH  14  15
ENDBRANCH   6  14
ENDBRANCH   1   9
BRANCH   4  18
ATOM     18  O   UNL     1       1.890   7.318  20.882  0.00  0.00    +0.000 OA
BRANCH  18  19
ATOM     19  C   UNL     1       1.296   8.551  20.837  0.00  0.00    +0.000 A 
ATOM     20  C   UNL     1       1.151   9.319  19.683  0.00  0.00    +0.000 A 
ATOM     21  C   UNL     1       0.458  10.531  19.716  0.00  0.00    +0.000 A 
ATOM     22  C   UNL     1      -0.089  11.009  20.911  0.00  0.00    +0.000 A 
ATOM     23  C   UNL     1       0.079  10.244  22.076  0.00  0.00    +0.000 A 
ATOM     24  C   UNL     1       0.751   9.016  22.032  0.00  0.00    +0.000 A 
BRANCH  22  25
ATOM     25  C   UNL     1      -0.865  12.313  20.900  0.00  0.00    +0.000 C 
ATOM     26  C   UNL     1      -2.204  12.166  20.179  0.00  0.00    +0.000 C 
BRANCH  25  27
ATOM     27  N   UNL     1      -0.055  13.364  20.309  0.00  0.00    +0.000 N 
ATOM     28  C   UNL     1       0.744  14.187  21.061  0.00  0.00    +0.000 C 
ATOM     29  C   UNL     1       1.475  15.231  20.258  0.00  0.00    +0.000 C 
ATOM     30  O   UNL     1       0.852  14.110  22.281  0.00  0.00    +0.000 OA
ATOM     31  H   UNL     1      -0.096  13.492  19.308  0.00  0.00    +0.000 HD
ENDBRANCH  25  27
ENDBRANCH  22  25
ENDBRANCH  18  19
ENDBRANCH   4  18
TORSDOF 9
ENDMDL
MODEL 6
REMARK VINA RESULT:      -7.0      4.400      8.162
REMARK  Name = 
REMARK  12 active torsions:
REMARK  status: ('A' for Active; 'I' for Inactive)
REMARK    1  A    between atoms: C_1  and  C_2
REMARK    2  A    between atoms: C_2  and  C_3
REMARK    3  A    between atoms: C_3  and  O_4
REMARK    4  A    between atoms: O_4  and  C_5
REMARK    5  A    between atoms: C_8  and  N_9
REMARK    6  A    between atoms: C_12  and  O_13
REMARK    7  A    between atoms: O_13  and  C_14
REMARK    8  A    between atoms: C_17  and  C_18
REMARK    9  A    between atoms: C_18  and  C_19
REMARK   10  A    between atoms: C_18  and  N_20
REMARK   11  A    between atoms: C_21  and  C_22
REMARK   12  A    between atoms: C_27  and  C_28
REMARK                            x       y       z     vdW  Elec       q    Type
REMARK                         _______ _______ _______ _____ _____    ______ ____
ROOT
ATOM      1  N   UNL     1       4.549   5.699  18.093  0.00  0.00    +0.000 N 
ATOM      2  C   UNL     1       4.711   5.053  19.390  0.00  0.00    +0.000 C 
ATOM      3  C   UNL     1       3.312   4.565  19.720  0.00  0.00    +0.000 C 
ATOM      4  C   UNL     1       2.436   5.728  19.256  0.00  0.00    +0.000 C 
ATOM      5  C   UNL     1       3.142   6.147  17.940  0.00  0.00    +0.000 C 
ENDROOT
BRANCH   1   9
ATOM      6  C   UNL     1       6.308   4.438  14.459  0.00  0.00    +0.000 A 
ATOM      7  C   UNL     1       5.150   3.863  14.964  0.00  0.00    +0.000 A 
ATOM      8  C   UNL     1       4.628   4.293  16.186  0.00  0.00    +0.000 A 
ATOM      9  C   UNL     1       5.228   5.314  16.946  0.00  0.00    +0.000 A 
ATOM     10  C   UNL     1       6.432   5.851  16.446  0.00  0.00    +0.000 A 
ATOM     11  C   UNL     1       6.951   5.422  15.206  0.00  0.00    +0.000 A 
BRANCH  10  12
ATOM     12  C   UNL     1       7.239   6.794  17.173  0.00  0.00    +0.000 C 
ATOM     13  N   UNL     1       7.877   7.575  17.752  0.00  0.00    +0.000 NA
ENDBRANCH  10  12
BRANCH   6  14
ATOM     14  O   UNL     1       6.904   4.125  13.267  0.00  0.00    +0.000 OA
BRANCH  14  15
ATOM     15  C   UNL     1       6.155   3.268  12.404  0.00  0.00    +0.000 C 
BRANCH  15  17
ATOM     16  C   UNL     1       6.400   1.237  10.962  0.00  0.00    +0.000 C 
ATOM     17  C   UNL     1       7.117   2.430  11.572  0.00  0.00    +0.000 C 
ENDBRANCH  15  17
ENDBRANCH  14  15
ENDBRANCH   6  14
ENDBRANCH   1   9
BRANCH   4  18
ATOM     18  O   UNL     1       2.467   6.832  20.176  0.00  0.00    +0.000 OA
BRANCH  18  19
ATOM     19  C   UNL     1       1.801   7.962  19.784  0.00  0.00    +0.000 A 
ATOM     20  C   UNL     1       1.897   8.541  18.520  0.00  0.00    +0.000 A 
ATOM     21  C   UNL     1       1.116   9.649  18.183  0.00  0.00    +0.000 A 
ATOM     22  C   UNL     1       0.237  10.213  19.112  0.00  0.00    +0.000 A 
ATOM     23  C   UNL     1       0.159   9.641  20.392  0.00  0.00    +0.000 A 
ATOM     24  C   UNL     1       0.924   8.514  20.716  0.00  0.00    +0.000 A 
BRANCH  22  25
ATOM     25  C   UNL     1      -0.619  11.394  18.697  0.00  0.00    +0.000 C 
ATOM     26  C   UNL     1      -1.720  11.680  19.718  0.00  0.00    +0.000 C 
BRANCH  25  27
ATOM     27  N   UNL     1      -1.170  11.164  17.373  0.00  0.00    +0.000 N 
ATOM     28  C   UNL     1      -2.224  10.314  17.152  0.00  0.00    +0.000 C 
ATOM     29  C   UNL     1      -2.620  10.192  15.704  0.00  0.00    +0.000 C 
ATOM     30  O   UNL     1      -2.793   9.684  18.038  0.00  0.00    +0.000 OA
ATOM     31  H   UNL     1      -0.749  11.645  16.591  0.00  0.00    +0.000 HD
ENDBRANCH  25  27
ENDBRANCH  22  25
ENDBRANCH  18  19
ENDBRANCH   4  18
TORSDOF 9
ENDMDL
MODEL 7
REMARK VINA RESULT:      -7.0      4.419      8.193
REMARK  Name = 
REMARK  12 active torsions:
REMARK  status: ('A' for Active; 'I' for Inactive)
REMARK    1  A    between atoms: C_1  and  C_2
REMARK    2  A    between atoms: C_2  and  C_3
REMARK    3  A    between atoms: C_3  and  O_4
REMARK    4  A    between atoms: O_4  and  C_5
REMARK    5  A    between atoms: C_8  and  N_9
REMARK    6  A    between atoms: C_12  and  O_13
REMARK    7  A    between atoms: O_13  and  C_14
REMARK    8  A    between atoms: C_17  and  C_18
REMARK    9  A    between atoms: C_18  and  C_19
REMARK   10  A    between atoms: C_18  and  N_20
REMARK   11  A    between atoms: C_21  and  C_22
REMARK   12  A    between atoms: C_27  and  C_28
REMARK                            x       y       z     vdW  Elec       q    Type
REMARK                         _______ _______ _______ _____ _____    ______ ____
ROOT
ATOM      1  N   UNL     1       4.334   5.978  18.263  0.00  0.00    +0.000 N 
ATOM      2  C   UNL     1       4.353   5.484  19.635  0.00  0.00    +0.000 C 
ATOM      3  C   UNL     1       2.893   5.197  19.928  0.00  0.00    +0.000 C 
ATOM      4  C   UNL     1       2.183   6.383  19.275  0.00  0.00    +0.000 C 
ATOM      5  C   UNL     1       2.999   6.555  17.968  0.00  0.00    +0.000 C 
ENDROOT
BRANCH   1   9
ATOM      6  C   UNL     1       6.121   4.031  14.960  0.00  0.00    +0.000 A 
ATOM      7  C   UNL     1       4.994   3.530  15.599  0.00  0.00    +0.000 A 
ATOM      8  C   UNL     1       4.463   4.194  16.707  0.00  0.00    +0.000 A 
ATOM      9  C   UNL     1       5.021   5.382  17.215  0.00  0.00    +0.000 A 
ATOM     10  C   UNL     1       6.195   5.849  16.589  0.00  0.00    +0.000 A 
ATOM     11  C   UNL     1       6.723   5.182  15.463  0.00  0.00    +0.000 A 
BRANCH  10  12
ATOM     12  C   UNL     1       6.962   6.962  17.077  0.00  0.00    +0.000 C 
ATOM     13  N   UNL     1       7.564   7.877  17.469  0.00  0.00    +0.000 NA
ENDBRANCH  10  12
BRANCH   6  14
ATOM     14  O   UNL     1       6.721   3.491  13.854  0.00  0.00    +0.000 OA
BRANCH  14  15
ATOM     15  C   UNL     1       6.035   3.688  12.617  0.00  0.00    +0.000 C 
BRANCH  15  17
ATOM     16  C   UNL     1       5.999   1.496  11.408  0.00  0.00    +0.000 C 
ATOM     17  C   UNL     1       6.696   2.841  11.538  0.00  0.00    +0.000 C 
ENDBRANCH  15  17
ENDBRANCH  14  15
ENDBRANCH   6  14
ENDBRANCH   1   9
BRANCH   4  18
ATOM     18  O   UNL     1       2.296   7.582  20.059  0.00  0.00    +0.000 OA
BRANCH  18  19
ATOM     19  C   UNL     1       1.434   8.596  19.737  0.00  0.00    +0.000 A 
ATOM     20  C   UNL     1       0.464   9.115  20.593  0.00  0.00    +0.000 A 
ATOM     21  C   UNL     1      -0.317  10.206  20.206  0.00  0.00    +0.000 A 
ATOM     22  C   UNL     1      -0.157  10.789  18.946  0.00  0.00    +0.000 A 
ATOM     23  C   UNL     1       0.806  10.250  18.077  0.00  0.00    +0.000 A 
ATOM     24  C   UNL     1       1.606   9.174  18.480  0.00  0.00    +0.000 A 
BRANCH  22  25
ATOM     25  C   UNL     1      -1.000  11.995  18.576  0.00  0.00    +0.000 C 
ATOM     26  C   UNL     1      -2.100  12.251  19.605  0.00  0.00    +0.000 C 
BRANCH  25  27
ATOM     27  N   UNL     1      -1.550  11.822  17.242  0.00  0.00    +0.000 N 
ATOM     28  C   UNL     1      -2.457  10.837  16.943  0.00  0.00    +0.000 C 
ATOM     29  C   UNL     1      -2.877  10.810  15.497  0.00  0.00    +0.000 C 
ATOM     30  O   UNL     1      -2.885  10.028  17.761  0.00  0.00    +0.000 OA
ATOM     31  H   UNL     1      -1.240  12.448  16.513  0.00  0.00    +0.000 HD
ENDBRANCH  25  27
ENDBRANCH  22  25
ENDBRANCH  18  19
ENDBRANCH   4  18
TORSDOF 9
ENDMDL
MODEL 8
REMARK VINA RESULT:      -6.9      4.582      7.853
REMARK  Name = 
REMARK  12 active torsions:
REMARK  status: ('A' for Active; 'I' for Inactive)
REMARK    1  A    between atoms: C_1  and  C_2
REMARK    2  A    between atoms: C_2  and  C_3
REMARK    3  A    between atoms: C_3  and  O_4
REMARK    4  A    between atoms: O_4  and  C_5
REMARK    5  A    between atoms: C_8  and  N_9
REMARK    6  A    between atoms: C_12  and  O_13
REMARK    7  A    between atoms: O_13  and  C_14
REMARK    8  A    between atoms: C_17  and  C_18
REMARK    9  A    between atoms: C_18  and  C_19
REMARK   10  A    between atoms: C_18  and  N_20
REMARK   11  A    between atoms: C_21  and  C_22
REMARK   12  A    between atoms: C_27  and  C_28
REMARK                            x       y       z     vdW  Elec       q    Type
REMARK                         _______ _______ _______ _____ _____    ______ ____
ROOT
ATOM      1  N   UNL     1       4.628   5.674  17.996  0.00  0.00    +0.000 N 
ATOM      2  C   UNL     1       4.550   4.886  19.220  0.00  0.00    +0.000 C 
ATOM      3  C   UNL     1       3.061   4.667  19.408  0.00  0.00    +0.000 C 
ATOM      4  C   UNL     1       2.474   6.026  19.024  0.00  0.00    +0.000 C 
ATOM      5  C   UNL     1       3.355   6.414  17.808  0.00  0.00    +0.000 C 
ENDROOT
BRANCH   1   9
ATOM      6  C   UNL     1       6.398   4.321  14.401  0.00  0.00    +0.000 A 
ATOM      7  C   UNL     1       5.304   3.688  14.976  0.00  0.00    +0.000 A 
ATOM      8  C   UNL     1       4.778   4.155  16.182  0.00  0.00    +0.000 A 
ATOM      9  C   UNL     1       5.309   5.270  16.856  0.00  0.00    +0.000 A 
ATOM     10  C   UNL     1       6.451   5.870  16.288  0.00  0.00    +0.000 A 
ATOM     11  C   UNL     1       6.974   5.402  15.064  0.00  0.00    +0.000 A 
BRANCH  10  12
ATOM     12  C   UNL     1       7.193   6.922  16.928  0.00  0.00    +0.000 C 
ATOM     13  N   UNL     1       7.776   7.775  17.463  0.00  0.00    +0.000 NA
ENDBRANCH  10  12
BRANCH   6  14
ATOM     14  O   UNL     1       6.990   3.979  13.214  0.00  0.00    +0.000 OA
BRANCH  14  15
ATOM     15  C   UNL     1       6.163   3.270  12.291  0.00  0.00    +0.000 C 
BRANCH  15  17
ATOM     16  C   UNL     1       6.303   1.072  11.100  0.00  0.00    +0.000 C 
ATOM     17  C   UNL     1       7.035   2.362  11.433  0.00  0.00    +0.000 C 
ENDBRANCH  15  17
ENDBRANCH  14  15
ENDBRANCH   6  14
ENDBRANCH   1   9
BRANCH   4  18
ATOM     18  O   UNL     1       2.648   7.005  20.062  0.00  0.00    +0.000 OA
BRANCH  18  19
ATOM     19  C   UNL     1       1.718   8.008  20.105  0.00  0.00    +0.000 A 
ATOM     20  C   UNL     1       0.944   8.325  21.220  0.00  0.00    +0.000 A 
ATOM     21  C   UNL     1       0.077   9.420  21.197  0.00  0.00    +0.000 A 
ATOM     22  C   UNL     1      -0.047  10.210  20.050  0.00  0.00    +0.000 A 
ATOM     23  C   UNL     1       0.718   9.875  18.921  0.00  0.00    +0.000 A 
ATOM     24  C   UNL     1       1.605   8.793  18.958  0.00  0.00    +0.000 A 
BRANCH  22  25
ATOM     25  C   UNL     1      -0.973  11.412  20.076  0.00  0.00    +0.000 C 
ATOM     26  C   UNL     1      -0.434  12.558  19.221  0.00  0.00    +0.000 C 
BRANCH  25  27
ATOM     27  N   UNL     1      -1.196  11.833  21.449  0.00  0.00    +0.000 N 
ATOM     28  C   UNL     1      -2.384  12.377  21.866  0.00  0.00    +0.000 C 
ATOM     29  C   UNL     1      -2.398  12.776  23.319  0.00  0.00    +0.000 C 
ATOM     30  O   UNL     1      -3.353  12.551  21.134  0.00  0.00    +0.000 OA
ATOM     31  H   UNL     1      -0.441  11.726  22.110  0.00  0.00    +0.000 HD
ENDBRANCH  25  27
ENDBRANCH  22  25
ENDBRANCH  18  19
ENDBRANCH   4  18
TORSDOF 9
ENDMDL
MODEL 9
REMARK VINA RESULT:      -6.9      5.296      7.853
REMARK  Name = 
REMARK  12 active torsions:
REMARK  status: ('A' for Active; 'I' for Inactive)
REMARK    1  A    between atoms: C_1  and  C_2
REMARK    2  A    between atoms: C_2  and  C_3
REMARK    3  A    between atoms: C_3  and  O_4
REMARK    4  A    between atoms: O_4  and  C_5
REMARK    5  A    between atoms: C_8  and  N_9
REMARK    6  A    between atoms: C_12  and  O_13
REMARK    7  A    between atoms: O_13  and  C_14
REMARK    8  A    between atoms: C_17  and  C_18
REMARK    9  A    between atoms: C_18  and  C_19
REMARK   10  A    between atoms: C_18  and  N_20
REMARK   11  A    between atoms: C_21  and  C_22
REMARK   12  A    between atoms: C_27  and  C_28
REMARK                            x       y       z     vdW  Elec       q    Type
REMARK                         _______ _______ _______ _____ _____    ______ ____
ROOT
ATOM      1  N   UNL     1       4.161   5.853  18.090  0.00  0.00    +0.000 N 
ATOM      2  C   UNL     1       4.459   5.459  19.462  0.00  0.00    +0.000 C 
ATOM      3  C   UNL     1       3.096   5.131  20.041  0.00  0.00    +0.000 C 
ATOM      4  C   UNL     1       2.213   6.236  19.461  0.00  0.00    +0.000 C 
ATOM      5  C   UNL     1       2.764   6.350  18.015  0.00  0.00    +0.000 C 
ENDROOT
BRANCH   1   9
ATOM      6  C   UNL     1       5.968   4.164  14.659  0.00  0.00    +0.000 A 
ATOM      7  C   UNL     1       5.945   5.533  14.891  0.00  0.00    +0.000 A 
ATOM      8  C   UNL     1       5.306   6.043  16.023  0.00  0.00    +0.000 A 
ATOM      9  C   UNL     1       4.676   5.215  16.971  0.00  0.00    +0.000 A 
ATOM     10  C   UNL     1       4.662   3.832  16.696  0.00  0.00    +0.000 A 
ATOM     11  C   UNL     1       5.318   3.320  15.556  0.00  0.00    +0.000 A 
BRANCH  10  12
ATOM     12  C   UNL     1       3.939   2.875  17.488  0.00  0.00    +0.000 C 
ATOM     13  N   UNL     1       3.351   2.118  18.147  0.00  0.00    +0.000 NA
ENDBRANCH  10  12
BRANCH   6  14
ATOM     14  O   UNL     1       6.581   3.540  13.606  0.00  0.00    +0.000 OA
BRANCH  14  15
ATOM     15  C   UNL     1       5.901   3.626  12.353  0.00  0.00    +0.000 C 
BRANCH  15  17
ATOM     16  C   UNL     1       7.097   1.813  11.108  0.00  0.00    +0.000 C 
ATOM     17  C   UNL     1       5.784   2.233  11.750  0.00  0.00    +0.000 C 
ENDBRANCH  15  17
ENDBRANCH  14  15
ENDBRANCH   6  14
ENDBRANCH   1   9
BRANCH   4  18
ATOM     18  O   UNL     1       2.402   7.491  20.135  0.00  0.00    +0.000 OA
BRANCH  18  19
ATOM     19  C   UNL     1       1.539   8.497  19.789  0.00  0.00    +0.000 A 
ATOM     20  C   UNL     1       1.482   9.095  18.531  0.00  0.00    +0.000 A 
ATOM     21  C   UNL     1       0.513  10.059  18.245  0.00  0.00    +0.000 A 
ATOM     22  C   UNL     1      -0.409  10.457  19.217  0.00  0.00    +0.000 A 
ATOM     23  C   UNL     1      -0.335   9.868  20.490  0.00  0.00    +0.000 A 
ATOM     24  C   UNL     1       0.621   8.883  20.764  0.00  0.00    +0.000 A 
BRANCH  22  25
ATOM     25  C   UNL     1      -1.469  11.481  18.857  0.00  0.00    +0.000 C 
ATOM     26  C   UNL     1      -2.351  10.999  17.706  0.00  0.00    +0.000 C 
BRANCH  25  27
ATOM     27  N   UNL     1      -0.841  12.754  18.548  0.00  0.00    +0.000 N 
ATOM     28  C   UNL     1      -0.803  13.792  19.443  0.00  0.00    +0.000 C 
ATOM     29  C   UNL     1      -0.134  15.034  18.914  0.00  0.00    +0.000 C 
ATOM     30  O   UNL     1      -1.284  13.741  20.571  0.00  0.00    +0.000 OA
ATOM     31  H   UNL     1      -0.427  12.873  17.634  0.00  0.00    +0.000 HD
ENDBRANCH  25  27
ENDBRANCH  22  25
ENDBRANCH  18  19
ENDBRANCH   4  18
TORSDOF 9
ENDMDL
