MODEL 1
REMARK VINA RESULT:      -7.4      0.000      0.000
REMARK  Name = 
REMARK  11 active torsions:
REMARK  status: ('A' for Active; 'I' for Inactive)
REMARK    1  A    between atoms: C_2  and  C_3
REMARK    2  A    between atoms: C_3  and  N_4
REMARK    3  A    between atoms: N_4  and  C_5
REMARK    4  A    between atoms: N_4  and  C_20
REMARK    5  A    between atoms: C_5  and  C_6
REMARK    6  A    between atoms: C_6  and  C_7
REMARK    7  A    between atoms: C_7  and  O_8
REMARK    8  A    between atoms: O_8  and  C_9
REMARK    9  A    between atoms: C_20  and  C_21
REMARK   10  A    between atoms: C_24  and  O_25
REMARK   11  A    between atoms: O_25  and  C_26
REMARK                            x       y       z     vdW  Elec       q    Type
REMARK                         _______ _______ _______ _____ _____    ______ ____
ROOT
ATOM      1  C   UNL     1       5.371   6.125  17.652  0.00  0.00    +0.000 C 
ENDROOT
BRANCH   1   2
ATOM      2  N   UNL     1       5.928   5.241  16.594  0.00  0.00    +0.000 NA
BRANCH   2   3
ATOM      3  C   UNL     1       5.450   5.704  15.264  0.00  0.00    +0.000 C 
BRANCH   3   5
ATOM      4  C   UNL     1       6.139   3.768  13.328  0.00  0.00    +0.000 C 
ATOM      5  C   UNL     1       5.821   4.662  14.222  0.00  0.00    +0.000 C 
ENDBRANCH   3   5
ENDBRANCH   2   3
BRANCH   2   6
ATOM      6  C   UNL     1       5.537   3.842  16.840  0.00  0.00    +0.000 C 
BRANCH   6   7
ATOM      7  C   UNL     1       4.347   3.624  17.753  0.00  0.00    +0.000 A 
ATOM      8  C   UNL     1       3.048   3.459  17.256  0.00  0.00    +0.000 A 
ATOM      9  C   UNL     1       1.996   3.118  18.119  0.00  0.00    +0.000 A 
ATOM     10  C   UNL     1       2.234   2.917  19.480  0.00  0.00    +0.000 A 
ATOM     11  C   UNL     1       3.508   3.137  19.988  0.00  0.00    +0.000 A 
ATOM     12  C   UNL     1       4.557   3.484  19.133  0.00  0.00    +0.000 A 
BRANCH  10  13
ATOM     13  O   UNL     1       1.152   2.548  20.235  0.00  0.00    +0.000 OA
ATOM     14  C   UNL     1       1.370   2.580  21.645  0.00  0.00    +0.000 C 
ENDBRANCH  10  13
ENDBRANCH   6   7
ENDBRANCH   2   6
ENDBRANCH   1   2
BRANCH   1  15
ATOM     15  C   UNL     1       4.309   7.149  17.231  0.00  0.00    +0.000 C 
BRANCH  15  16
ATOM     16  C   UNL     1       3.025   7.067  18.047  0.00  0.00    +0.000 C 
BRANCH  16  17
ATOM     17  O   UNL     1       2.451   8.383  18.067  0.00  0.00    +0.000 OA
BRANCH  17  18
ATOM     18  C   UNL     1       1.746   8.692  19.199  0.00  0.00    +0.000 A 
ATOM     19  C   UNL     1       1.822   7.762  20.240  0.00  0.00    +0.000 A 
ATOM     20  C   UNL     1       1.157   7.991  21.453  0.00  0.00    +0.000 A 
ATOM     21  C   UNL     1       0.401   9.152  21.620  0.00  0.00    +0.000 A 
ATOM     22  C   UNL     1      -0.278   9.467  22.866  0.00  0.00    +0.000 A 
ATOM     23  C   UNL     1      -0.952  10.617  22.971  0.00  0.00    +0.000 A 
ATOM     24  C   UNL     1      -1.055  11.582  21.862  0.00  0.00    +0.000 A 
ATOM     25  O   UNL     1      -1.663  12.636  22.003  0.00  0.00    +0.000 OA
ATOM     26  O   UNL     1      -0.441  11.236  20.670  0.00  0.00    +0.000 OA
ATOM     27  C   UNL     1       0.306  10.048  20.559  0.00  0.00    +0.000 A 
ATOM     28  C   UNL     1       0.955   9.828  19.347  0.00  0.00    +0.000 A 
ENDBRANCH  17  18
ENDBRANCH  16  17
ENDBRANCH  15  16
ENDBRANCH   1  15
TORSDOF 10
ENDMDL
MODEL 2
REMARK VINA RESULT:      -7.3      5.575      6.756
REMARK  Name = 
REMARK  11 active torsions:
REMARK  status: ('A' for Active; 'I' for Inactive)
REMARK    1  A    between atoms: C_2  and  C_3
REMARK    2  A    between atoms: C_3  and  N_4
REMARK    3  A    between atoms: N_4  and  C_5
REMARK    4  A    between atoms: N_4  and  C_20
REMARK    5  A    between atoms: C_5  and  C_6
REMARK    6  A    between atoms: C_6  and  C_7
REMARK    7  A    between atoms: C_7  and  O_8
REMARK    8  A    between atoms: O_8  and  C_9
REMARK    9  A    between atoms: C_20  and  C_21
REMARK   10  A    between atoms: C_24  and  O_25
REMARK   11  A    between atoms: O_25  and  C_26
REMARK                            x       y       z     vdW  Elec       q    Type
REMARK                         _______ _______ _______ _____ _____    ______ ____
ROOT
ATOM      1  C   UNL     1       6.287   6.876  17.043  0.00  0.00    +0.000 C 
ENDROOT
BRANCH   1   2
ATOM      2  N   UNL     1       5.960   5.427  17.108  0.00  0.00    +0.000 NA
BRANCH   2   3
ATOM      3  C   UNL     1       6.998   4.656  16.372  0.00  0.00    +0.000 C 
BRANCH   3   5
ATOM      4  C   UNL     1       5.983   3.969  13.828  0.00  0.00    +0.000 C 
ATOM      5  C   UNL     1       6.452   4.287  15.002  0.00  0.00    +0.000 C 
ENDBRANCH   3   5
ENDBRANCH   2   3
BRANCH   2   6
ATOM      6  C   UNL     1       4.620   5.180  16.547  0.00  0.00    +0.000 C 
BRANCH   6   7
ATOM      7  C   UNL     1       3.538   4.785  17.532  0.00  0.00    +0.000 A 
ATOM      8  C   UNL     1       3.265   3.447  17.840  0.00  0.00    +0.000 A 
ATOM      9  C   UNL     1       2.357   3.125  18.859  0.00  0.00    +0.000 A 
ATOM     10  C   UNL     1       1.729   4.133  19.594  0.00  0.00    +0.000 A 
ATOM     11  C   UNL     1       1.952   5.462  19.253  0.00  0.00    +0.000 A 
ATOM     12  C   UNL     1       2.850   5.786  18.234  0.00  0.00    +0.000 A 
BRANCH  10  13
ATOM     13  O   UNL     1       0.890   3.720  20.594  0.00  0.00    +0.000 OA
ATOM     14  C   UNL     1       1.416   2.687  21.426  0.00  0.00    +0.000 C 
ENDBRANCH  10  13
ENDBRANCH   6   7
ENDBRANCH   2   6
ENDBRANCH   1   2
BRANCH   1  15
ATOM     15  C   UNL     1       7.547   7.350  17.776  0.00  0.00    +0.000 C 
BRANCH  15  16
ATOM     16  C   UNL     1       7.667   8.866  17.868  0.00  0.00    +0.000 C 
BRANCH  16  17
ATOM     17  O   UNL     1       8.974   9.159  18.382  0.00  0.00    +0.000 OA
BRANCH  17  18
ATOM     18  C   UNL     1       9.150  10.440  18.829  0.00  0.00    +0.000 A 
ATOM     19  C   UNL     1       9.386  10.584  20.200  0.00  0.00    +0.000 A 
ATOM     20  C   UNL     1       9.602  11.851  20.759  0.00  0.00    +0.000 A 
ATOM     21  C   UNL     1       9.570  12.983  19.944  0.00  0.00    +0.000 A 
ATOM     22  C   UNL     1       9.827  14.319  20.454  0.00  0.00    +0.000 A 
ATOM     23  C   UNL     1       9.821  15.355  19.609  0.00  0.00    +0.000 A 
ATOM     24  C   UNL     1       9.543  15.205  18.170  0.00  0.00    +0.000 A 
ATOM     25  O   UNL     1       9.567  16.176  17.422  0.00  0.00    +0.000 OA
ATOM     26  O   UNL     1       9.252  13.929  17.716  0.00  0.00    +0.000 OA
ATOM     27  C   UNL     1       9.296  12.824  18.588  0.00  0.00    +0.000 A 
ATOM     28  C   UNL     1       9.071  11.573  18.022  0.00  0.00    +0.000 A 
ENDBRANCH  17  18
ENDBRANCH  16  17
ENDBRANCH  15  16
ENDBRANCH   1  15
TORSDOF 10
ENDMDL
MODEL 3
REMARK VINA RESULT:      -7.2      2.084      4.622
REMARK  Name = 
REMARK  11 active torsions:
REMARK  status: ('A' for Active; 'I' for Inactive)
REMARK    1  A    between atoms: C_2  and  C_3
REMARK    2  A    between atoms: C_3  and  N_4
REMARK    3  A    between atoms: N_4  and  C_5
REMARK    4  A    between atoms: N_4  and  C_20
REMARK    5  A    between atoms: C_5  and  C_6
REMARK    6  A    between atoms: C_6  and  C_7
REMARK    7  A    between atoms: C_7  and  O_8
REMARK    8  A    between atoms: O_8  and  C_9
REMARK    9  A    between atoms: C_20  and  C_21
REMARK   10  A    between atoms: C_24  and  O_25
REMARK   11  A    between atoms: O_25  and  C_26
REMARK                            x       y       z     vdW  Elec       q    Type
REMARK                         _______ _______ _______ _____ _____    ______ ____
ROOT
ATOM      1  C   UNL     1       2.692   6.240  18.808  0.00  0.00    +0.000 C 
ENDROOT
BRANCH   1   2
ATOM      2  N   UNL     1       2.642   4.880  18.210  0.00  0.00    +0.000 NA
BRANCH   2   3
ATOM      3  C   UNL     1       1.489   4.134  18.781  0.00  0.00    +0.000 C 
BRANCH   3   5
ATOM      4  C   UNL     1       2.002   3.625  21.511  0.00  0.00    +0.000 C 
ATOM      5  C   UNL     1       1.765   3.860  20.251  0.00  0.00    +0.000 C 
ENDBRANCH   3   5
ENDBRANCH   2   3
BRANCH   2   6
ATOM      6  C   UNL     1       3.908   4.168  18.456  0.00  0.00    +0.000 C 
BRANCH   6   7
ATOM      7  C   UNL     1       5.005   4.364  17.429  0.00  0.00    +0.000 A 
ATOM      8  C   UNL     1       4.837   4.007  16.086  0.00  0.00    +0.000 A 
ATOM      9  C   UNL     1       5.818   4.334  15.137  0.00  0.00    +0.000 A 
ATOM     10  C   UNL     1       6.964   5.038  15.516  0.00  0.00    +0.000 A 
ATOM     11  C   UNL     1       7.162   5.342  16.858  0.00  0.00    +0.000 A 
ATOM     12  C   UNL     1       6.190   5.012  17.806  0.00  0.00    +0.000 A 
BRANCH  10  13
ATOM     13  O   UNL     1       7.844   5.345  14.514  0.00  0.00    +0.000 OA
ATOM     14  C   UNL     1       7.433   4.934  13.211  0.00  0.00    +0.000 C 
ENDBRANCH  10  13
ENDBRANCH   6   7
ENDBRANCH   2   6
ENDBRANCH   1   2
BRANCH   1  15
ATOM     15  C   UNL     1       3.114   7.399  17.897  0.00  0.00    +0.000 C 
BRANCH  15  16
ATOM     16  C   UNL     1       2.268   8.653  18.071  0.00  0.00    +0.000 C 
BRANCH  16  17
ATOM     17  O   UNL     1       1.663   8.581  19.371  0.00  0.00    +0.000 OA
BRANCH  17  18
ATOM     18  C   UNL     1       0.811   9.607  19.674  0.00  0.00    +0.000 A 
ATOM     19  C   UNL     1      -0.134   9.928  18.694  0.00  0.00    +0.000 A 
ATOM     20  C   UNL     1      -1.071  10.948  18.911  0.00  0.00    +0.000 A 
ATOM     21  C   UNL     1      -1.054  11.660  20.111  0.00  0.00    +0.000 A 
ATOM     22  C   UNL     1      -2.023  12.701  20.413  0.00  0.00    +0.000 A 
ATOM     23  C   UNL     1      -1.974  13.316  21.600  0.00  0.00    +0.000 A 
ATOM     24  C   UNL     1      -0.959  12.997  22.619  0.00  0.00    +0.000 A 
ATOM     25  O   UNL     1      -0.959  13.567  23.703  0.00  0.00    +0.000 OA
ATOM     26  O   UNL     1      -0.017  12.037  22.288  0.00  0.00    +0.000 OA
ATOM     27  C   UNL     1      -0.082  11.353  21.059  0.00  0.00    +0.000 A 
ATOM     28  C   UNL     1       0.858  10.348  20.853  0.00  0.00    +0.000 A 
ENDBRANCH  17  18
ENDBRANCH  16  17
ENDBRANCH  15  16
ENDBRANCH   1  15
TORSDOF 10
ENDMDL
MODEL 4
REMARK VINA RESULT:      -7.2      5.796      7.256
REMARK  Name = 
REMARK  11 active torsions:
REMARK  status: ('A' for Active; 'I' for Inactive)
REMARK    1  A    between atoms: C_2  and  C_3
REMARK    2  A    between atoms: C_3  and  N_4
REMARK    3  A    between atoms: N_4  and  C_5
REMARK    4  A    between atoms: N_4  and  C_20
REMARK    5  A    between atoms: C_5  and  C_6
REMARK    6  A    between atoms: C_6  and  C_7
REMARK    7  A    between atoms: C_7  and  O_8
REMARK    8  A    between atoms: O_8  and  C_9
REMARK    9  A    between atoms: C_20  and  C_21
REMARK   10  A    between atoms: C_24  and  O_25
REMARK   11  A    between atoms: O_25  and  C_26
REMARK                            x       y       z     vdW  Elec       q    Type
REMARK                         _______ _______ _______ _____ _____    ______ ____
ROOT
ATOM      1  C   UNL     1       7.030   6.742  16.879  0.00  0.00    +0.000 C 
ENDROOT
BRANCH   1   2
ATOM      2  N   UNL     1       5.742   6.021  16.698  0.00  0.00    +0.000 NA
BRANCH   2   3
ATOM      3  C   UNL     1       5.342   6.082  15.267  0.00  0.00    +0.000 C 
BRANCH   3   5
ATOM      4  C   UNL     1       6.276   3.758  13.964  0.00  0.00    +0.000 C 
ATOM      5  C   UNL     1       5.845   4.831  14.566  0.00  0.00    +0.000 C 
ENDBRANCH   3   5
ENDBRANCH   2   3
BRANCH   2   6
ATOM      6  C   UNL     1       4.704   6.605  17.564  0.00  0.00    +0.000 C 
BRANCH   6   7
ATOM      7  C   UNL     1       3.824   5.628  18.317  0.00  0.00    +0.000 A 
ATOM      8  C   UNL     1       2.483   5.417  17.971  0.00  0.00    +0.000 A 
ATOM      9  C   UNL     1       1.741   4.404  18.596  0.00  0.00    +0.000 A 
ATOM     10  C   UNL     1       2.333   3.580  19.555  0.00  0.00    +0.000 A 
ATOM     11  C   UNL     1       3.645   3.824  19.944  0.00  0.00    +0.000 A 
ATOM     12  C   UNL     1       4.386   4.836  19.329  0.00  0.00    +0.000 A 
BRANCH  10  13
ATOM     13  O   UNL     1       1.540   2.595  20.081  0.00  0.00    +0.000 OA
ATOM     14  C   UNL     1       1.424   2.618  21.503  0.00  0.00    +0.000 C 
ENDBRANCH  10  13
ENDBRANCH   6   7
ENDBRANCH   2   6
ENDBRANCH   1   2
BRANCH   1  15
ATOM     15  C   UNL     1       7.079   7.848  17.939  0.00  0.00    +0.000 C 
BRANCH  15  16
ATOM     16  C   UNL     1       8.151   8.898  17.678  0.00  0.00    +0.000 C 
BRANCH  16  17
ATOM     17  O   UNL     1       8.865   9.092  18.909  0.00  0.00    +0.000 OA
BRANCH  17  18
ATOM     18  C   UNL     1       9.335  10.360  19.115  0.00  0.00    +0.000 A 
ATOM     19  C   UNL     1       9.563  10.719  20.447  0.00  0.00    +0.000 A 
ATOM     20  C   UNL     1      10.066  11.988  20.769  0.00  0.00    +0.000 A 
ATOM     21  C   UNL     1      10.333  12.906  19.753  0.00  0.00    +0.000 A 
ATOM     22  C   UNL     1      10.893  14.221  20.017  0.00  0.00    +0.000 A 
ATOM     23  C   UNL     1      11.162  15.036  18.992  0.00  0.00    +0.000 A 
ATOM     24  C   UNL     1      10.893  14.666  17.591  0.00  0.00    +0.000 A 
ATOM     25  O   UNL     1      11.173  15.432  16.676  0.00  0.00    +0.000 OA
ATOM     26  O   UNL     1      10.313  13.428  17.369  0.00  0.00    +0.000 OA
ATOM     27  C   UNL     1      10.063  12.544  18.436  0.00  0.00    +0.000 A 
ATOM     28  C   UNL     1       9.556  11.291  18.103  0.00  0.00    +0.000 A 
ENDBRANCH  17  18
ENDBRANCH  16  17
ENDBRANCH  15  16
ENDBRANCH   1  15
TORSDOF 10
ENDMDL
MODEL 5
REMARK VINA RESULT:      -7.2      2.781      4.796
REMARK  Name = 
REMARK  11 active torsions:
REMARK  status: ('A' for Active; 'I' for Inactive)
REMARK    1  A    between atoms: C_2  and  C_3
REMARK    2  A    between atoms: C_3  and  N_4
REMARK    3  A    between atoms: N_4  and  C_5
REMARK    4  A    between atoms: N_4  and  C_20
REMARK    5  A    between atoms: C_5  and  C_6
REMARK    6  A    between atoms: C_6  and  C_7
REMARK    7  A    between atoms: C_7  and  O_8
REMARK    8  A    between atoms: O_8  and  C_9
REMARK    9  A    between atoms: C_20  and  C_21
REMARK   10  A    between atoms: C_24  and  O_25
REMARK   11  A    between atoms: O_25  and  C_26
REMARK                            x       y       z     vdW  Elec       q    Type
REMARK                         _______ _______ _______ _____ _____    ______ ____
ROOT
ATOM      1  C   UNL     1       2.403   6.979  19.445  0.00  0.00    +0.000 C 
ENDROOT
BRANCH   1   2
ATOM      2  N   UNL     1       2.658   5.517  19.365  0.00  0.00    +0.000 NA
BRANCH   2   3
ATOM      3  C   UNL     1       1.685   4.801  20.234  0.00  0.00    +0.000 C 
BRANCH   3   5
ATOM      4  C   UNL     1       0.790   2.492  18.878  0.00  0.00    +0.000 C 
ATOM      5  C   UNL     1       1.203   3.557  19.504  0.00  0.00    +0.000 C 
ENDBRANCH   3   5
ENDBRANCH   2   3
BRANCH   2   6
ATOM      6  C   UNL     1       4.044   5.217  19.764  0.00  0.00    +0.000 C 
BRANCH   6   7
ATOM      7  C   UNL     1       5.025   4.945  18.642  0.00  0.00    +0.000 A 
ATOM      8  C   UNL     1       4.615   4.442  17.401  0.00  0.00    +0.000 A 
ATOM      9  C   UNL     1       5.528   4.338  16.341  0.00  0.00    +0.000 A 
ATOM     10  C   UNL     1       6.852   4.752  16.503  0.00  0.00    +0.000 A 
ATOM     11  C   UNL     1       7.278   5.196  17.749  0.00  0.00    +0.000 A 
ATOM     12  C   UNL     1       6.373   5.295  18.809  0.00  0.00    +0.000 A 
BRANCH  10  13
ATOM     13  O   UNL     1       7.658   4.648  15.401  0.00  0.00    +0.000 OA
ATOM     14  C   UNL     1       6.993   4.848  14.154  0.00  0.00    +0.000 C 
ENDBRANCH  10  13
ENDBRANCH   6   7
ENDBRANCH   2   6
ENDBRANCH   1   2
BRANCH   1  15
ATOM     15  C   UNL     1       2.138   7.724  18.132  0.00  0.00    +0.000 C 
BRANCH  15  16
ATOM     16  C   UNL     1       1.929   9.222  18.310  0.00  0.00    +0.000 C 
BRANCH  16  17
ATOM     17  O   UNL     1       0.732   9.572  17.598  0.00  0.00    +0.000 OA
BRANCH  17  18
ATOM     18  C   UNL     1      -0.171  10.315  18.309  0.00  0.00    +0.000 A 
ATOM     19  C   UNL     1       0.337  10.997  19.419  0.00  0.00    +0.000 A 
ATOM     20  C   UNL     1      -0.498  11.805  20.204  0.00  0.00    +0.000 A 
ATOM     21  C   UNL     1      -1.850  11.923  19.883  0.00  0.00    +0.000 A 
ATOM     22  C   UNL     1      -2.758  12.776  20.632  0.00  0.00    +0.000 A 
ATOM     23  C   UNL     1      -4.034  12.874  20.245  0.00  0.00    +0.000 A 
ATOM     24  C   UNL     1      -4.573  12.131  19.092  0.00  0.00    +0.000 A 
ATOM     25  O   UNL     1      -5.744  12.262  18.754  0.00  0.00    +0.000 OA
ATOM     26  O   UNL     1      -3.701  11.286  18.425  0.00  0.00    +0.000 OA
ATOM     27  C   UNL     1      -2.346  11.206  18.798  0.00  0.00    +0.000 A 
ATOM     28  C   UNL     1      -1.530  10.394  18.015  0.00  0.00    +0.000 A 
ENDBRANCH  17  18
ENDBRANCH  16  17
ENDBRANCH  15  16
ENDBRANCH   1  15
TORSDOF 10
ENDMDL
MODEL 6
REMARK VINA RESULT:      -7.2      6.036      7.623
REMARK  Name = 
REMARK  11 active torsions:
REMARK  status: ('A' for Active; 'I' for Inactive)
REMARK    1  A    between atoms: C_2  and  C_3
REMARK    2  A    between atoms: C_3  and  N_4
REMARK    3  A    between atoms: N_4  and  C_5
REMARK    4  A    between atoms: N_4  and  C_20
REMARK    5  A    between atoms: C_5  and  C_6
REMARK    6  A    between atoms: C_6  and  C_7
REMARK    7  A    between atoms: C_7  and  O_8
REMARK    8  A    between atoms: O_8  and  C_9
REMARK    9  A    between atoms: C_20  and  C_21
REMARK   10  A    between atoms: C_24  and  O_25
REMARK   11  A    between atoms: O_25  and  C_26
REMARK                            x       y       z     vdW  Elec       q    Type
REMARK                         _______ _______ _______ _____ _____    ______ ____
ROOT
ATOM      1  C   UNL     1       7.620   6.589  18.411  0.00  0.00    +0.000 C 
ENDROOT
BRANCH   1   2
ATOM      2  N   UNL     1       6.833   5.374  18.071  0.00  0.00    +0.000 NA
BRANCH   2   3
ATOM      3  C   UNL     1       7.567   4.585  17.046  0.00  0.00    +0.000 C 
BRANCH   3   5
ATOM      4  C   UNL     1       6.114   4.667  14.626  0.00  0.00    +0.000 C 
ATOM      5  C   UNL     1       6.785   4.629  15.743  0.00  0.00    +0.000 C 
ENDBRANCH   3   5
ENDBRANCH   2   3
BRANCH   2   6
ATOM      6  C   UNL     1       5.493   5.752  17.589  0.00  0.00    +0.000 C 
BRANCH   6   7
ATOM      7  C   UNL     1       4.316   5.098  18.284  0.00  0.00    +0.000 A 
ATOM      8  C   UNL     1       4.111   5.212  19.664  0.00  0.00    +0.000 A 
ATOM      9  C   UNL     1       2.937   4.715  20.250  0.00  0.00    +0.000 A 
ATOM     10  C   UNL     1       1.949   4.120  19.463  0.00  0.00    +0.000 A 
ATOM     11  C   UNL     1       2.174   3.952  18.102  0.00  0.00    +0.000 A 
ATOM     12  C   UNL     1       3.345   4.439  17.516  0.00  0.00    +0.000 A 
BRANCH  10  13
ATOM     13  O   UNL     1       0.823   3.701  20.119  0.00  0.00    +0.000 OA
ATOM     14  C   UNL     1       1.066   2.857  21.244  0.00  0.00    +0.000 C 
ENDBRANCH  10  13
ENDBRANCH   6   7
ENDBRANCH   2   6
ENDBRANCH   1   2
BRANCH   1  15
ATOM     15  C   UNL     1       7.411   7.834  17.541  0.00  0.00    +0.000 C 
BRANCH  15  16
ATOM     16  C   UNL     1       8.561   8.829  17.612  0.00  0.00    +0.000 C 
BRANCH  16  17
ATOM     17  O   UNL     1       8.047  10.033  18.202  0.00  0.00    +0.000 OA
BRANCH  17  18
ATOM     18  C   UNL     1       8.987  10.978  18.509  0.00  0.00    +0.000 A 
ATOM     19  C   UNL     1       9.725  10.751  19.675  0.00  0.00    +0.000 A 
ATOM     20  C   UNL     1      10.730  11.646  20.070  0.00  0.00    +0.000 A 
ATOM     21  C   UNL     1      10.991  12.780  19.300  0.00  0.00    +0.000 A 
ATOM     22  C   UNL     1      12.045  13.723  19.633  0.00  0.00    +0.000 A 
ATOM     23  C   UNL     1      12.266  14.768  18.828  0.00  0.00    +0.000 A 
ATOM     24  C   UNL     1      11.468  15.020  17.616  0.00  0.00    +0.000 A 
ATOM     25  O   UNL     1      11.715  15.977  16.891  0.00  0.00    +0.000 OA
ATOM     26  O   UNL     1      10.437  14.135  17.347  0.00  0.00    +0.000 OA
ATOM     27  C   UNL     1      10.220  13.009  18.164  0.00  0.00    +0.000 A 
ATOM     28  C   UNL     1       9.214  12.133  17.765  0.00  0.00    +0.000 A 
ENDBRANCH  17  18
ENDBRANCH  16  17
ENDBRANCH  15  16
ENDBRANCH   1  15
TORSDOF 10
ENDMDL
MODEL 7
REMARK VINA RESULT:      -7.1      2.382      4.510
REMARK  Name = 
REMARK  11 active torsions:
REMARK  status: ('A' for Active; 'I' for Inactive)
REMARK    1  A    between atoms: C_2  and  C_3
REMARK    2  A    between atoms: C_3  and  N_4
REMARK    3  A    between atoms: N_4  and  C_5
REMARK    4  A    between atoms: N_4  and  C_20
REMARK    5  A    between atoms: C_5  and  C_6
REMARK    6  A    between atoms: C_6  and  C_7
REMARK    7  A    between atoms: C_7  and  O_8
REMARK    8  A    between atoms: O_8  and  C_9
REMARK    9  A    between atoms: C_20  and  C_21
REMARK   10  A    between atoms: C_24  and  O_25
REMARK   11  A    between atoms: O_25  and  C_26
REMARK                            x       y       z     vdW  Elec       q    Type
REMARK                         _______ _______ _______ _____ _____    ______ ____
ROOT
ATOM      1  C   UNL     1       2.196   7.144  19.395  0.00  0.00    +0.000 C 
ENDROOT
BRANCH   1   2
ATOM      2  N   UNL     1       2.584   5.711  19.322  0.00  0.00    +0.000 NA
BRANCH   2   3
ATOM      3  C   UNL     1       1.755   4.928  20.277  0.00  0.00    +0.000 C 
BRANCH   3   5
ATOM      4  C   UNL     1       0.758   2.644  18.950  0.00  0.00    +0.000 C 
ATOM      5  C   UNL     1       1.217   3.698  19.563  0.00  0.00    +0.000 C 
ENDBRANCH   3   5
ENDBRANCH   2   3
BRANCH   2   6
ATOM      6  C   UNL     1       4.019   5.555  19.615  0.00  0.00    +0.000 C 
BRANCH   6   7
ATOM      7  C   UNL     1       4.913   5.201  18.444  0.00  0.00    +0.000 A 
ATOM      8  C   UNL     1       4.424   5.113  17.135  0.00  0.00    +0.000 A 
ATOM      9  C   UNL     1       5.305   4.925  16.059  0.00  0.00    +0.000 A 
ATOM     10  C   UNL     1       6.682   4.844  16.277  0.00  0.00    +0.000 A 
ATOM     11  C   UNL     1       7.167   4.872  17.579  0.00  0.00    +0.000 A 
ATOM     12  C   UNL     1       6.292   5.052  18.653  0.00  0.00    +0.000 A 
BRANCH  10  13
ATOM     13  O   UNL     1       7.463   4.700  15.162  0.00  0.00    +0.000 OA
ATOM     14  C   UNL     1       6.745   4.412  13.963  0.00  0.00    +0.000 C 
ENDBRANCH  10  13
ENDBRANCH   6   7
ENDBRANCH   2   6
ENDBRANCH   1   2
BRANCH   1  15
ATOM     15  C   UNL     1       2.606   8.049  18.227  0.00  0.00    +0.000 C 
BRANCH  15  16
ATOM     16  C   UNL     1       1.499   8.983  17.759  0.00  0.00    +0.000 C 
BRANCH  16  17
ATOM     17  O   UNL     1       2.011  10.322  17.838  0.00  0.00    +0.000 OA
BRANCH  17  18
ATOM     18  C   UNL     1       1.512  11.077  18.864  0.00  0.00    +0.000 A 
ATOM     19  C   UNL     1       1.988  12.389  18.948  0.00  0.00    +0.000 A 
ATOM     20  C   UNL     1       1.525  13.255  19.948  0.00  0.00    +0.000 A 
ATOM     21  C   UNL     1       0.588  12.803  20.878  0.00  0.00    +0.000 A 
ATOM     22  C   UNL     1       0.039  13.662  21.913  0.00  0.00    +0.000 A 
ATOM     23  C   UNL     1      -0.886  13.175  22.746  0.00  0.00    +0.000 A 
ATOM     24  C   UNL     1      -1.365  11.783  22.674  0.00  0.00    +0.000 A 
ATOM     25  O   UNL     1      -2.230  11.378  23.442  0.00  0.00    +0.000 OA
ATOM     26  O   UNL     1      -0.790  10.970  21.712  0.00  0.00    +0.000 OA
ATOM     27  C   UNL     1       0.154  11.482  20.802  0.00  0.00    +0.000 A 
ATOM     28  C   UNL     1       0.612  10.610  19.819  0.00  0.00    +0.000 A 
ENDBRANCH  17  18
ENDBRANCH  16  17
ENDBRANCH  15  16
ENDBRANCH   1  15
TORSDOF 10
ENDMDL
MODEL 8
REMARK VINA RESULT:      -7.1      3.419      9.612
REMARK  Name = 
REMARK  11 active torsions:
REMARK  status: ('A' for Active; 'I' for Inactive)
REMARK    1  A    between atoms: C_2  and  C_3
REMARK    2  A    between atoms: C_3  and  N_4
REMARK    3  A    between atoms: N_4  and  C_5
REMARK    4  A    between atoms: N_4  and  C_20
REMARK    5  A    between atoms: C_5  and  C_6
REMARK    6  A    between atoms: C_6  and  C_7
REMARK    7  A    between atoms: C_7  and  O_8
REMARK    8  A    between atoms: O_8  and  C_9
REMARK    9  A    between atoms: C_20  and  C_21
REMARK   10  A    between atoms: C_24  and  O_25
REMARK   11  A    between atoms: O_25  and  C_26
REMARK                            x       y       z     vdW  Elec       q    Type
REMARK                         _______ _______ _______ _____ _____    ______ ____
ROOT
ATOM      1  C   UNL     1      -0.475  10.230  17.835  0.00  0.00    +0.000 C 
ENDROOT
BRANCH   1   2
ATOM      2  N   UNL     1      -1.756  10.394  18.573  0.00  0.00    +0.000 NA
BRANCH   2   3
ATOM      3  C   UNL     1      -2.842   9.702  17.831  0.00  0.00    +0.000 C 
BRANCH   3   5
ATOM      4  C   UNL     1      -2.967  10.755  15.214  0.00  0.00    +0.000 C 
ATOM      5  C   UNL     1      -2.909  10.269  16.422  0.00  0.00    +0.000 C 
ENDBRANCH   3   5
ENDBRANCH   2   3
BRANCH   2   6
ATOM      6  C   UNL     1      -2.063  11.823  18.751  0.00  0.00    +0.000 C 
BRANCH   6   7
ATOM      7  C   UNL     1      -2.473  12.258  20.144  0.00  0.00    +0.000 A 
ATOM      8  C   UNL     1      -3.749  12.765  20.419  0.00  0.00    +0.000 A 
ATOM      9  C   UNL     1      -4.139  13.023  21.742  0.00  0.00    +0.000 A 
ATOM     10  C   UNL     1      -3.270  12.757  22.802  0.00  0.00    +0.000 A 
ATOM     11  C   UNL     1      -1.983  12.309  22.530  0.00  0.00    +0.000 A 
ATOM     12  C   UNL     1      -1.588  12.058  21.214  0.00  0.00    +0.000 A 
BRANCH  10  13
ATOM     13  O   UNL     1      -3.755  13.004  24.058  0.00  0.00    +0.000 OA
ATOM     14  C   UNL     1      -3.481  14.313  24.558  0.00  0.00    +0.000 C 
ENDBRANCH  10  13
ENDBRANCH   6   7
ENDBRANCH   2   6
ENDBRANCH   1   2
BRANCH   1  15
ATOM     15  C   UNL     1       0.752   9.781  18.637  0.00  0.00    +0.000 C 
BRANCH  15  16
ATOM     16  C   UNL     1       1.748   8.964  17.825  0.00  0.00    +0.000 C 
BRANCH  16  17
ATOM     17  O   UNL     1       2.372   8.037  18.726  0.00  0.00    +0.000 OA
BRANCH  17  18
ATOM     18  C   UNL     1       3.058   7.016  18.126  0.00  0.00    +0.000 A 
ATOM     19  C   UNL     1       2.516   5.737  18.287  0.00  0.00    +0.000 A 
ATOM     20  C   UNL     1       3.126   4.623  17.694  0.00  0.00    +0.000 A 
ATOM     21  C   UNL     1       4.292   4.787  16.947  0.00  0.00    +0.000 A 
ATOM     22  C   UNL     1       4.950   3.679  16.274  0.00  0.00    +0.000 A 
ATOM     23  C   UNL     1       6.042   3.914  15.540  0.00  0.00    +0.000 A 
ATOM     24  C   UNL     1       6.628   5.258  15.396  0.00  0.00    +0.000 A 
ATOM     25  O   UNL     1       7.619   5.438  14.697  0.00  0.00    +0.000 OA
ATOM     26  O   UNL     1       6.013   6.289  16.087  0.00  0.00    +0.000 OA
ATOM     27  C   UNL     1       4.839   6.062  16.830  0.00  0.00    +0.000 A 
ATOM     28  C   UNL     1       4.247   7.175  17.419  0.00  0.00    +0.000 A 
ENDBRANCH  17  18
ENDBRANCH  16  17
ENDBRANCH  15  16
ENDBRANCH   1  15
TORSDOF 10
ENDMDL
MODEL 9
REMARK VINA RESULT:      -7.0      1.282      1.754
REMARK  Name = 
REMARK  11 active torsions:
REMARK  status: ('A' for Active; 'I' for Inactive)
REMARK    1  A    between atoms: C_2  and  C_3
REMARK    2  A    between atoms: C_3  and  N_4
REMARK    3  A    between atoms: N_4  and  C_5
REMARK    4  A    between atoms: N_4  and  C_20
REMARK    5  A    between atoms: C_5  and  C_6
REMARK    6  A    between atoms: C_6  and  C_7
REMARK    7  A    between atoms: C_7  and  O_8
REMARK    8  A    between atoms: O_8  and  C_9
REMARK    9  A    between atoms: C_20  and  C_21
REMARK   10  A    between atoms: C_24  and  O_25
REMARK   11  A    between atoms: O_25  and  C_26
REMARK                            x       y       z     vdW  Elec       q    Type
REMARK                         _______ _______ _______ _____ _____    ______ ____
ROOT
ATOM      1  C   UNL     1       5.178   6.144  15.986  0.00  0.00    +0.000 C 
ENDROOT
BRANCH   1   2
ATOM      2  N   UNL     1       5.633   4.855  16.572  0.00  0.00    +0.000 NA
BRANCH   2   3
ATOM      3  C   UNL     1       6.987   4.529  16.051  0.00  0.00    +0.000 C 
BRANCH   3   5
ATOM      4  C   UNL     1       6.913   4.594  13.229  0.00  0.00    +0.000 C 
ATOM      5  C   UNL     1       6.947   4.564  14.531  0.00  0.00    +0.000 C 
ENDBRANCH   3   5
ENDBRANCH   2   3
BRANCH   2   6
ATOM      6  C   UNL     1       4.672   3.784  16.256  0.00  0.00    +0.000 C 
BRANCH   6   7
ATOM      7  C   UNL     1       3.790   3.311  17.394  0.00  0.00    +0.000 A 
ATOM      8  C   UNL     1       4.318   2.934  18.636  0.00  0.00    +0.000 A 
ATOM      9  C   UNL     1       3.464   2.638  19.709  0.00  0.00    +0.000 A 
ATOM     10  C   UNL     1       2.078   2.736  19.560  0.00  0.00    +0.000 A 
ATOM     11  C   UNL     1       1.549   3.052  18.314  0.00  0.00    +0.000 A 
ATOM     12  C   UNL     1       2.397   3.340  17.241  0.00  0.00    +0.000 A 
BRANCH  10  13
ATOM     13  O   UNL     1       1.330   2.465  20.673  0.00  0.00    +0.000 OA
ATOM     14  C   UNL     1       1.786   3.099  21.868  0.00  0.00    +0.000 C 
ENDBRANCH  10  13
ENDBRANCH   6   7
ENDBRANCH   2   6
ENDBRANCH   1   2
BRANCH   1  15
ATOM     15  C   UNL     1       4.775   7.260  16.957  0.00  0.00    +0.000 C 
BRANCH  15  16
ATOM     16  C   UNL     1       4.253   6.748  18.293  0.00  0.00    +0.000 C 
BRANCH  16  17
ATOM     17  O   UNL     1       2.823   6.681  18.193  0.00  0.00    +0.000 OA
BRANCH  17  18
ATOM     18  C   UNL     1       2.145   7.647  18.886  0.00  0.00    +0.000 A 
ATOM     19  C   UNL     1       1.942   7.395  20.247  0.00  0.00    +0.000 A 
ATOM     20  C   UNL     1       1.280   8.329  21.055  0.00  0.00    +0.000 A 
ATOM     21  C   UNL     1       0.808   9.518  20.497  0.00  0.00    +0.000 A 
ATOM     22  C   UNL     1       0.150  10.544  21.289  0.00  0.00    +0.000 A 
ATOM     23  C   UNL     1      -0.242  11.677  20.697  0.00  0.00    +0.000 A 
ATOM     24  C   UNL     1      -0.053  11.927  19.257  0.00  0.00    +0.000 A 
ATOM     25  O   UNL     1      -0.406  12.987  18.754  0.00  0.00    +0.000 OA
ATOM     26  O   UNL     1       0.531  10.914  18.515  0.00  0.00    +0.000 OA
ATOM     27  C   UNL     1       0.985   9.734  19.133  0.00  0.00    +0.000 A 
ATOM     28  C   UNL     1       1.634   8.811  18.318  0.00  0.00    +0.000 A 
ENDBRANCH  17  18
ENDBRANCH  16  17
ENDBRANCH  15  16
ENDBRANCH   1  15
TORSDOF 10
ENDMDL
