MODEL 1
REMARK VINA RESULT:      -9.3      0.000      0.000
REMARK  Name = 
REMARK  4 active torsions:
REMARK  status: ('A' for Active; 'I' for Inactive)
REMARK    1  A    between atoms: C_1  and  N_2
REMARK    2  A    between atoms: N_2  and  C_3
REMARK    3  A    between atoms: N_19  and  C_20
REMARK    4  A    between atoms: N_19  and  C_21
REMARK                            x       y       z     vdW  Elec       q    Type
REMARK                         _______ _______ _______ _____ _____    ______ ____
ROOT
ATOM      1  C   UNL     1       3.559   2.281  17.147  0.00  0.00    +0.000 C 
ATOM      2  N   UNL     1       3.293   3.479  17.965  0.00  0.00    +0.000 N 
ATOM      3  C   UNL     1       4.165   4.557  17.597  0.00  0.00    +0.000 A 
ATOM      4  N   UNL     1       5.403   4.159  17.154  0.00  0.00    +0.000 NA
ATOM      5  C   UNL     1       6.230   5.195  16.890  0.00  0.00    +0.000 A 
ATOM      6  N   UNL     1       7.490   5.119  16.460  0.00  0.00    +0.000 NA
ATOM      7  O   UNL     1       7.901   6.447  16.353  0.00  0.00    +0.000 OA
ATOM      8  N   UNL     1       6.893   7.334  16.713  0.00  0.00    +0.000 NA
ATOM      9  C   UNL     1       5.860   6.559  17.044  0.00  0.00    +0.000 A 
ATOM     10  N   UNL     1       4.639   6.969  17.455  0.00  0.00    +0.000 NA
ATOM     11  C   UNL     1       3.757   5.967  17.717  0.00  0.00    +0.000 A 
ATOM     12  N   UNL     1       2.453   6.375  18.140  0.00  0.00    +0.000 N 
ATOM     13  C   UNL     1       1.312   5.573  17.659  0.00  0.00    +0.000 C 
ENDROOT
BRANCH   2  14
ATOM     14  C   UNL     1       2.726   3.261  19.254  0.00  0.00    +0.000 A 
ATOM     15  C   UNL     1       1.337   3.393  19.465  0.00  0.00    +0.000 A 
ATOM     16  C   UNL     1       0.726   3.015  20.667  0.00  0.00    +0.000 A 
ATOM     17  C   UNL     1       1.492   2.538  21.722  0.00  0.00    +0.000 A 
ATOM     18  C   UNL     1       2.870   2.449  21.574  0.00  0.00    +0.000 A 
ATOM     19  C   UNL     1       3.469   2.799  20.363  0.00  0.00    +0.000 A 
ATOM     20  F   UNL     1       4.794   2.605  20.285  0.00  0.00    +0.000 F 
ENDBRANCH   2  14
BRANCH  12  21
ATOM     21  C   UNL     1       2.023   7.650  18.651  0.00  0.00    +0.000 A 
ATOM     22  C   UNL     1       1.937   8.807  17.857  0.00  0.00    +0.000 A 
ATOM     23  C   UNL     1       1.444  10.023  18.354  0.00  0.00    +0.000 A 
ATOM     24  C   UNL     1       1.036  10.128  19.678  0.00  0.00    +0.000 A 
ATOM     25  C   UNL     1       1.145   9.021  20.509  0.00  0.00    +0.000 A 
ATOM     26  C   UNL     1       1.641   7.816  20.005  0.00  0.00    +0.000 A 
ATOM     27  F   UNL     1       1.753   6.800  20.875  0.00  0.00    +0.000 F 
ENDBRANCH  12  21
TORSDOF 2
ENDMDL
MODEL 2
REMARK VINA RESULT:      -9.2      0.953      1.271
REMARK  Name = 
REMARK  4 active torsions:
REMARK  status: ('A' for Active; 'I' for Inactive)
REMARK    1  A    between atoms: C_1  and  N_2
REMARK    2  A    between atoms: N_2  and  C_3
REMARK    3  A    between atoms: N_19  and  C_20
REMARK    4  A    between atoms: N_19  and  C_21
REMARK                            x       y       z     vdW  Elec       q    Type
REMARK                         _______ _______ _______ _____ _____    ______ ____
ROOT
ATOM      1  C   UNL     1       3.491   2.171  17.026  0.00  0.00    +0.000 C 
ATOM      2  N   UNL     1       3.238   3.353  17.870  0.00  0.00    +0.000 N 
ATOM      3  C   UNL     1       4.111   4.435  17.515  0.00  0.00    +0.000 A 
ATOM      4  N   UNL     1       5.343   4.040  17.052  0.00  0.00    +0.000 NA
ATOM      5  C   UNL     1       6.172   5.078  16.800  0.00  0.00    +0.000 A 
ATOM      6  N   UNL     1       7.428   5.004  16.357  0.00  0.00    +0.000 NA
ATOM      7  O   UNL     1       7.844   6.333  16.272  0.00  0.00    +0.000 OA
ATOM      8  N   UNL     1       6.844   7.217  16.659  0.00  0.00    +0.000 NA
ATOM      9  C   UNL     1       5.810   6.440  16.984  0.00  0.00    +0.000 A 
ATOM     10  N   UNL     1       4.595   6.848  17.416  0.00  0.00    +0.000 NA
ATOM     11  C   UNL     1       3.711   5.844  17.666  0.00  0.00    +0.000 A 
ATOM     12  N   UNL     1       2.413   6.249  18.110  0.00  0.00    +0.000 N 
ATOM     13  C   UNL     1       1.264   5.462  17.624  0.00  0.00    +0.000 C 
ENDROOT
BRANCH   2  14
ATOM     14  C   UNL     1       2.682   3.113  19.160  0.00  0.00    +0.000 A 
ATOM     15  C   UNL     1       3.402   3.433  20.329  0.00  0.00    +0.000 A 
ATOM     16  C   UNL     1       2.821   3.377  21.602  0.00  0.00    +0.000 A 
ATOM     17  C   UNL     1       1.509   2.949  21.755  0.00  0.00    +0.000 A 
ATOM     18  C   UNL     1       0.785   2.569  20.633  0.00  0.00    +0.000 A 
ATOM     19  C   UNL     1       1.361   2.656  19.363  0.00  0.00    +0.000 A 
ATOM     20  F   UNL     1       0.561   2.344  18.333  0.00  0.00    +0.000 F 
ENDBRANCH   2  14
BRANCH  12  21
ATOM     21  C   UNL     1       1.993   7.516  18.650  0.00  0.00    +0.000 A 
ATOM     22  C   UNL     1       1.856   8.677  17.869  0.00  0.00    +0.000 A 
ATOM     23  C   UNL     1       1.374   9.884  18.398  0.00  0.00    +0.000 A 
ATOM     24  C   UNL     1       1.029   9.975  19.740  0.00  0.00    +0.000 A 
ATOM     25  C   UNL     1       1.191   8.864  20.558  0.00  0.00    +0.000 A 
ATOM     26  C   UNL     1       1.676   7.669  20.022  0.00  0.00    +0.000 A 
ATOM     27  F   UNL     1       1.841   6.648  20.878  0.00  0.00    +0.000 F 
ENDBRANCH  12  21
TORSDOF 2
ENDMDL
MODEL 3
REMARK VINA RESULT:      -8.4      1.289      1.803
REMARK  Name = 
REMARK  4 active torsions:
REMARK  status: ('A' for Active; 'I' for Inactive)
REMARK    1  A    between atoms: C_1  and  N_2
REMARK    2  A    between atoms: N_2  and  C_3
REMARK    3  A    between atoms: N_19  and  C_20
REMARK    4  A    between atoms: N_19  and  C_21
REMARK                            x       y       z     vdW  Elec       q    Type
REMARK                         _______ _______ _______ _____ _____    ______ ____
ROOT
ATOM      1  C   UNL     1       3.620   2.360  16.914  0.00  0.00    +0.000 C 
ATOM      2  N   UNL     1       3.331   3.444  17.871  0.00  0.00    +0.000 N 
ATOM      3  C   UNL     1       4.176   4.579  17.633  0.00  0.00    +0.000 A 
ATOM      4  N   UNL     1       5.421   4.265  17.143  0.00  0.00    +0.000 NA
ATOM      5  C   UNL     1       6.223   5.344  17.003  0.00  0.00    +0.000 A 
ATOM      6  N   UNL     1       7.483   5.349  16.565  0.00  0.00    +0.000 NA
ATOM      7  O   UNL     1       7.864   6.689  16.618  0.00  0.00    +0.000 OA
ATOM      8  N   UNL     1       6.838   7.503  17.083  0.00  0.00    +0.000 NA
ATOM      9  C   UNL     1       5.823   6.671  17.321  0.00  0.00    +0.000 A 
ATOM     10  N   UNL     1       4.596   7.001  17.781  0.00  0.00    +0.000 NA
ATOM     11  C   UNL     1       3.737   5.954  17.922  0.00  0.00    +0.000 A 
ATOM     12  N   UNL     1       2.426   6.278  18.394  0.00  0.00    +0.000 N 
ATOM     13  C   UNL     1       1.302   5.514  17.822  0.00  0.00    +0.000 C 
ENDROOT
BRANCH   2  14
ATOM     14  C   UNL     1       2.774   3.060  19.125  0.00  0.00    +0.000 A 
ATOM     15  C   UNL     1       3.517   3.194  20.317  0.00  0.00    +0.000 A 
ATOM     16  C   UNL     1       2.943   2.996  21.579  0.00  0.00    +0.000 A 
ATOM     17  C   UNL     1       1.615   2.608  21.692  0.00  0.00    +0.000 A 
ATOM     18  C   UNL     1       0.866   2.409  20.539  0.00  0.00    +0.000 A 
ATOM     19  C   UNL     1       1.436   2.636  19.285  0.00  0.00    +0.000 A 
ATOM     20  F   UNL     1       0.616   2.496  18.233  0.00  0.00    +0.000 F 
ENDBRANCH   2  14
BRANCH  12  21
ATOM     21  C   UNL     1       1.970   7.472  19.055  0.00  0.00    +0.000 A 
ATOM     22  C   UNL     1       1.678   7.526  20.429  0.00  0.00    +0.000 A 
ATOM     23  C   UNL     1       1.306   8.718  21.071  0.00  0.00    +0.000 A 
ATOM     24  C   UNL     1       1.195   9.899  20.350  0.00  0.00    +0.000 A 
ATOM     25  C   UNL     1       1.432   9.882  18.981  0.00  0.00    +0.000 A 
ATOM     26  C   UNL     1       1.797   8.690  18.352  0.00  0.00    +0.000 A 
ATOM     27  F   UNL     1       1.975   8.741  17.022  0.00  0.00    +0.000 F 
ENDBRANCH  12  21
TORSDOF 2
ENDMDL
MODEL 4
REMARK VINA RESULT:      -8.3      0.918      1.299
REMARK  Name = 
REMARK  4 active torsions:
REMARK  status: ('A' for Active; 'I' for Inactive)
REMARK    1  A    between atoms: C_1  and  N_2
REMARK    2  A    between atoms: N_2  and  C_3
REMARK    3  A    between atoms: N_19  and  C_20
REMARK    4  A    between atoms: N_19  and  C_21
REMARK                            x       y       z     vdW  Elec       q    Type
REMARK                         _______ _______ _______ _____ _____    ______ ____
ROOT
ATOM      1  C   UNL     1       3.653   2.489  17.160  0.00  0.00    +0.000 C 
ATOM      2  N   UNL     1       3.356   3.628  18.048  0.00  0.00    +0.000 N 
ATOM      3  C   UNL     1       4.197   4.750  17.744  0.00  0.00    +0.000 A 
ATOM      4  N   UNL     1       5.444   4.413  17.276  0.00  0.00    +0.000 NA
ATOM      5  C   UNL     1       6.241   5.486  17.072  0.00  0.00    +0.000 A 
ATOM      6  N   UNL     1       7.502   5.471  16.636  0.00  0.00    +0.000 NA
ATOM      7  O   UNL     1       7.875   6.814  16.608  0.00  0.00    +0.000 OA
ATOM      8  N   UNL     1       6.844   7.650  17.022  0.00  0.00    +0.000 NA
ATOM      9  C   UNL     1       5.834   6.828  17.308  0.00  0.00    +0.000 A 
ATOM     10  N   UNL     1       4.604   7.179  17.745  0.00  0.00    +0.000 NA
ATOM     11  C   UNL     1       3.750   6.138  17.948  0.00  0.00    +0.000 A 
ATOM     12  N   UNL     1       2.437   6.484  18.397  0.00  0.00    +0.000 N 
ATOM     13  C   UNL     1       1.317   5.681  17.871  0.00  0.00    +0.000 C 
ENDROOT
BRANCH   2  14
ATOM     14  C   UNL     1       2.799   3.318  19.323  0.00  0.00    +0.000 A 
ATOM     15  C   UNL     1       1.413   3.438  19.555  0.00  0.00    +0.000 A 
ATOM     16  C   UNL     1       0.812   2.975  20.732  0.00  0.00    +0.000 A 
ATOM     17  C   UNL     1       1.585   2.420  21.742  0.00  0.00    +0.000 A 
ATOM     18  C   UNL     1       2.961   2.337  21.576  0.00  0.00    +0.000 A 
ATOM     19  C   UNL     1       3.551   2.773  20.387  0.00  0.00    +0.000 A 
ATOM     20  F   UNL     1       4.874   2.582  20.284  0.00  0.00    +0.000 F 
ENDBRANCH   2  14
BRANCH  12  21
ATOM     21  C   UNL     1       1.973   7.714  18.984  0.00  0.00    +0.000 A 
ATOM     22  C   UNL     1       1.639   7.838  20.344  0.00  0.00    +0.000 A 
ATOM     23  C   UNL     1       1.261   9.063  20.914  0.00  0.00    +0.000 A 
ATOM     24  C   UNL     1       1.185  10.209  20.133  0.00  0.00    +0.000 A 
ATOM     25  C   UNL     1       1.465  10.122  18.775  0.00  0.00    +0.000 A 
ATOM     26  C   UNL     1       1.836   8.896  18.217  0.00  0.00    +0.000 A 
ATOM     27  F   UNL     1       2.055   8.880  16.893  0.00  0.00    +0.000 F 
ENDBRANCH  12  21
TORSDOF 2
ENDMDL
MODEL 5
REMARK VINA RESULT:      -7.3      2.487      5.675
REMARK  Name = 
REMARK  4 active torsions:
REMARK  status: ('A' for Active; 'I' for Inactive)
REMARK    1  A    between atoms: C_1  and  N_2
REMARK    2  A    between atoms: N_2  and  C_3
REMARK    3  A    between atoms: N_19  and  C_20
REMARK    4  A    between atoms: N_19  and  C_21
REMARK                            x       y       z     vdW  Elec       q    Type
REMARK                         _______ _______ _______ _____ _____    ______ ____
ROOT
ATOM      1  C   UNL     1       4.619   7.326  15.242  0.00  0.00    +0.000 C 
ATOM      2  N   UNL     1       4.567   6.613  16.531  0.00  0.00    +0.000 N 
ATOM      3  C   UNL     1       3.556   7.166  17.385  0.00  0.00    +0.000 A 
ATOM      4  N   UNL     1       3.347   8.514  17.215  0.00  0.00    +0.000 NA
ATOM      5  C   UNL     1       2.447   9.024  18.085  0.00  0.00    +0.000 A 
ATOM      6  N   UNL     1       2.052  10.296  18.169  0.00  0.00    +0.000 NA
ATOM      7  O   UNL     1       1.134  10.305  19.219  0.00  0.00    +0.000 OA
ATOM      8  N   UNL     1       0.964   9.042  19.773  0.00  0.00    +0.000 NA
ATOM      9  C   UNL     1       1.776   8.250  19.071  0.00  0.00    +0.000 A 
ATOM     10  N   UNL     1       1.951   6.920  19.236  0.00  0.00    +0.000 NA
ATOM     11  C   UNL     1       2.833   6.348  18.373  0.00  0.00    +0.000 A 
ATOM     12  N   UNL     1       3.025   4.938  18.517  0.00  0.00    +0.000 N 
ATOM     13  C   UNL     1       3.217   4.159  17.279  0.00  0.00    +0.000 C 
ENDROOT
BRANCH   2  14
ATOM     14  C   UNL     1       5.767   5.971  16.958  0.00  0.00    +0.000 A 
ATOM     15  C   UNL     1       6.356   6.292  18.198  0.00  0.00    +0.000 A 
ATOM     16  C   UNL     1       7.427   5.560  18.726  0.00  0.00    +0.000 A 
ATOM     17  C   UNL     1       7.980   4.509  18.006  0.00  0.00    +0.000 A 
ATOM     18  C   UNL     1       7.464   4.200  16.755  0.00  0.00    +0.000 A 
ATOM     19  C   UNL     1       6.377   4.915  16.247  0.00  0.00    +0.000 A 
ATOM     20  F   UNL     1       5.897   4.495  15.067  0.00  0.00    +0.000 F 
ENDBRANCH   2  14
BRANCH  12  21
ATOM     21  C   UNL     1       2.696   4.086  19.629  0.00  0.00    +0.000 A 
ATOM     22  C   UNL     1       1.407   4.015  20.187  0.00  0.00    +0.000 A 
ATOM     23  C   UNL     1       1.087   3.123  21.223  0.00  0.00    +0.000 A 
ATOM     24  C   UNL     1       2.057   2.283  21.752  0.00  0.00    +0.000 A 
ATOM     25  C   UNL     1       3.354   2.352  21.261  0.00  0.00    +0.000 A 
ATOM     26  C   UNL     1       3.663   3.246  20.233  0.00  0.00    +0.000 A 
ATOM     27  F   UNL     1       4.944   3.284  19.833  0.00  0.00    +0.000 F 
ENDBRANCH  12  21
TORSDOF 2
ENDMDL
MODEL 6
REMARK VINA RESULT:      -7.1      8.000     10.524
REMARK  Name = 
REMARK  4 active torsions:
REMARK  status: ('A' for Active; 'I' for Inactive)
REMARK    1  A    between atoms: C_1  and  N_2
REMARK    2  A    between atoms: N_2  and  C_3
REMARK    3  A    between atoms: N_19  and  C_20
REMARK    4  A    between atoms: N_19  and  C_21
REMARK                            x       y       z     vdW  Elec       q    Type
REMARK                         _______ _______ _______ _____ _____    ______ ____
ROOT
ATOM      1  C   UNL     1      -1.162  13.704  23.058  0.00  0.00    +0.000 C 
ATOM      2  N   UNL     1      -1.510  12.704  22.032  0.00  0.00    +0.000 N 
ATOM      3  C   UNL     1      -2.899  12.790  21.680  0.00  0.00    +0.000 A 
ATOM      4  N   UNL     1      -3.719  13.191  22.707  0.00  0.00    +0.000 NA
ATOM      5  C   UNL     1      -5.029  13.188  22.371  0.00  0.00    +0.000 A 
ATOM      6  N   UNL     1      -6.054  13.515  23.159  0.00  0.00    +0.000 NA
ATOM      7  O   UNL     1      -7.179  13.338  22.355  0.00  0.00    +0.000 OA
ATOM      8  N   UNL     1      -6.844  12.908  21.077  0.00  0.00    +0.000 NA
ATOM      9  C   UNL     1      -5.513  12.816  21.087  0.00  0.00    +0.000 A 
ATOM     10  N   UNL     1      -4.719  12.442  20.059  0.00  0.00    +0.000 NA
ATOM     11  C   UNL     1      -3.386  12.446  20.334  0.00  0.00    +0.000 A 
ATOM     12  N   UNL     1      -2.523  12.068  19.258  0.00  0.00    +0.000 N 
ATOM     13  C   UNL     1      -1.239  12.785  19.146  0.00  0.00    +0.000 C 
ENDROOT
BRANCH   2  14
ATOM     14  C   UNL     1      -0.703  11.531  21.980  0.00  0.00    +0.000 A 
ATOM     15  C   UNL     1       0.426  11.467  21.136  0.00  0.00    +0.000 A 
ATOM     16  C   UNL     1       1.338  10.406  21.191  0.00  0.00    +0.000 A 
ATOM     17  C   UNL     1       1.126   9.344  22.059  0.00  0.00    +0.000 A 
ATOM     18  C   UNL     1      -0.005   9.342  22.865  0.00  0.00    +0.000 A 
ATOM     19  C   UNL     1      -0.895  10.417  22.827  0.00  0.00    +0.000 A 
ATOM     20  F   UNL     1      -1.915  10.366  23.695  0.00  0.00    +0.000 F 
ENDBRANCH   2  14
BRANCH  12  21
ATOM     21  C   UNL     1      -2.844  11.369  18.042  0.00  0.00    +0.000 A 
ATOM     22  C   UNL     1      -3.950  11.693  17.237  0.00  0.00    +0.000 A 
ATOM     23  C   UNL     1      -4.204  11.049  16.016  0.00  0.00    +0.000 A 
ATOM     24  C   UNL     1      -3.364  10.039  15.566  0.00  0.00    +0.000 A 
ATOM     25  C   UNL     1      -2.283   9.657  16.351  0.00  0.00    +0.000 A 
ATOM     26  C   UNL     1      -2.043  10.301  17.567  0.00  0.00    +0.000 A 
ATOM     27  F   UNL     1      -1.003   9.855  18.289  0.00  0.00    +0.000 F 
ENDBRANCH  12  21
TORSDOF 2
ENDMDL
MODEL 7
REMARK VINA RESULT:      -7.1      8.189     10.746
REMARK  Name = 
REMARK  4 active torsions:
REMARK  status: ('A' for Active; 'I' for Inactive)
REMARK    1  A    between atoms: C_1  and  N_2
REMARK    2  A    between atoms: N_2  and  C_3
REMARK    3  A    between atoms: N_19  and  C_20
REMARK    4  A    between atoms: N_19  and  C_21
REMARK                            x       y       z     vdW  Elec       q    Type
REMARK                         _______ _______ _______ _____ _____    ______ ____
ROOT
ATOM      1  C   UNL     1      -1.401  13.885  23.480  0.00  0.00    +0.000 C 
ATOM      2  N   UNL     1      -1.698  12.873  22.450  0.00  0.00    +0.000 N 
ATOM      3  C   UNL     1      -3.095  12.869  22.120  0.00  0.00    +0.000 A 
ATOM      4  N   UNL     1      -3.923  13.205  23.163  0.00  0.00    +0.000 NA
ATOM      5  C   UNL     1      -5.235  13.117  22.848  0.00  0.00    +0.000 A 
ATOM      6  N   UNL     1      -6.267  13.367  23.655  0.00  0.00    +0.000 NA
ATOM      7  O   UNL     1      -7.391  13.122  22.866  0.00  0.00    +0.000 OA
ATOM      8  N   UNL     1      -7.047  12.728  21.578  0.00  0.00    +0.000 NA
ATOM      9  C   UNL     1      -5.714  12.725  21.568  0.00  0.00    +0.000 A 
ATOM     10  N   UNL     1      -4.913  12.414  20.524  0.00  0.00    +0.000 NA
ATOM     11  C   UNL     1      -3.579  12.506  20.778  0.00  0.00    +0.000 A 
ATOM     12  N   UNL     1      -2.710  12.196  19.685  0.00  0.00    +0.000 N 
ATOM     13  C   UNL     1      -1.479  12.999  19.562  0.00  0.00    +0.000 C 
ENDROOT
BRANCH   2  14
ATOM     14  C   UNL     1      -0.814  11.758  22.373  0.00  0.00    +0.000 A 
ATOM     15  C   UNL     1      -1.164  10.517  22.946  0.00  0.00    +0.000 A 
ATOM     16  C   UNL     1      -0.406   9.359  22.738  0.00  0.00    +0.000 A 
ATOM     17  C   UNL     1       0.761   9.411  21.987  0.00  0.00    +0.000 A 
ATOM     18  C   UNL     1       1.170  10.627  21.454  0.00  0.00    +0.000 A 
ATOM     19  C   UNL     1       0.393  11.772  21.641  0.00  0.00    +0.000 A 
ATOM     20  F   UNL     1       0.825  12.882  21.025  0.00  0.00    +0.000 F 
ENDBRANCH   2  14
BRANCH  12  21
ATOM     21  C   UNL     1      -3.002  11.488  18.467  0.00  0.00    +0.000 A 
ATOM     22  C   UNL     1      -4.075  11.822  17.622  0.00  0.00    +0.000 A 
ATOM     23  C   UNL     1      -4.299  11.169  16.400  0.00  0.00    +0.000 A 
ATOM     24  C   UNL     1      -3.463  10.139  15.990  0.00  0.00    +0.000 A 
ATOM     25  C   UNL     1      -2.417   9.747  16.815  0.00  0.00    +0.000 A 
ATOM     26  C   UNL     1      -2.205  10.402  18.031  0.00  0.00    +0.000 A 
ATOM     27  F   UNL     1      -1.199   9.946  18.793  0.00  0.00    +0.000 F 
ENDBRANCH  12  21
TORSDOF 2
ENDMDL
MODEL 8
REMARK VINA RESULT:      -6.8      9.265     11.095
REMARK  Name = 
REMARK  4 active torsions:
REMARK  status: ('A' for Active; 'I' for Inactive)
REMARK    1  A    between atoms: C_1  and  N_2
REMARK    2  A    between atoms: N_2  and  C_3
REMARK    3  A    between atoms: N_19  and  C_20
REMARK    4  A    between atoms: N_19  and  C_21
REMARK                            x       y       z     vdW  Elec       q    Type
REMARK                         _______ _______ _______ _____ _____    ______ ____
ROOT
ATOM      1  C   UNL     1       6.198  16.509  23.260  0.00  0.00    +0.000 C 
ATOM      2  N   UNL     1       6.733  15.354  22.517  0.00  0.00    +0.000 N 
ATOM      3  C   UNL     1       6.273  15.359  21.157  0.00  0.00    +0.000 A 
ATOM      4  N   UNL     1       5.024  15.904  20.984  0.00  0.00    +0.000 NA
ATOM      5  C   UNL     1       4.583  15.825  19.709  0.00  0.00    +0.000 A 
ATOM      6  N   UNL     1       3.409  16.255  19.243  0.00  0.00    +0.000 NA
ATOM      7  O   UNL     1       3.436  15.934  17.886  0.00  0.00    +0.000 OA
ATOM      8  N   UNL     1       4.625  15.313  17.521  0.00  0.00    +0.000 NA
ATOM      9  C   UNL     1       5.334  15.247  18.649  0.00  0.00    +0.000 A 
ATOM     10  N   UNL     1       6.574  14.728  18.796  0.00  0.00    +0.000 NA
ATOM     11  C   UNL     1       7.077  14.799  20.058  0.00  0.00    +0.000 A 
ATOM     12  N   UNL     1       8.394  14.270  20.238  0.00  0.00    +0.000 N 
ATOM     13  C   UNL     1       9.278  14.982  21.179  0.00  0.00    +0.000 C 
ENDROOT
BRANCH   2  14
ATOM     14  C   UNL     1       7.074  14.201  23.282  0.00  0.00    +0.000 A 
ATOM     15  C   UNL     1       6.459  12.957  23.030  0.00  0.00    +0.000 A 
ATOM     16  C   UNL     1       6.895  11.773  23.637  0.00  0.00    +0.000 A 
ATOM     17  C   UNL     1       7.933  11.799  24.559  0.00  0.00    +0.000 A 
ATOM     18  C   UNL     1       8.526  13.014  24.878  0.00  0.00    +0.000 A 
ATOM     19  C   UNL     1       8.106  14.187  24.247  0.00  0.00    +0.000 A 
ATOM     20  F   UNL     1       8.788  15.298  24.559  0.00  0.00    +0.000 F 
ENDBRANCH   2  14
BRANCH  12  21
ATOM     21  C   UNL     1       9.139  13.382  19.385  0.00  0.00    +0.000 A 
ATOM     22  C   UNL     1       9.692  13.781  18.156  0.00  0.00    +0.000 A 
ATOM     23  C   UNL     1      10.479  12.921  17.373  0.00  0.00    +0.000 A 
ATOM     24  C   UNL     1      10.724  11.619  17.788  0.00  0.00    +0.000 A 
ATOM     25  C   UNL     1      10.160  11.170  18.976  0.00  0.00    +0.000 A 
ATOM     26  C   UNL     1       9.375  12.032  19.745  0.00  0.00    +0.000 A 
ATOM     27  F   UNL     1       8.833  11.519  20.860  0.00  0.00    +0.000 F 
ENDBRANCH  12  21
TORSDOF 2
ENDMDL
MODEL 9
REMARK VINA RESULT:      -6.8      7.806     10.816
REMARK  Name = 
REMARK  4 active torsions:
REMARK  status: ('A' for Active; 'I' for Inactive)
REMARK    1  A    between atoms: C_1  and  N_2
REMARK    2  A    between atoms: N_2  and  C_3
REMARK    3  A    between atoms: N_19  and  C_20
REMARK    4  A    between atoms: N_19  and  C_21
REMARK                            x       y       z     vdW  Elec       q    Type
REMARK                         _______ _______ _______ _____ _____    ______ ____
ROOT
ATOM      1  C   UNL     1      -0.807  10.350  23.100  0.00  0.00    +0.000 C 
ATOM      2  N   UNL     1      -0.908  11.392  22.061  0.00  0.00    +0.000 N 
ATOM      3  C   UNL     1      -1.915  12.358  22.397  0.00  0.00    +0.000 A 
ATOM      4  N   UNL     1      -2.970  11.849  23.115  0.00  0.00    +0.000 NA
ATOM      5  C   UNL     1      -3.940  12.761  23.350  0.00  0.00    +0.000 A 
ATOM      6  N   UNL     1      -5.083  12.558  24.006  0.00  0.00    +0.000 NA
ATOM      7  O   UNL     1      -5.731  13.792  23.965  0.00  0.00    +0.000 OA
ATOM      8  N   UNL     1      -4.985  14.749  23.288  0.00  0.00    +0.000 NA
ATOM      9  C   UNL     1      -3.876  14.111  22.908  0.00  0.00    +0.000 A 
ATOM     10  N   UNL     1      -2.836  14.634  22.222  0.00  0.00    +0.000 NA
ATOM     11  C   UNL     1      -1.819  13.765  21.974  0.00  0.00    +0.000 A 
ATOM     12  N   UNL     1      -0.699  14.297  21.262  0.00  0.00    +0.000 N 
ATOM     13  C   UNL     1       0.637  13.811  21.655  0.00  0.00    +0.000 C 
ENDROOT
BRANCH   2  14
ATOM     14  C   UNL     1      -0.503  11.025  20.744  0.00  0.00    +0.000 A 
ATOM     15  C   UNL     1       0.738  10.394  20.519  0.00  0.00    +0.000 A 
ATOM     16  C   UNL     1       1.089   9.863  19.272  0.00  0.00    +0.000 A 
ATOM     17  C   UNL     1       0.228   9.989  18.190  0.00  0.00    +0.000 A 
ATOM     18  C   UNL     1      -0.979  10.655  18.357  0.00  0.00    +0.000 A 
ATOM     19  C   UNL     1      -1.335  11.157  19.611  0.00  0.00    +0.000 A 
ATOM     20  F   UNL     1      -2.552  11.714  19.696  0.00  0.00    +0.000 F 
ENDBRANCH   2  14
BRANCH  12  21
ATOM     21  C   UNL     1      -0.612  15.501  20.478  0.00  0.00    +0.000 A 
ATOM     22  C   UNL     1      -0.631  16.789  21.043  0.00  0.00    +0.000 A 
ATOM     23  C   UNL     1      -0.469  17.949  20.270  0.00  0.00    +0.000 A 
ATOM     24  C   UNL     1      -0.301  17.860  18.895  0.00  0.00    +0.000 A 
ATOM     25  C   UNL     1      -0.320  16.610  18.290  0.00  0.00    +0.000 A 
ATOM     26  C   UNL     1      -0.486  15.462  19.068  0.00  0.00    +0.000 A 
ATOM     27  F   UNL     1      -0.531  14.292  18.412  0.00  0.00    +0.000 F 
ENDBRANCH  12  21
TORSDOF 2
ENDMDL
