MODEL 1
REMARK VINA RESULT:      -8.7      0.000      0.000
REMARK  Name = 
REMARK  6 active torsions:
REMARK  status: ('A' for Active; 'I' for Inactive)
REMARK    1  A    between atoms: C_5  and  C_6
REMARK    2  A    between atoms: C_6  and  N_7
REMARK    3  A    between atoms: N_11  and  C_12
REMARK    4  A    between atoms: C_12  and  C_13
REMARK    5  A    between atoms: N_22  and  C_23
REMARK    6  A    between atoms: C_23  and  C_24
REMARK                            x       y       z     vdW  Elec       q    Type
REMARK                         _______ _______ _______ _____ _____    ______ ____
ROOT
ATOM      1  N   UNL     1       1.899   7.727  20.813  0.00  0.00    +0.000 N 
ATOM      2  C   UNL     1       1.134   8.883  20.748  0.00  0.00    +0.000 A 
ATOM      3  N   UNL     1       0.440   9.185  21.840  0.00  0.00    +0.000 NA
ATOM      4  C   UNL     1      -0.355  10.238  21.747  0.00  0.00    +0.000 A 
ATOM      5  N   UNL     1      -1.179  10.520  22.833  0.00  0.00    +0.000 N 
ATOM      6  N   UNL     1      -0.400  11.028  20.688  0.00  0.00    +0.000 NA
ATOM      7  C   UNL     1       0.359  10.686  19.663  0.00  0.00    +0.000 A 
ATOM      8  N   UNL     1       0.338  11.465  18.519  0.00  0.00    +0.000 N 
ATOM      9  N   UNL     1       1.135   9.616  19.640  0.00  0.00    +0.000 NA
ATOM     10  H   UNL     1       2.667   7.895  21.454  0.00  0.00    +0.000 HD
ATOM     11  H   UNL     1      -0.841   9.993  23.629  0.00  0.00    +0.000 HD
ATOM     12  H   UNL     1       1.116  11.210  17.926  0.00  0.00    +0.000 HD
ENDROOT
BRANCH   1  13
ATOM     13  C   UNL     1       2.312   7.155  19.546  0.00  0.00    +0.000 C 
BRANCH  13  18
ATOM     14  F   UNL     1       1.367   1.586  19.527  0.00  0.00    +0.000 F 
ATOM     15  C   UNL     1       1.576   2.906  19.531  0.00  0.00    +0.000 A 
ATOM     16  C   UNL     1       1.852   3.558  18.337  0.00  0.00    +0.000 A 
ATOM     17  C   UNL     1       2.075   4.937  18.349  0.00  0.00    +0.000 A 
ATOM     18  C   UNL     1       2.017   5.669  19.551  0.00  0.00    +0.000 A 
ATOM     19  C   UNL     1       1.739   4.983  20.745  0.00  0.00    +0.000 A 
ATOM     20  C   UNL     1       1.519   3.604  20.731  0.00  0.00    +0.000 A 
ENDBRANCH  13  18
ENDBRANCH   1  13
BRANCH   5  21
ATOM     21  C   UNL     1      -1.367  11.942  23.046  0.00  0.00    +0.000 C 
BRANCH  21  22
ATOM     22  C   UNL     1      -2.834  12.306  22.990  0.00  0.00    +0.000 A 
ATOM     23  C   UNL     1      -3.604  12.330  24.165  0.00  0.00    +0.000 A 
ATOM     24  C   UNL     1      -4.943  12.723  24.125  0.00  0.00    +0.000 A 
ATOM     25  C   UNL     1      -5.513  13.094  22.914  0.00  0.00    +0.000 A 
ATOM     26  F   UNL     1      -6.797  13.478  22.882  0.00  0.00    +0.000 F 
ATOM     27  C   UNL     1      -4.772  13.079  21.739  0.00  0.00    +0.000 A 
ATOM     28  C   UNL     1      -3.433  12.687  21.777  0.00  0.00    +0.000 A 
ENDBRANCH  21  22
ENDBRANCH   5  21
BRANCH   8  29
ATOM     29  C   UNL     1       0.150  12.886  18.733  0.00  0.00    +0.000 C 
BRANCH  29  30
ATOM     30  C   UNL     1       1.480  13.514  19.073  0.00  0.00    +0.000 A 
ATOM     31  C   UNL     1       2.490  13.570  18.094  0.00  0.00    +0.000 A 
ATOM     32  C   UNL     1       3.719  14.160  18.379  0.00  0.00    +0.000 A 
ATOM     33  C   UNL     1       3.938  14.698  19.639  0.00  0.00    +0.000 A 
ATOM     34  F   UNL     1       5.121  15.265  19.917  0.00  0.00    +0.000 F 
ATOM     35  C   UNL     1       2.951  14.663  20.617  0.00  0.00    +0.000 A 
ATOM     36  C   UNL     1       1.718  14.074  20.336  0.00  0.00    +0.000 A 
ENDBRANCH  29  30
ENDBRANCH   8  29
TORSDOF 6
ENDMDL
MODEL 2
REMARK VINA RESULT:      -8.7      0.166      1.202
REMARK  Name = 
REMARK  6 active torsions:
REMARK  status: ('A' for Active; 'I' for Inactive)
REMARK    1  A    between atoms: C_5  and  C_6
REMARK    2  A    between atoms: C_6  and  N_7
REMARK    3  A    between atoms: N_11  and  C_12
REMARK    4  A    between atoms: C_12  and  C_13
REMARK    5  A    between atoms: N_22  and  C_23
REMARK    6  A    between atoms: C_23  and  C_24
REMARK                            x       y       z     vdW  Elec       q    Type
REMARK                         _______ _______ _______ _____ _____    ______ ____
ROOT
ATOM      1  N   UNL     1       1.887   7.770  20.755  0.00  0.00    +0.000 N 
ATOM      2  C   UNL     1       1.141   8.939  20.704  0.00  0.00    +0.000 A 
ATOM      3  N   UNL     1       0.441   9.232  21.795  0.00  0.00    +0.000 NA
ATOM      4  C   UNL     1      -0.336  10.300  21.713  0.00  0.00    +0.000 A 
ATOM      5  N   UNL     1      -1.167  10.574  22.796  0.00  0.00    +0.000 N 
ATOM      6  N   UNL     1      -0.358  11.109  20.669  0.00  0.00    +0.000 NA
ATOM      7  C   UNL     1       0.407  10.775  19.645  0.00  0.00    +0.000 A 
ATOM      8  N   UNL     1       0.409  11.575  18.517  0.00  0.00    +0.000 N 
ATOM      9  N   UNL     1       1.165   9.692  19.611  0.00  0.00    +0.000 NA
ATOM     10  H   UNL     1       2.651   7.914  21.406  0.00  0.00    +0.000 HD
ATOM     11  H   UNL     1      -0.845  10.027  23.585  0.00  0.00    +0.000 HD
ATOM     12  H   UNL     1       1.189  11.319  17.926  0.00  0.00    +0.000 HD
ENDROOT
BRANCH   1  13
ATOM     13  C   UNL     1       2.304   7.216  19.482  0.00  0.00    +0.000 C 
BRANCH  13  18
ATOM     14  F   UNL     1       1.100   1.700  19.284  0.00  0.00    +0.000 F 
ATOM     15  C   UNL     1       1.371   3.009  19.329  0.00  0.00    +0.000 A 
ATOM     16  C   UNL     1       1.763   3.666  18.171  0.00  0.00    +0.000 A 
ATOM     17  C   UNL     1       2.050   5.032  18.227  0.00  0.00    +0.000 A 
ATOM     18  C   UNL     1       1.939   5.746  19.435  0.00  0.00    +0.000 A 
ATOM     19  C   UNL     1       1.543   5.055  20.593  0.00  0.00    +0.000 A 
ATOM     20  C   UNL     1       1.259   3.688  20.535  0.00  0.00    +0.000 A 
ENDBRANCH  13  18
ENDBRANCH   1  13
BRANCH   5  21
ATOM     21  C   UNL     1      -1.334  11.995  23.034  0.00  0.00    +0.000 C 
BRANCH  21  22
ATOM     22  C   UNL     1      -2.795  12.382  22.980  0.00  0.00    +0.000 A 
ATOM     23  C   UNL     1      -3.413  12.652  21.747  0.00  0.00    +0.000 A 
ATOM     24  C   UNL     1      -4.775  12.950  21.689  0.00  0.00    +0.000 A 
ATOM     25  C   UNL     1      -5.522  12.979  22.860  0.00  0.00    +0.000 A 
ATOM     26  F   UNL     1      -6.832  13.260  22.798  0.00  0.00    +0.000 F 
ATOM     27  C   UNL     1      -4.934  12.716  24.090  0.00  0.00    +0.000 A 
ATOM     28  C   UNL     1      -3.572  12.416  24.151  0.00  0.00    +0.000 A 
ENDBRANCH  21  22
ENDBRANCH   5  21
BRANCH   8  29
ATOM     29  C   UNL     1       0.241  12.994  18.755  0.00  0.00    +0.000 C 
BRANCH  29  30
ATOM     30  C   UNL     1       1.589  13.608  19.048  0.00  0.00    +0.000 A 
ATOM     31  C   UNL     1       1.885  14.038  20.355  0.00  0.00    +0.000 A 
ATOM     32  C   UNL     1       3.128  14.592  20.653  0.00  0.00    +0.000 A 
ATOM     33  C   UNL     1       4.077  14.713  19.648  0.00  0.00    +0.000 A 
ATOM     34  F   UNL     1       5.273  15.247  19.930  0.00  0.00    +0.000 F 
ATOM     35  C   UNL     1       3.809  14.285  18.352  0.00  0.00    +0.000 A 
ATOM     36  C   UNL     1       2.565  13.728  18.049  0.00  0.00    +0.000 A 
ENDBRANCH  29  30
ENDBRANCH   8  29
TORSDOF 6
ENDMDL
MODEL 3
REMARK VINA RESULT:      -8.7      0.584      1.501
REMARK  Name = 
REMARK  6 active torsions:
REMARK  status: ('A' for Active; 'I' for Inactive)
REMARK    1  A    between atoms: C_5  and  C_6
REMARK    2  A    between atoms: C_6  and  N_7
REMARK    3  A    between atoms: N_11  and  C_12
REMARK    4  A    between atoms: C_12  and  C_13
REMARK    5  A    between atoms: N_22  and  C_23
REMARK    6  A    between atoms: C_23  and  C_24
REMARK                            x       y       z     vdW  Elec       q    Type
REMARK                         _______ _______ _______ _____ _____    ______ ____
ROOT
ATOM      1  N   UNL     1       1.878   7.968  20.703  0.00  0.00    +0.000 N 
ATOM      2  C   UNL     1       1.078   9.101  20.658  0.00  0.00    +0.000 A 
ATOM      3  N   UNL     1       0.416   9.392  21.774  0.00  0.00    +0.000 NA
ATOM      4  C   UNL     1      -0.412  10.421  21.702  0.00  0.00    +0.000 A 
ATOM      5  N   UNL     1      -1.204  10.688  22.816  0.00  0.00    +0.000 N 
ATOM      6  N   UNL     1      -0.519  11.201  20.640  0.00  0.00    +0.000 NA
ATOM      7  C   UNL     1       0.212  10.873  19.590  0.00  0.00    +0.000 A 
ATOM      8  N   UNL     1       0.125  11.642  18.443  0.00  0.00    +0.000 N 
ATOM      9  N   UNL     1       1.017   9.825  19.547  0.00  0.00    +0.000 NA
ATOM     10  H   UNL     1       2.664   8.163  21.313  0.00  0.00    +0.000 HD
ATOM     11  H   UNL     1      -0.821  10.177  23.603  0.00  0.00    +0.000 HD
ATOM     12  H   UNL     1       0.888  11.405  17.823  0.00  0.00    +0.000 HD
ENDROOT
BRANCH   1  13
ATOM     13  C   UNL     1       2.260   7.399  19.425  0.00  0.00    +0.000 C 
BRANCH  13  18
ATOM     14  F   UNL     1       1.399   1.820  19.630  0.00  0.00    +0.000 F 
ATOM     15  C   UNL     1       1.617   3.138  19.583  0.00  0.00    +0.000 A 
ATOM     16  C   UNL     1       1.476   3.895  20.738  0.00  0.00    +0.000 A 
ATOM     17  C   UNL     1       1.700   5.273  20.681  0.00  0.00    +0.000 A 
ATOM     18  C   UNL     1       2.071   5.896  19.474  0.00  0.00    +0.000 A 
ATOM     19  C   UNL     1       2.204   5.106  18.320  0.00  0.00    +0.000 A 
ATOM     20  C   UNL     1       1.977   3.728  18.379  0.00  0.00    +0.000 A 
ENDBRANCH  13  18
ENDBRANCH   1  13
BRANCH   5  21
ATOM     21  C   UNL     1      -1.424  12.106  23.026  0.00  0.00    +0.000 C 
BRANCH  21  22
ATOM     22  C   UNL     1      -2.902  12.427  23.022  0.00  0.00    +0.000 A 
ATOM     23  C   UNL     1      -3.571  12.673  21.810  0.00  0.00    +0.000 A 
ATOM     24  C   UNL     1      -4.946  12.911  21.798  0.00  0.00    +0.000 A 
ATOM     25  C   UNL     1      -5.655  12.903  22.992  0.00  0.00    +0.000 A 
ATOM     26  F   UNL     1      -6.977  13.125  22.974  0.00  0.00    +0.000 F 
ATOM     27  C   UNL     1      -5.016  12.663  24.202  0.00  0.00    +0.000 A 
ATOM     28  C   UNL     1      -3.641  12.423  24.217  0.00  0.00    +0.000 A 
ENDBRANCH  21  22
ENDBRANCH   5  21
BRANCH   8  29
ATOM     29  C   UNL     1      -0.096  13.058  18.654  0.00  0.00    +0.000 C 
BRANCH  29  30
ATOM     30  C   UNL     1       1.234  13.774  18.634  0.00  0.00    +0.000 A 
ATOM     31  C   UNL     1       1.330  15.072  19.169  0.00  0.00    +0.000 A 
ATOM     32  C   UNL     1       2.549  15.745  19.176  0.00  0.00    +0.000 A 
ATOM     33  C   UNL     1       3.673  15.121  18.655  0.00  0.00    +0.000 A 
ATOM     34  F   UNL     1       4.848  15.767  18.659  0.00  0.00    +0.000 F 
ATOM     35  C   UNL     1       3.603  13.835  18.132  0.00  0.00    +0.000 A 
ATOM     36  C   UNL     1       2.384  13.156  18.123  0.00  0.00    +0.000 A 
ENDBRANCH  29  30
ENDBRANCH   8  29
TORSDOF 6
ENDMDL
MODEL 4
REMARK VINA RESULT:      -8.3      7.766     11.437
REMARK  Name = 
REMARK  6 active torsions:
REMARK  status: ('A' for Active; 'I' for Inactive)
REMARK    1  A    between atoms: C_5  and  C_6
REMARK    2  A    between atoms: C_6  and  N_7
REMARK    3  A    between atoms: N_11  and  C_12
REMARK    4  A    between atoms: C_12  and  C_13
REMARK    5  A    between atoms: N_22  and  C_23
REMARK    6  A    between atoms: C_23  and  C_24
REMARK                            x       y       z     vdW  Elec       q    Type
REMARK                         _______ _______ _______ _____ _____    ______ ____
ROOT
ATOM      1  N   UNL     1       7.667   7.976  18.456  0.00  0.00    +0.000 N 
ATOM      2  C   UNL     1       7.078   6.888  17.826  0.00  0.00    +0.000 A 
ATOM      3  N   UNL     1       6.589   5.946  18.625  0.00  0.00    +0.000 NA
ATOM      4  C   UNL     1       6.106   4.871  18.024  0.00  0.00    +0.000 A 
ATOM      5  N   UNL     1       5.686   3.817  18.831  0.00  0.00    +0.000 N 
ATOM      6  N   UNL     1       6.001   4.754  16.712  0.00  0.00    +0.000 NA
ATOM      7  C   UNL     1       6.464   5.757  15.989  0.00  0.00    +0.000 A 
ATOM      8  N   UNL     1       6.398   5.680  14.609  0.00  0.00    +0.000 N 
ATOM      9  N   UNL     1       7.023   6.841  16.500  0.00  0.00    +0.000 NA
ATOM     10  H   UNL     1       6.934   8.510  18.908  0.00  0.00    +0.000 HD
ATOM     11  H   UNL     1       5.595   4.164  19.778  0.00  0.00    +0.000 HD
ATOM     12  H   UNL     1       6.580   6.593  14.214  0.00  0.00    +0.000 HD
ENDROOT
BRANCH   1  13
ATOM     13  C   UNL     1       8.560   8.782  17.647  0.00  0.00    +0.000 C 
BRANCH  13  18
ATOM     14  F   UNL     1       9.628  13.586  20.420  0.00  0.00    +0.000 F 
ATOM     15  C   UNL     1       9.390  12.448  19.761  0.00  0.00    +0.000 A 
ATOM     16  C   UNL     1       9.005  12.498  18.428  0.00  0.00    +0.000 A 
ATOM     17  C   UNL     1       8.752  11.305  17.747  0.00  0.00    +0.000 A 
ATOM     18  C   UNL     1       8.889  10.060  18.392  0.00  0.00    +0.000 A 
ATOM     19  C   UNL     1       9.276  10.040  19.742  0.00  0.00    +0.000 A 
ATOM     20  C   UNL     1       9.526  11.234  20.422  0.00  0.00    +0.000 A 
ENDBRANCH  13  18
ENDBRANCH   1  13
BRANCH   5  21
ATOM     21  C   UNL     1       4.532   3.121  18.296  0.00  0.00    +0.000 C 
BRANCH  21  22
ATOM     22  C   UNL     1       3.479   2.925  19.363  0.00  0.00    +0.000 A 
ATOM     23  C   UNL     1       3.845   2.501  20.652  0.00  0.00    +0.000 A 
ATOM     24  C   UNL     1       2.883   2.378  21.656  0.00  0.00    +0.000 A 
ATOM     25  C   UNL     1       1.556   2.677  21.375  0.00  0.00    +0.000 A 
ATOM     26  F   UNL     1       0.637   2.563  22.345  0.00  0.00    +0.000 F 
ATOM     27  C   UNL     1       1.169   3.097  20.109  0.00  0.00    +0.000 A 
ATOM     28  C   UNL     1       2.130   3.223  19.103  0.00  0.00    +0.000 A 
ENDBRANCH  21  22
ENDBRANCH   5  21
BRANCH   8  29
ATOM     29  C   UNL     1       5.245   4.984  14.075  0.00  0.00    +0.000 C 
BRANCH  29  30
ATOM     30  C   UNL     1       5.708   3.968  13.059  0.00  0.00    +0.000 A 
ATOM     31  C   UNL     1       4.759   3.169  12.396  0.00  0.00    +0.000 A 
ATOM     32  C   UNL     1       5.161   2.236  11.443  0.00  0.00    +0.000 A 
ATOM     33  C   UNL     1       6.510   2.105  11.148  0.00  0.00    +0.000 A 
ATOM     34  F   UNL     1       6.901   1.207  10.233  0.00  0.00    +0.000 F 
ATOM     35  C   UNL     1       7.465   2.891  11.784  0.00  0.00    +0.000 A 
ATOM     36  C   UNL     1       7.066   3.827  12.739  0.00  0.00    +0.000 A 
ENDBRANCH  29  30
ENDBRANCH   8  29
TORSDOF 6
ENDMDL
MODEL 5
REMARK VINA RESULT:      -8.3      0.989      1.483
REMARK  Name = 
REMARK  6 active torsions:
REMARK  status: ('A' for Active; 'I' for Inactive)
REMARK    1  A    between atoms: C_5  and  C_6
REMARK    2  A    between atoms: C_6  and  N_7
REMARK    3  A    between atoms: N_11  and  C_12
REMARK    4  A    between atoms: C_12  and  C_13
REMARK    5  A    between atoms: N_22  and  C_23
REMARK    6  A    between atoms: C_23  and  C_24
REMARK                            x       y       z     vdW  Elec       q    Type
REMARK                         _______ _______ _______ _____ _____    ______ ____
ROOT
ATOM      1  N   UNL     1       1.780   8.093  20.836  0.00  0.00    +0.000 N 
ATOM      2  C   UNL     1       0.950   9.203  20.760  0.00  0.00    +0.000 A 
ATOM      3  N   UNL     1       0.306   9.526  21.876  0.00  0.00    +0.000 NA
ATOM      4  C   UNL     1      -0.550  10.531  21.780  0.00  0.00    +0.000 A 
ATOM      5  N   UNL     1      -1.324  10.826  22.899  0.00  0.00    +0.000 N 
ATOM      6  N   UNL     1      -0.700  11.260  20.688  0.00  0.00    +0.000 NA
ATOM      7  C   UNL     1       0.016  10.905  19.636  0.00  0.00    +0.000 A 
ATOM      8  N   UNL     1      -0.115  11.620  18.459  0.00  0.00    +0.000 N 
ATOM      9  N   UNL     1       0.847   9.876  19.620  0.00  0.00    +0.000 NA
ATOM     10  H   UNL     1       2.573   8.334  21.419  0.00  0.00    +0.000 HD
ATOM     11  H   UNL     1      -0.911  10.360  23.697  0.00  0.00    +0.000 HD
ATOM     12  H   UNL     1       0.641  11.375  17.833  0.00  0.00    +0.000 HD
ENDROOT
BRANCH   1  13
ATOM     13  C   UNL     1       2.149   7.478  19.575  0.00  0.00    +0.000 C 
BRANCH  13  18
ATOM     14  F   UNL     1       3.464   2.046  20.398  0.00  0.00    +0.000 F 
ATOM     15  C   UNL     1       3.162   3.335  20.214  0.00  0.00    +0.000 A 
ATOM     16  C   UNL     1       2.000   3.851  20.773  0.00  0.00    +0.000 A 
ATOM     17  C   UNL     1       1.687   5.197  20.572  0.00  0.00    +0.000 A 
ATOM     18  C   UNL     1       2.535   6.033  19.821  0.00  0.00    +0.000 A 
ATOM     19  C   UNL     1       3.702   5.485  19.265  0.00  0.00    +0.000 A 
ATOM     20  C   UNL     1       4.013   4.137  19.465  0.00  0.00    +0.000 A 
ENDBRANCH  13  18
ENDBRANCH   1  13
BRANCH   5  21
ATOM     21  C   UNL     1      -1.576  12.246  23.052  0.00  0.00    +0.000 C 
BRANCH  21  22
ATOM     22  C   UNL     1      -3.062  12.529  23.076  0.00  0.00    +0.000 A 
ATOM     23  C   UNL     1      -3.758  12.762  21.877  0.00  0.00    +0.000 A 
ATOM     24  C   UNL     1      -5.139  12.965  21.890  0.00  0.00    +0.000 A 
ATOM     25  C   UNL     1      -5.826  12.935  23.097  0.00  0.00    +0.000 A 
ATOM     26  F   UNL     1      -7.153  13.123  23.104  0.00  0.00    +0.000 F 
ATOM     27  C   UNL     1      -5.160  12.706  24.295  0.00  0.00    +0.000 A 
ATOM     28  C   UNL     1      -3.778  12.502  24.284  0.00  0.00    +0.000 A 
ENDBRANCH  21  22
ENDBRANCH   5  21
BRANCH   8  29
ATOM     29  C   UNL     1      -0.367  13.038  18.614  0.00  0.00    +0.000 C 
BRANCH  29  30
ATOM     30  C   UNL     1       0.951  13.773  18.652  0.00  0.00    +0.000 A 
ATOM     31  C   UNL     1       2.118  13.128  18.201  0.00  0.00    +0.000 A 
ATOM     32  C   UNL     1       3.342  13.791  18.212  0.00  0.00    +0.000 A 
ATOM     33  C   UNL     1       3.402  15.101  18.666  0.00  0.00    +0.000 A 
ATOM     34  F   UNL     1       4.578  15.742  18.679  0.00  0.00    +0.000 F 
ATOM     35  C   UNL     1       2.259  15.762  19.106  0.00  0.00    +0.000 A 
ATOM     36  C   UNL     1       1.030  15.101  19.097  0.00  0.00    +0.000 A 
ENDBRANCH  29  30
ENDBRANCH   8  29
TORSDOF 6
ENDMDL
MODEL 6
REMARK VINA RESULT:      -8.3      4.137     10.509
REMARK  Name = 
REMARK  6 active torsions:
REMARK  status: ('A' for Active; 'I' for Inactive)
REMARK    1  A    between atoms: C_5  and  C_6
REMARK    2  A    between atoms: C_6  and  N_7
REMARK    3  A    between atoms: N_11  and  C_12
REMARK    4  A    between atoms: C_12  and  C_13
REMARK    5  A    between atoms: N_22  and  C_23
REMARK    6  A    between atoms: C_23  and  C_24
REMARK                            x       y       z     vdW  Elec       q    Type
REMARK                         _______ _______ _______ _____ _____    ______ ____
ROOT
ATOM      1  N   UNL     1       0.963  10.362  18.982  0.00  0.00    +0.000 N 
ATOM      2  C   UNL     1       1.584   9.122  19.028  0.00  0.00    +0.000 A 
ATOM      3  N   UNL     1       2.544   8.918  18.132  0.00  0.00    +0.000 NA
ATOM      4  C   UNL     1       3.075   7.706  18.120  0.00  0.00    +0.000 A 
ATOM      5  N   UNL     1       4.005   7.422  17.124  0.00  0.00    +0.000 N 
ATOM      6  N   UNL     1       2.772   6.767  18.999  0.00  0.00    +0.000 NA
ATOM      7  C   UNL     1       1.843   7.067  19.889  0.00  0.00    +0.000 A 
ATOM      8  N   UNL     1       1.471   6.115  20.822  0.00  0.00    +0.000 N 
ATOM      9  N   UNL     1       1.211   8.228  19.936  0.00  0.00    +0.000 NA
ATOM     10  H   UNL     1       1.630  11.058  19.297  0.00  0.00    +0.000 HD
ATOM     11  H   UNL     1       4.304   8.299  16.715  0.00  0.00    +0.000 HD
ATOM     12  H   UNL     1       0.929   6.557  21.552  0.00  0.00    +0.000 HD
ENDROOT
BRANCH   1  13
ATOM     13  C   UNL     1      -0.330  10.459  19.633  0.00  0.00    +0.000 C 
BRANCH  13  18
ATOM     14  F   UNL     1      -4.315  10.946  15.658  0.00  0.00    +0.000 F 
ATOM     15  C   UNL     1      -3.379  10.819  16.604  0.00  0.00    +0.000 A 
ATOM     16  C   UNL     1      -3.465  11.587  17.758  0.00  0.00    +0.000 A 
ATOM     17  C   UNL     1      -2.480  11.453  18.740  0.00  0.00    +0.000 A 
ATOM     18  C   UNL     1      -1.413  10.550  18.576  0.00  0.00    +0.000 A 
ATOM     19  C   UNL     1      -1.349   9.788  17.398  0.00  0.00    +0.000 A 
ATOM     20  C   UNL     1      -2.333   9.925  16.416  0.00  0.00    +0.000 A 
ENDBRANCH  13  18
ENDBRANCH   1  13
BRANCH   5  21
ATOM     21  C   UNL     1       5.063   6.538  17.575  0.00  0.00    +0.000 C 
BRANCH  21  22
ATOM     22  C   UNL     1       5.526   5.636  16.452  0.00  0.00    +0.000 A 
ATOM     23  C   UNL     1       4.658   4.669  15.915  0.00  0.00    +0.000 A 
ATOM     24  C   UNL     1       5.061   3.877  14.840  0.00  0.00    +0.000 A 
ATOM     25  C   UNL     1       6.330   4.047  14.299  0.00  0.00    +0.000 A 
ATOM     26  F   UNL     1       6.710   3.288  13.261  0.00  0.00    +0.000 F 
ATOM     27  C   UNL     1       7.205   4.996  14.812  0.00  0.00    +0.000 A 
ATOM     28  C   UNL     1       6.803   5.791  15.887  0.00  0.00    +0.000 A 
ENDBRANCH  21  22
ENDBRANCH   5  21
BRANCH   8  29
ATOM     29  C   UNL     1       2.528   5.232  21.271  0.00  0.00    +0.000 C 
BRANCH  29  30
ATOM     30  C   UNL     1       2.718   4.132  20.254  0.00  0.00    +0.000 A 
ATOM     31  C   UNL     1       4.020   3.755  19.876  0.00  0.00    +0.000 A 
ATOM     32  C   UNL     1       4.220   2.732  18.952  0.00  0.00    +0.000 A 
ATOM     33  C   UNL     1       3.121   2.081  18.410  0.00  0.00    +0.000 A 
ATOM     34  F   UNL     1       3.309   1.098  17.520  0.00  0.00    +0.000 F 
ATOM     35  C   UNL     1       1.826   2.430  18.778  0.00  0.00    +0.000 A 
ATOM     36  C   UNL     1       1.621   3.455  19.704  0.00  0.00    +0.000 A 
ENDBRANCH  29  30
ENDBRANCH   8  29
TORSDOF 6
ENDMDL
MODEL 7
REMARK VINA RESULT:      -8.2      4.100     10.491
REMARK  Name = 
REMARK  6 active torsions:
REMARK  status: ('A' for Active; 'I' for Inactive)
REMARK    1  A    between atoms: C_5  and  C_6
REMARK    2  A    between atoms: C_6  and  N_7
REMARK    3  A    between atoms: N_11  and  C_12
REMARK    4  A    between atoms: C_12  and  C_13
REMARK    5  A    between atoms: N_22  and  C_23
REMARK    6  A    between atoms: C_23  and  C_24
REMARK                            x       y       z     vdW  Elec       q    Type
REMARK                         _______ _______ _______ _____ _____    ______ ____
ROOT
ATOM      1  N   UNL     1       0.973  10.374  18.986  0.00  0.00    +0.000 N 
ATOM      2  C   UNL     1       1.584   9.128  19.033  0.00  0.00    +0.000 A 
ATOM      3  N   UNL     1       2.532   8.910  18.127  0.00  0.00    +0.000 NA
ATOM      4  C   UNL     1       3.052   7.693  18.118  0.00  0.00    +0.000 A 
ATOM      5  N   UNL     1       3.968   7.393  17.113  0.00  0.00    +0.000 N 
ATOM      6  N   UNL     1       2.751   6.763  19.007  0.00  0.00    +0.000 NA
ATOM      7  C   UNL     1       1.836   7.078  19.906  0.00  0.00    +0.000 A 
ATOM      8  N   UNL     1       1.467   6.136  20.850  0.00  0.00    +0.000 N 
ATOM      9  N   UNL     1       1.215   8.244  19.952  0.00  0.00    +0.000 NA
ATOM     10  H   UNL     1       1.650  11.066  19.287  0.00  0.00    +0.000 HD
ATOM     11  H   UNL     1       4.270   8.264  16.694  0.00  0.00    +0.000 HD
ATOM     12  H   UNL     1       0.937   6.587  21.583  0.00  0.00    +0.000 HD
ENDROOT
BRANCH   1  13
ATOM     13  C   UNL     1      -0.311  10.487  19.650  0.00  0.00    +0.000 C 
BRANCH  13  18
ATOM     14  F   UNL     1      -4.412  10.960  15.795  0.00  0.00    +0.000 F 
ATOM     15  C   UNL     1      -3.435  10.860  16.702  0.00  0.00    +0.000 A 
ATOM     16  C   UNL     1      -2.368  10.005  16.465  0.00  0.00    +0.000 A 
ATOM     17  C   UNL     1      -1.353   9.901  17.419  0.00  0.00    +0.000 A 
ATOM     18  C   UNL     1      -1.398  10.654  18.608  0.00  0.00    +0.000 A 
ATOM     19  C   UNL     1      -2.491  11.509  18.824  0.00  0.00    +0.000 A 
ATOM     20  C   UNL     1      -3.506  11.610  17.869  0.00  0.00    +0.000 A 
ENDBRANCH  13  18
ENDBRANCH   1  13
BRANCH   5  21
ATOM     21  C   UNL     1       5.023   6.503  17.558  0.00  0.00    +0.000 C 
BRANCH  21  22
ATOM     22  C   UNL     1       5.491   5.616  16.426  0.00  0.00    +0.000 A 
ATOM     23  C   UNL     1       4.673   4.573  15.957  0.00  0.00    +0.000 A 
ATOM     24  C   UNL     1       5.076   3.791  14.874  0.00  0.00    +0.000 A 
ATOM     25  C   UNL     1       6.295   4.047  14.258  0.00  0.00    +0.000 A 
ATOM     26  F   UNL     1       6.674   3.297  13.214  0.00  0.00    +0.000 F 
ATOM     27  C   UNL     1       7.121   5.071  14.703  0.00  0.00    +0.000 A 
ATOM     28  C   UNL     1       6.719   5.856  15.786  0.00  0.00    +0.000 A 
ENDBRANCH  21  22
ENDBRANCH   5  21
BRANCH   8  29
ATOM     29  C   UNL     1       2.521   5.247  21.293  0.00  0.00    +0.000 C 
BRANCH  29  30
ATOM     30  C   UNL     1       2.700   4.147  20.274  0.00  0.00    +0.000 A 
ATOM     31  C   UNL     1       1.566   3.532  19.712  0.00  0.00    +0.000 A 
ATOM     32  C   UNL     1       1.707   2.527  18.759  0.00  0.00    +0.000 A 
ATOM     33  C   UNL     1       2.978   2.139  18.362  0.00  0.00    +0.000 A 
ATOM     34  F   UNL     1       3.117   1.171  17.446  0.00  0.00    +0.000 F 
ATOM     35  C   UNL     1       4.113   2.741  18.896  0.00  0.00    +0.000 A 
ATOM     36  C   UNL     1       3.976   3.749  19.852  0.00  0.00    +0.000 A 
ENDBRANCH  29  30
ENDBRANCH   8  29
TORSDOF 6
ENDMDL
MODEL 8
REMARK VINA RESULT:      -8.2      3.179      5.063
REMARK  Name = 
REMARK  6 active torsions:
REMARK  status: ('A' for Active; 'I' for Inactive)
REMARK    1  A    between atoms: C_5  and  C_6
REMARK    2  A    between atoms: C_6  and  N_7
REMARK    3  A    between atoms: N_11  and  C_12
REMARK    4  A    between atoms: C_12  and  C_13
REMARK    5  A    between atoms: N_22  and  C_23
REMARK    6  A    between atoms: C_23  and  C_24
REMARK                            x       y       z     vdW  Elec       q    Type
REMARK                         _______ _______ _______ _____ _____    ______ ____
ROOT
ATOM      1  N   UNL     1       2.079   9.232  18.662  0.00  0.00    +0.000 N 
ATOM      2  C   UNL     1       0.963   9.995  18.977  0.00  0.00    +0.000 A 
ATOM      3  N   UNL     1       1.081  10.789  20.036  0.00  0.00    +0.000 NA
ATOM      4  C   UNL     1      -0.010  11.450  20.386  0.00  0.00    +0.000 A 
ATOM      5  N   UNL     1       0.044  12.207  21.554  0.00  0.00    +0.000 N 
ATOM      6  N   UNL     1      -1.132  11.429  19.689  0.00  0.00    +0.000 NA
ATOM      7  C   UNL     1      -1.151  10.653  18.620  0.00  0.00    +0.000 A 
ATOM      8  N   UNL     1      -2.306  10.577  17.863  0.00  0.00    +0.000 N 
ATOM      9  N   UNL     1      -0.131   9.907  18.230  0.00  0.00    +0.000 NA
ATOM     10  H   UNL     1       2.799   9.858  18.317  0.00  0.00    +0.000 HD
ATOM     11  H   UNL     1       1.017  12.317  21.811  0.00  0.00    +0.000 HD
ATOM     12  H   UNL     1      -2.098  10.131  16.979  0.00  0.00    +0.000 HD
ENDROOT
BRANCH   1  13
ATOM     13  C   UNL     1       1.852   8.080  17.810  0.00  0.00    +0.000 C 
BRANCH  13  18
ATOM     14  F   UNL     1       4.993   3.711  19.530  0.00  0.00    +0.000 F 
ATOM     15  C   UNL     1       4.260   4.755  19.129  0.00  0.00    +0.000 A 
ATOM     16  C   UNL     1       3.204   5.192  19.918  0.00  0.00    +0.000 A 
ATOM     17  C   UNL     1       2.439   6.279  19.490  0.00  0.00    +0.000 A 
ATOM     18  C   UNL     1       2.728   6.935  18.278  0.00  0.00    +0.000 A 
ATOM     19  C   UNL     1       3.799   6.470  17.498  0.00  0.00    +0.000 A 
ATOM     20  C   UNL     1       4.563   5.381  17.927  0.00  0.00    +0.000 A 
ENDBRANCH  13  18
ENDBRANCH   1  13
BRANCH   5  21
ATOM     21  C   UNL     1      -0.735  13.428  21.472  0.00  0.00    +0.000 C 
BRANCH  21  22
ATOM     22  C   UNL     1      -1.984  13.327  22.318  0.00  0.00    +0.000 A 
ATOM     23  C   UNL     1      -2.914  14.381  22.338  0.00  0.00    +0.000 A 
ATOM     24  C   UNL     1      -4.096  14.266  23.071  0.00  0.00    +0.000 A 
ATOM     25  C   UNL     1      -4.353  13.101  23.783  0.00  0.00    +0.000 A 
ATOM     26  F   UNL     1      -5.494  12.994  24.479  0.00  0.00    +0.000 F 
ATOM     27  C   UNL     1      -3.450  12.046  23.778  0.00  0.00    +0.000 A 
ATOM     28  C   UNL     1      -2.266  12.158  23.045  0.00  0.00    +0.000 A 
ENDBRANCH  21  22
ENDBRANCH   5  21
BRANCH   8  29
ATOM     29  C   UNL     1      -3.083  11.797  17.782  0.00  0.00    +0.000 C 
BRANCH  29  30
ATOM     30  C   UNL     1      -4.377  11.609  18.536  0.00  0.00    +0.000 A 
ATOM     31  C   UNL     1      -5.352  10.729  18.030  0.00  0.00    +0.000 A 
ATOM     32  C   UNL     1      -6.547  10.526  18.717  0.00  0.00    +0.000 A 
ATOM     33  C   UNL     1      -6.767  11.198  19.911  0.00  0.00    +0.000 A 
ATOM     34  F   UNL     1      -7.916  11.007  20.573  0.00  0.00    +0.000 F 
ATOM     35  C   UNL     1      -5.813  12.063  20.435  0.00  0.00    +0.000 A 
ATOM     36  C   UNL     1      -4.614  12.269  19.750  0.00  0.00    +0.000 A 
ENDBRANCH  29  30
ENDBRANCH   8  29
TORSDOF 6
ENDMDL
MODEL 9
REMARK VINA RESULT:      -8.1      2.848      4.600
REMARK  Name = 
REMARK  6 active torsions:
REMARK  status: ('A' for Active; 'I' for Inactive)
REMARK    1  A    between atoms: C_5  and  C_6
REMARK    2  A    between atoms: C_6  and  N_7
REMARK    3  A    between atoms: N_11  and  C_12
REMARK    4  A    between atoms: C_12  and  C_13
REMARK    5  A    between atoms: N_22  and  C_23
REMARK    6  A    between atoms: C_23  and  C_24
REMARK                            x       y       z     vdW  Elec       q    Type
REMARK                         _______ _______ _______ _____ _____    ______ ____
ROOT
ATOM      1  N   UNL     1       2.465   8.115  18.676  0.00  0.00    +0.000 N 
ATOM      2  C   UNL     1       1.461   9.056  18.858  0.00  0.00    +0.000 A 
ATOM      3  N   UNL     1       1.548   9.795  19.959  0.00  0.00    +0.000 NA
ATOM      4  C   UNL     1       0.545  10.631  20.175  0.00  0.00    +0.000 A 
ATOM      5  N   UNL     1       0.546  11.341  21.373  0.00  0.00    +0.000 N 
ATOM      6  N   UNL     1      -0.442  10.824  19.318  0.00  0.00    +0.000 NA
ATOM      7  C   UNL     1      -0.427  10.086  18.222  0.00  0.00    +0.000 A 
ATOM      8  N   UNL     1      -1.446  10.232  17.298  0.00  0.00    +0.000 N 
ATOM      9  N   UNL     1       0.497   9.180  17.953  0.00  0.00    +0.000 NA
ATOM     10  H   UNL     1       3.326   8.611  18.473  0.00  0.00    +0.000 HD
ATOM     11  H   UNL     1       1.472  11.272  21.777  0.00  0.00    +0.000 HD
ATOM     12  H   UNL     1      -1.183   9.775  16.435  0.00  0.00    +0.000 HD
ENDROOT
BRANCH   1  13
ATOM     13  C   UNL     1       2.178   7.040  17.745  0.00  0.00    +0.000 C 
BRANCH  13  18
ATOM     14  F   UNL     1       1.516   2.258  20.679  0.00  0.00    +0.000 F 
ATOM     15  C   UNL     1       1.686   3.386  19.981  0.00  0.00    +0.000 A 
ATOM     16  C   UNL     1       2.028   4.556  20.646  0.00  0.00    +0.000 A 
ATOM     17  C   UNL     1       2.199   5.731  19.913  0.00  0.00    +0.000 A 
ATOM     18  C   UNL     1       2.037   5.742  18.514  0.00  0.00    +0.000 A 
ATOM     19  C   UNL     1       1.687   4.545  17.867  0.00  0.00    +0.000 A 
ATOM     20  C   UNL     1       1.515   3.370  18.603  0.00  0.00    +0.000 A 
ENDBRANCH  13  18
ENDBRANCH   1  13
BRANCH   5  21
ATOM     21  C   UNL     1       0.011  12.682  21.235  0.00  0.00    +0.000 C 
BRANCH  21  22
ATOM     22  C   UNL     1      -1.275  12.831  22.016  0.00  0.00    +0.000 A 
ATOM     23  C   UNL     1      -2.098  13.954  21.820  0.00  0.00    +0.000 A 
ATOM     24  C   UNL     1      -3.314  14.065  22.495  0.00  0.00    +0.000 A 
ATOM     25  C   UNL     1      -3.712  13.058  23.365  0.00  0.00    +0.000 A 
ATOM     26  F   UNL     1      -4.884  13.166  24.006  0.00  0.00    +0.000 F 
ATOM     27  C   UNL     1      -2.916  11.939  23.575  0.00  0.00    +0.000 A 
ATOM     28  C   UNL     1      -1.699  11.824  22.900  0.00  0.00    +0.000 A 
ENDBRANCH  21  22
ENDBRANCH   5  21
BRANCH   8  29
ATOM     29  C   UNL     1      -1.980  11.572  17.161  0.00  0.00    +0.000 C 
BRANCH  29  30
ATOM     30  C   UNL     1      -3.378  11.607  17.732  0.00  0.00    +0.000 A 
ATOM     31  C   UNL     1      -3.582  12.093  19.036  0.00  0.00    +0.000 A 
ATOM     32  C   UNL     1      -4.863  12.150  19.578  0.00  0.00    +0.000 A 
ATOM     33  C   UNL     1      -5.943  11.727  18.815  0.00  0.00    +0.000 A 
ATOM     34  F   UNL     1      -7.177  11.779  19.334  0.00  0.00    +0.000 F 
ATOM     35  C   UNL     1      -5.766  11.253  17.520  0.00  0.00    +0.000 A 
ATOM     36  C   UNL     1      -4.483  11.195  16.973  0.00  0.00    +0.000 A 
ENDBRANCH  29  30
ENDBRANCH   8  29
TORSDOF 6
ENDMDL
