MODEL 1
REMARK VINA RESULT:      -7.5      0.000      0.000
REMARK  Name = 
REMARK  7 active torsions:
REMARK  status: ('A' for Active; 'I' for Inactive)
REMARK    1  A    between atoms: O_1  and  C_2
REMARK    2  A    between atoms: C_2  and  C_3
REMARK    3  A    between atoms: C_2  and  C_9
REMARK    4  A    between atoms: C_3  and  N_4
REMARK    5  A    between atoms: C_12  and  C_13
REMARK    6  A    between atoms: C_13  and  C_14
REMARK    7  A    between atoms: C_14  and  C_15
REMARK                            x       y       z     vdW  Elec       q    Type
REMARK                         _______ _______ _______ _____ _____    ______ ____
ROOT
ATOM      1  C   UNL     1       6.286   5.631  17.923  0.00  0.00    +0.000 A 
ATOM      2  C   UNL     1       7.468   5.796  18.655  0.00  0.00    +0.000 A 
ATOM      3  C   UNL     1       8.146   7.012  18.652  0.00  0.00    +0.000 A 
ATOM      4  C   UNL     1       7.697   8.085  17.874  0.00  0.00    +0.000 A 
ATOM      5  C   UNL     1       6.527   7.920  17.125  0.00  0.00    +0.000 A 
ATOM      6  C   UNL     1       5.828   6.710  17.152  0.00  0.00    +0.000 A 
ENDROOT
BRANCH   1   7
ATOM      7  C   UNL     1       5.518   4.327  18.043  0.00  0.00    +0.000 C 
BRANCH   7   8
ATOM      8  O   UNL     1       5.799   3.482  16.926  0.00  0.00    +0.000 OA
ATOM      9  H   UNL     1       5.970   2.593  17.284  0.00  0.00    +0.000 HD
ENDBRANCH   7   8
BRANCH   7  10
ATOM     10  C   UNL     1       4.011   4.614  18.117  0.00  0.00    +0.000 C 
BRANCH  10  11
ATOM     11  N   UNL     1       3.398   4.093  19.320  0.00  0.00    +0.000 N 
ATOM     12  C   UNL     1       3.446   2.804  19.771  0.00  0.00    +0.000 A 
ATOM     13  C   UNL     1       2.757   2.827  20.961  0.00  0.00    +0.000 A 
ATOM     14  N   UNL     1       2.308   4.090  21.243  0.00  0.00    +0.000 NA
ATOM     15  C   UNL     1       2.708   4.831  20.236  0.00  0.00    +0.000 A 
ENDBRANCH  10  11
ENDBRANCH   7  10
ENDBRANCH   1   7
BRANCH   4  16
ATOM     16  C   UNL     1       8.395   9.427  17.876  0.00  0.00    +0.000 C 
BRANCH  16  17
ATOM     17  C   UNL     1       9.100   9.761  19.195  0.00  0.00    +0.000 C 
BRANCH  17  18
ATOM     18  C   UNL     1      10.043  10.926  19.060  0.00  0.00    +0.000 A 
ATOM     19  C   UNL     1      10.506  11.592  20.201  0.00  0.00    +0.000 A 
ATOM     20  C   UNL     1      11.388  12.664  20.078  0.00  0.00    +0.000 A 
ATOM     21  C   UNL     1      11.806  13.080  18.816  0.00  0.00    +0.000 A 
ATOM     22  C   UNL     1      11.345  12.424  17.675  0.00  0.00    +0.000 A 
ATOM     23  C   UNL     1      10.463  11.351  17.795  0.00  0.00    +0.000 A 
ENDBRANCH  17  18
ENDBRANCH  16  17
ENDBRANCH   4  16
TORSDOF 7
ENDMDL
MODEL 2
REMARK VINA RESULT:      -7.5      1.001      1.679
REMARK  Name = 
REMARK  7 active torsions:
REMARK  status: ('A' for Active; 'I' for Inactive)
REMARK    1  A    between atoms: O_1  and  C_2
REMARK    2  A    between atoms: C_2  and  C_3
REMARK    3  A    between atoms: C_2  and  C_9
REMARK    4  A    between atoms: C_3  and  N_4
REMARK    5  A    between atoms: C_12  and  C_13
REMARK    6  A    between atoms: C_13  and  C_14
REMARK    7  A    between atoms: C_14  and  C_15
REMARK                            x       y       z     vdW  Elec       q    Type
REMARK                         _______ _______ _______ _____ _____    ______ ____
ROOT
ATOM      1  C   UNL     1       6.616   5.752  18.115  0.00  0.00    +0.000 A 
ATOM      2  C   UNL     1       7.752   6.022  18.887  0.00  0.00    +0.000 A 
ATOM      3  C   UNL     1       8.374   7.267  18.830  0.00  0.00    +0.000 A 
ATOM      4  C   UNL     1       7.916   8.262  17.960  0.00  0.00    +0.000 A 
ATOM      5  C   UNL     1       6.793   7.990  17.171  0.00  0.00    +0.000 A 
ATOM      6  C   UNL     1       6.148   6.752  17.250  0.00  0.00    +0.000 A 
ENDROOT
BRANCH   1   7
ATOM      7  C   UNL     1       5.902   4.423  18.291  0.00  0.00    +0.000 C 
BRANCH   7   8
ATOM      8  O   UNL     1       5.645   3.827  17.018  0.00  0.00    +0.000 OA
ATOM      9  H   UNL     1       6.193   3.024  16.970  0.00  0.00    +0.000 HD
ENDBRANCH   7   8
BRANCH   7  10
ATOM     10  C   UNL     1       4.581   4.637  19.045  0.00  0.00    +0.000 C 
BRANCH  10  11
ATOM     11  N   UNL     1       3.620   3.583  18.804  0.00  0.00    +0.000 N 
ATOM     12  C   UNL     1       2.437   3.693  18.129  0.00  0.00    +0.000 A 
ATOM     13  C   UNL     1       1.914   2.421  18.134  0.00  0.00    +0.000 A 
ATOM     14  N   UNL     1       2.751   1.550  18.780  0.00  0.00    +0.000 NA
ATOM     15  C   UNL     1       3.770   2.280  19.175  0.00  0.00    +0.000 A 
ENDBRANCH  10  11
ENDBRANCH   7  10
ENDBRANCH   1   7
BRANCH   4  16
ATOM     16  C   UNL     1       8.553   9.633  17.899  0.00  0.00    +0.000 C 
BRANCH  16  17
ATOM     17  C   UNL     1       9.219  10.068  19.209  0.00  0.00    +0.000 C 
BRANCH  17  18
ATOM     18  C   UNL     1      10.249  11.145  18.995  0.00  0.00    +0.000 A 
ATOM     19  C   UNL     1      10.592  11.542  17.697  0.00  0.00    +0.000 A 
ATOM     20  C   UNL     1      11.538  12.546  17.497  0.00  0.00    +0.000 A 
ATOM     21  C   UNL     1      12.149  13.154  18.592  0.00  0.00    +0.000 A 
ATOM     22  C   UNL     1      11.815  12.760  19.887  0.00  0.00    +0.000 A 
ATOM     23  C   UNL     1      10.869  11.757  20.090  0.00  0.00    +0.000 A 
ENDBRANCH  17  18
ENDBRANCH  16  17
ENDBRANCH   4  16
TORSDOF 7
ENDMDL
MODEL 3
REMARK VINA RESULT:      -7.5      1.133      1.969
REMARK  Name = 
REMARK  7 active torsions:
REMARK  status: ('A' for Active; 'I' for Inactive)
REMARK    1  A    between atoms: O_1  and  C_2
REMARK    2  A    between atoms: C_2  and  C_3
REMARK    3  A    between atoms: C_2  and  C_9
REMARK    4  A    between atoms: C_3  and  N_4
REMARK    5  A    between atoms: C_12  and  C_13
REMARK    6  A    between atoms: C_13  and  C_14
REMARK    7  A    between atoms: C_14  and  C_15
REMARK                            x       y       z     vdW  Elec       q    Type
REMARK                         _______ _______ _______ _____ _____    ______ ____
ROOT
ATOM      1  C   UNL     1       5.982   5.174  17.326  0.00  0.00    +0.000 A 
ATOM      2  C   UNL     1       5.941   6.467  16.791  0.00  0.00    +0.000 A 
ATOM      3  C   UNL     1       6.826   7.450  17.229  0.00  0.00    +0.000 A 
ATOM      4  C   UNL     1       7.742   7.189  18.254  0.00  0.00    +0.000 A 
ATOM      5  C   UNL     1       7.775   5.904  18.806  0.00  0.00    +0.000 A 
ATOM      6  C   UNL     1       6.909   4.907  18.345  0.00  0.00    +0.000 A 
ENDROOT
BRANCH   1   7
ATOM      7  C   UNL     1       5.078   4.103  16.742  0.00  0.00    +0.000 C 
BRANCH   7   8
ATOM      8  O   UNL     1       5.200   4.076  15.319  0.00  0.00    +0.000 OA
ATOM      9  H   UNL     1       4.375   4.450  14.961  0.00  0.00    +0.000 HD
ENDBRANCH   7   8
BRANCH   7  10
ATOM     10  C   UNL     1       3.619   4.379  17.137  0.00  0.00    +0.000 C 
BRANCH  10  11
ATOM     11  N   UNL     1       3.150   3.509  18.193  0.00  0.00    +0.000 N 
ATOM     12  C   UNL     1       3.570   3.501  19.494  0.00  0.00    +0.000 A 
ATOM     13  C   UNL     1       2.801   2.535  20.101  0.00  0.00    +0.000 A 
ATOM     14  N   UNL     1       1.927   1.973  19.209  0.00  0.00    +0.000 NA
ATOM     15  C   UNL     1       2.161   2.579  18.067  0.00  0.00    +0.000 A 
ENDBRANCH  10  11
ENDBRANCH   7  10
ENDBRANCH   1   7
BRANCH   4  16
ATOM     16  C   UNL     1       8.735   8.227  18.728  0.00  0.00    +0.000 C 
BRANCH  16  17
ATOM     17  C   UNL     1       8.465   9.637  18.193  0.00  0.00    +0.000 C 
BRANCH  17  18
ATOM     18  C   UNL     1       9.429  10.652  18.745  0.00  0.00    +0.000 A 
ATOM     19  C   UNL     1      10.252  11.384  17.881  0.00  0.00    +0.000 A 
ATOM     20  C   UNL     1      11.138  12.332  18.390  0.00  0.00    +0.000 A 
ATOM     21  C   UNL     1      11.210  12.549  19.765  0.00  0.00    +0.000 A 
ATOM     22  C   UNL     1      10.397  11.820  20.632  0.00  0.00    +0.000 A 
ATOM     23  C   UNL     1       9.510  10.872  20.125  0.00  0.00    +0.000 A 
ENDBRANCH  17  18
ENDBRANCH  16  17
ENDBRANCH   4  16
TORSDOF 7
ENDMDL
MODEL 4
REMARK VINA RESULT:      -7.4      1.387      1.792
REMARK  Name = 
REMARK  7 active torsions:
REMARK  status: ('A' for Active; 'I' for Inactive)
REMARK    1  A    between atoms: O_1  and  C_2
REMARK    2  A    between atoms: C_2  and  C_3
REMARK    3  A    between atoms: C_2  and  C_9
REMARK    4  A    between atoms: C_3  and  N_4
REMARK    5  A    between atoms: C_12  and  C_13
REMARK    6  A    between atoms: C_13  and  C_14
REMARK    7  A    between atoms: C_14  and  C_15
REMARK                            x       y       z     vdW  Elec       q    Type
REMARK                         _______ _______ _______ _____ _____    ______ ____
ROOT
ATOM      1  C   UNL     1       6.659   5.263  17.251  0.00  0.00    +0.000 A 
ATOM      2  C   UNL     1       6.586   6.535  16.673  0.00  0.00    +0.000 A 
ATOM      3  C   UNL     1       7.289   7.608  17.215  0.00  0.00    +0.000 A 
ATOM      4  C   UNL     1       8.043   7.458  18.385  0.00  0.00    +0.000 A 
ATOM      5  C   UNL     1       8.105   6.192  18.978  0.00  0.00    +0.000 A 
ATOM      6  C   UNL     1       7.425   5.107  18.417  0.00  0.00    +0.000 A 
ENDROOT
BRANCH   1   7
ATOM      7  C   UNL     1       5.970   4.097  16.564  0.00  0.00    +0.000 C 
BRANCH   7   8
ATOM      8  O   UNL     1       6.414   3.988  15.211  0.00  0.00    +0.000 OA
ATOM      9  H   UNL     1       5.879   3.288  14.797  0.00  0.00    +0.000 HD
ENDBRANCH   7   8
BRANCH   7  10
ATOM     10  C   UNL     1       4.447   4.297  16.600  0.00  0.00    +0.000 C 
BRANCH  10  11
ATOM     11  N   UNL     1       3.794   3.456  17.580  0.00  0.00    +0.000 N 
ATOM     12  C   UNL     1       2.603   2.801  17.433  0.00  0.00    +0.000 A 
ATOM     13  C   UNL     1       2.439   2.112  18.611  0.00  0.00    +0.000 A 
ATOM     14  N   UNL     1       3.497   2.324  19.455  0.00  0.00    +0.000 NA
ATOM     15  C   UNL     1       4.297   3.140  18.807  0.00  0.00    +0.000 A 
ENDBRANCH  10  11
ENDBRANCH   7  10
ENDBRANCH   1   7
BRANCH   4  16
ATOM     16  C   UNL     1       8.841   8.597  18.979  0.00  0.00    +0.000 C 
BRANCH  16  17
ATOM     17  C   UNL     1       8.753   9.902  18.180  0.00  0.00    +0.000 C 
BRANCH  17  18
ATOM     18  C   UNL     1       9.781  10.910  18.618  0.00  0.00    +0.000 A 
ATOM     19  C   UNL     1       9.978  11.167  19.980  0.00  0.00    +0.000 A 
ATOM     20  C   UNL     1      10.937  12.092  20.387  0.00  0.00    +0.000 A 
ATOM     21  C   UNL     1      11.699  12.770  19.438  0.00  0.00    +0.000 A 
ATOM     22  C   UNL     1      11.504  12.522  18.079  0.00  0.00    +0.000 A 
ATOM     23  C   UNL     1      10.546  11.597  17.668  0.00  0.00    +0.000 A 
ENDBRANCH  17  18
ENDBRANCH  16  17
ENDBRANCH   4  16
TORSDOF 7
ENDMDL
MODEL 5
REMARK VINA RESULT:      -7.4      0.372      1.094
REMARK  Name = 
REMARK  7 active torsions:
REMARK  status: ('A' for Active; 'I' for Inactive)
REMARK    1  A    between atoms: O_1  and  C_2
REMARK    2  A    between atoms: C_2  and  C_3
REMARK    3  A    between atoms: C_2  and  C_9
REMARK    4  A    between atoms: C_3  and  N_4
REMARK    5  A    between atoms: C_12  and  C_13
REMARK    6  A    between atoms: C_13  and  C_14
REMARK    7  A    between atoms: C_14  and  C_15
REMARK                            x       y       z     vdW  Elec       q    Type
REMARK                         _______ _______ _______ _____ _____    ______ ____
ROOT
ATOM      1  C   UNL     1       6.136   5.406  17.829  0.00  0.00    +0.000 A 
ATOM      2  C   UNL     1       7.292   5.552  18.604  0.00  0.00    +0.000 A 
ATOM      3  C   UNL     1       7.992   6.757  18.622  0.00  0.00    +0.000 A 
ATOM      4  C   UNL     1       7.591   7.834  17.825  0.00  0.00    +0.000 A 
ATOM      5  C   UNL     1       6.447   7.687  17.033  0.00  0.00    +0.000 A 
ATOM      6  C   UNL     1       5.726   6.489  17.038  0.00  0.00    +0.000 A 
ENDROOT
BRANCH   1   7
ATOM      7  C   UNL     1       5.340   4.116  17.924  0.00  0.00    +0.000 C 
BRANCH   7   8
ATOM      8  O   UNL     1       5.632   3.270  16.811  0.00  0.00    +0.000 OA
ATOM      9  H   UNL     1       6.602   3.218  16.747  0.00  0.00    +0.000 HD
ENDBRANCH   7   8
BRANCH   7  10
ATOM     10  C   UNL     1       3.837   4.431  17.962  0.00  0.00    +0.000 C 
BRANCH  10  11
ATOM     11  N   UNL     1       3.232   4.133  19.242  0.00  0.00    +0.000 N 
ATOM     12  C   UNL     1       3.195   2.917  19.865  0.00  0.00    +0.000 A 
ATOM     13  C   UNL     1       2.556   3.159  21.059  0.00  0.00    +0.000 A 
ATOM     14  N   UNL     1       2.220   4.482  21.176  0.00  0.00    +0.000 NA
ATOM     15  C   UNL     1       2.638   5.043  20.064  0.00  0.00    +0.000 A 
ENDBRANCH  10  11
ENDBRANCH   7  10
ENDBRANCH   1   7
BRANCH   4  16
ATOM     16  C   UNL     1       8.313   9.163  17.848  0.00  0.00    +0.000 C 
BRANCH  16  17
ATOM     17  C   UNL     1       9.011   9.470  19.177  0.00  0.00    +0.000 C 
BRANCH  17  18
ATOM     18  C   UNL     1       9.770  10.769  19.138  0.00  0.00    +0.000 A 
ATOM     19  C   UNL     1      10.187  11.303  17.912  0.00  0.00    +0.000 A 
ATOM     20  C   UNL     1      10.881  12.510  17.873  0.00  0.00    +0.000 A 
ATOM     21  C   UNL     1      11.167  13.188  19.056  0.00  0.00    +0.000 A 
ATOM     22  C   UNL     1      10.759  12.659  20.280  0.00  0.00    +0.000 A 
ATOM     23  C   UNL     1      10.065  11.452  20.323  0.00  0.00    +0.000 A 
ENDBRANCH  17  18
ENDBRANCH  16  17
ENDBRANCH   4  16
TORSDOF 7
ENDMDL
MODEL 6
REMARK VINA RESULT:      -7.4      0.368      1.089
REMARK  Name = 
REMARK  7 active torsions:
REMARK  status: ('A' for Active; 'I' for Inactive)
REMARK    1  A    between atoms: O_1  and  C_2
REMARK    2  A    between atoms: C_2  and  C_3
REMARK    3  A    between atoms: C_2  and  C_9
REMARK    4  A    between atoms: C_3  and  N_4
REMARK    5  A    between atoms: C_12  and  C_13
REMARK    6  A    between atoms: C_13  and  C_14
REMARK    7  A    between atoms: C_14  and  C_15
REMARK                            x       y       z     vdW  Elec       q    Type
REMARK                         _______ _______ _______ _____ _____    ______ ____
ROOT
ATOM      1  C   UNL     1       6.088   5.427  17.853  0.00  0.00    +0.000 A 
ATOM      2  C   UNL     1       5.622   6.534  17.135  0.00  0.00    +0.000 A 
ATOM      3  C   UNL     1       6.344   7.726  17.112  0.00  0.00    +0.000 A 
ATOM      4  C   UNL     1       7.524   7.867  17.850  0.00  0.00    +0.000 A 
ATOM      5  C   UNL     1       7.984   6.769  18.585  0.00  0.00    +0.000 A 
ATOM      6  C   UNL     1       7.278   5.563  18.584  0.00  0.00    +0.000 A 
ENDROOT
BRANCH   1   7
ATOM      7  C   UNL     1       5.331   4.114  17.760  0.00  0.00    +0.000 C 
BRANCH   7   8
ATOM      8  O   UNL     1       5.675   3.429  16.555  0.00  0.00    +0.000 OA
ATOM      9  H   UNL     1       5.987   4.105  15.928  0.00  0.00    +0.000 HD
ENDBRANCH   7   8
BRANCH   7  10
ATOM     10  C   UNL     1       3.818   4.380  17.797  0.00  0.00    +0.000 C 
BRANCH  10  11
ATOM     11  N   UNL     1       3.235   4.125  19.097  0.00  0.00    +0.000 N 
ATOM     12  C   UNL     1       3.061   2.907  19.690  0.00  0.00    +0.000 A 
ATOM     13  C   UNL     1       2.513   3.194  20.919  0.00  0.00    +0.000 A 
ATOM     14  N   UNL     1       2.365   4.546  21.085  0.00  0.00    +0.000 NA
ATOM     15  C   UNL     1       2.807   5.081  19.969  0.00  0.00    +0.000 A 
ENDBRANCH  10  11
ENDBRANCH   7  10
ENDBRANCH   1   7
BRANCH   4  16
ATOM     16  C   UNL     1       8.344   9.138  17.819  0.00  0.00    +0.000 C 
BRANCH  16  17
ATOM     17  C   UNL     1       9.000   9.488  19.159  0.00  0.00    +0.000 C 
BRANCH  17  18
ATOM     18  C   UNL     1       9.804  10.758  19.087  0.00  0.00    +0.000 A 
ATOM     19  C   UNL     1      10.181  11.419  20.262  0.00  0.00    +0.000 A 
ATOM     20  C   UNL     1      10.935  12.590  20.197  0.00  0.00    +0.000 A 
ATOM     21  C   UNL     1      11.310  13.109  18.959  0.00  0.00    +0.000 A 
ATOM     22  C   UNL     1      10.934  12.457  17.785  0.00  0.00    +0.000 A 
ATOM     23  C   UNL     1      10.181  11.286  17.847  0.00  0.00    +0.000 A 
ENDBRANCH  17  18
ENDBRANCH  16  17
ENDBRANCH   4  16
TORSDOF 7
ENDMDL
MODEL 7
REMARK VINA RESULT:      -7.4      1.024      1.790
REMARK  Name = 
REMARK  7 active torsions:
REMARK  status: ('A' for Active; 'I' for Inactive)
REMARK    1  A    between atoms: O_1  and  C_2
REMARK    2  A    between atoms: C_2  and  C_3
REMARK    3  A    between atoms: C_2  and  C_9
REMARK    4  A    between atoms: C_3  and  N_4
REMARK    5  A    between atoms: C_12  and  C_13
REMARK    6  A    between atoms: C_13  and  C_14
REMARK    7  A    between atoms: C_14  and  C_15
REMARK                            x       y       z     vdW  Elec       q    Type
REMARK                         _______ _______ _______ _____ _____    ______ ____
ROOT
ATOM      1  C   UNL     1       5.808   5.263  18.144  0.00  0.00    +0.000 A 
ATOM      2  C   UNL     1       5.379   6.316  17.327  0.00  0.00    +0.000 A 
ATOM      3  C   UNL     1       6.178   7.441  17.135  0.00  0.00    +0.000 A 
ATOM      4  C   UNL     1       7.404   7.576  17.796  0.00  0.00    +0.000 A 
ATOM      5  C   UNL     1       7.828   6.534  18.628  0.00  0.00    +0.000 A 
ATOM      6  C   UNL     1       7.042   5.390  18.797  0.00  0.00    +0.000 A 
ENDROOT
BRANCH   1   7
ATOM      7  C   UNL     1       4.959   4.007  18.236  0.00  0.00    +0.000 C 
BRANCH   7   8
ATOM      8  O   UNL     1       5.186   3.172  17.100  0.00  0.00    +0.000 OA
ATOM      9  H   UNL     1       4.757   2.319  17.290  0.00  0.00    +0.000 HD
ENDBRANCH   7   8
BRANCH   7  10
ATOM     10  C   UNL     1       3.472   4.387  18.317  0.00  0.00    +0.000 C 
BRANCH  10  11
ATOM     11  N   UNL     1       2.821   3.855  19.495  0.00  0.00    +0.000 N 
ATOM     12  C   UNL     1       2.512   4.539  20.637  0.00  0.00    +0.000 A 
ATOM     13  C   UNL     1       1.872   3.615  21.431  0.00  0.00    +0.000 A 
ATOM     14  N   UNL     1       1.778   2.405  20.797  0.00  0.00    +0.000 NA
ATOM     15  C   UNL     1       2.361   2.580  19.632  0.00  0.00    +0.000 A 
ENDBRANCH  10  11
ENDBRANCH   7  10
ENDBRANCH   1   7
BRANCH   4  16
ATOM     16  C   UNL     1       8.306   8.771  17.583  0.00  0.00    +0.000 C 
BRANCH  16  17
ATOM     17  C   UNL     1       8.846   9.383  18.880  0.00  0.00    +0.000 C 
BRANCH  17  18
ATOM     18  C   UNL     1       9.375  10.777  18.677  0.00  0.00    +0.000 A 
ATOM     19  C   UNL     1       8.699  11.670  17.836  0.00  0.00    +0.000 A 
ATOM     20  C   UNL     1       9.182  12.964  17.655  0.00  0.00    +0.000 A 
ATOM     21  C   UNL     1      10.344  13.372  18.307  0.00  0.00    +0.000 A 
ATOM     22  C   UNL     1      11.025  12.486  19.142  0.00  0.00    +0.000 A 
ATOM     23  C   UNL     1      10.544  11.190  19.326  0.00  0.00    +0.000 A 
ENDBRANCH  17  18
ENDBRANCH  16  17
ENDBRANCH   4  16
TORSDOF 7
ENDMDL
MODEL 8
REMARK VINA RESULT:      -7.3      1.366      1.764
REMARK  Name = 
REMARK  7 active torsions:
REMARK  status: ('A' for Active; 'I' for Inactive)
REMARK    1  A    between atoms: O_1  and  C_2
REMARK    2  A    between atoms: C_2  and  C_3
REMARK    3  A    between atoms: C_2  and  C_9
REMARK    4  A    between atoms: C_3  and  N_4
REMARK    5  A    between atoms: C_12  and  C_13
REMARK    6  A    between atoms: C_13  and  C_14
REMARK    7  A    between atoms: C_14  and  C_15
REMARK                            x       y       z     vdW  Elec       q    Type
REMARK                         _______ _______ _______ _____ _____    ______ ____
ROOT
ATOM      1  C   UNL     1       6.636   5.244  17.208  0.00  0.00    +0.000 A 
ATOM      2  C   UNL     1       7.418   5.081  18.357  0.00  0.00    +0.000 A 
ATOM      3  C   UNL     1       8.081   6.164  18.929  0.00  0.00    +0.000 A 
ATOM      4  C   UNL     1       8.030   7.432  18.342  0.00  0.00    +0.000 A 
ATOM      5  C   UNL     1       7.265   7.598  17.182  0.00  0.00    +0.000 A 
ATOM      6  C   UNL     1       6.573   6.519  16.624  0.00  0.00    +0.000 A 
ENDROOT
BRANCH   1   7
ATOM      7  C   UNL     1       5.839   4.064  16.682  0.00  0.00    +0.000 C 
BRANCH   7   8
ATOM      8  O   UNL     1       6.179   3.805  15.319  0.00  0.00    +0.000 OA
ATOM      9  H   UNL     1       6.907   3.159  15.330  0.00  0.00    +0.000 HD
ENDBRANCH   7   8
BRANCH   7  10
ATOM     10  C   UNL     1       4.335   4.354  16.800  0.00  0.00    +0.000 C 
BRANCH  10  11
ATOM     11  N   UNL     1       3.664   3.470  17.727  0.00  0.00    +0.000 N 
ATOM     12  C   UNL     1       4.141   3.029  18.929  0.00  0.00    +0.000 A 
ATOM     13  C   UNL     1       3.126   2.257  19.444  0.00  0.00    +0.000 A 
ATOM     14  N   UNL     1       2.052   2.229  18.594  0.00  0.00    +0.000 NA
ATOM     15  C   UNL     1       2.406   2.968  17.567  0.00  0.00    +0.000 A 
ENDBRANCH  10  11
ENDBRANCH   7  10
ENDBRANCH   1   7
BRANCH   4  16
ATOM     16  C   UNL     1       8.714   8.632  18.958  0.00  0.00    +0.000 C 
BRANCH  16  17
ATOM     17  C   UNL     1       8.688   9.885  18.076  0.00  0.00    +0.000 C 
BRANCH  17  18
ATOM     18  C   UNL     1       9.520  11.002  18.645  0.00  0.00    +0.000 A 
ATOM     19  C   UNL     1       9.922  12.067  17.829  0.00  0.00    +0.000 A 
ATOM     20  C   UNL     1      10.684  13.107  18.358  0.00  0.00    +0.000 A 
ATOM     21  C   UNL     1      11.053  13.087  19.701  0.00  0.00    +0.000 A 
ATOM     22  C   UNL     1      10.661  12.027  20.518  0.00  0.00    +0.000 A 
ATOM     23  C   UNL     1       9.898  10.985  19.993  0.00  0.00    +0.000 A 
ENDBRANCH  17  18
ENDBRANCH  16  17
ENDBRANCH   4  16
TORSDOF 7
ENDMDL
MODEL 9
REMARK VINA RESULT:      -7.3      1.179      1.789
REMARK  Name = 
REMARK  7 active torsions:
REMARK  status: ('A' for Active; 'I' for Inactive)
REMARK    1  A    between atoms: O_1  and  C_2
REMARK    2  A    between atoms: C_2  and  C_3
REMARK    3  A    between atoms: C_2  and  C_9
REMARK    4  A    between atoms: C_3  and  N_4
REMARK    5  A    between atoms: C_12  and  C_13
REMARK    6  A    between atoms: C_13  and  C_14
REMARK    7  A    between atoms: C_14  and  C_15
REMARK                            x       y       z     vdW  Elec       q    Type
REMARK                         _______ _______ _______ _____ _____    ______ ____
ROOT
ATOM      1  C   UNL     1       5.229   5.158  17.670  0.00  0.00    +0.000 A 
ATOM      2  C   UNL     1       6.156   4.873  18.679  0.00  0.00    +0.000 A 
ATOM      3  C   UNL     1       7.203   5.749  18.955  0.00  0.00    +0.000 A 
ATOM      4  C   UNL     1       7.391   6.909  18.195  0.00  0.00    +0.000 A 
ATOM      5  C   UNL     1       6.479   7.189  17.172  0.00  0.00    +0.000 A 
ATOM      6  C   UNL     1       5.409   6.327  16.914  0.00  0.00    +0.000 A 
ENDROOT
BRANCH   1   7
ATOM      7  C   UNL     1       4.038   4.235  17.477  0.00  0.00    +0.000 C 
BRANCH   7   8
ATOM      8  O   UNL     1       2.820   4.975  17.565  0.00  0.00    +0.000 OA
ATOM      9  H   UNL     1       2.586   5.017  18.510  0.00  0.00    +0.000 HD
ENDBRANCH   7   8
BRANCH   7  10
ATOM     10  C   UNL     1       4.058   3.130  18.544  0.00  0.00    +0.000 C 
BRANCH  10  11
ATOM     11  N   UNL     1       2.957   3.231  19.478  0.00  0.00    +0.000 N 
ATOM     12  C   UNL     1       1.814   2.483  19.480  0.00  0.00    +0.000 A 
ATOM     13  C   UNL     1       1.112   2.925  20.577  0.00  0.00    +0.000 A 
ATOM     14  N   UNL     1       1.803   3.905  21.239  0.00  0.00    +0.000 NA
ATOM     15  C   UNL     1       2.911   4.070  20.552  0.00  0.00    +0.000 A 
ENDBRANCH  10  11
ENDBRANCH   7  10
ENDBRANCH   1   7
BRANCH   4  16
ATOM     16  C   UNL     1       8.501   7.893  18.491  0.00  0.00    +0.000 C 
BRANCH  16  17
ATOM     17  C   UNL     1       8.246   9.302  17.944  0.00  0.00    +0.000 C 
BRANCH  17  18
ATOM     18  C   UNL     1       9.149  10.329  18.571  0.00  0.00    +0.000 A 
ATOM     19  C   UNL     1       9.907  11.186  17.764  0.00  0.00    +0.000 A 
ATOM     20  C   UNL     1      10.736  12.145  18.343  0.00  0.00    +0.000 A 
ATOM     21  C   UNL     1      10.816  12.250  19.730  0.00  0.00    +0.000 A 
ATOM     22  C   UNL     1      10.067  11.397  20.540  0.00  0.00    +0.000 A 
ATOM     23  C   UNL     1       9.237  10.437  19.964  0.00  0.00    +0.000 A 
ENDBRANCH  17  18
ENDBRANCH  16  17
ENDBRANCH   4  16
TORSDOF 7
ENDMDL
