MODEL 1
REMARK VINA RESULT:      -8.9      0.000      0.000
REMARK  Name = 
REMARK  7 active torsions:
REMARK  status: ('A' for Active; 'I' for Inactive)
REMARK    1  A    between atoms: C_2  and  C_3
REMARK    2  A    between atoms: C_2  and  C_21
REMARK    3  A    between atoms: C_3  and  C_4
REMARK    4  A    between atoms: C_4  and  C_5
REMARK    5  A    between atoms: C_5  and  N_6
REMARK    6  A    between atoms: C_9  and  O_10
REMARK    7  A    between atoms: C_9  and  C_11
REMARK                            x       y       z     vdW  Elec       q    Type
REMARK                         _______ _______ _______ _____ _____    ______ ____
ROOT
ATOM      1  N   UNL     1       6.383   6.759  17.736  0.00  0.00    +0.000 NA
ATOM      2  C   UNL     1       6.834   5.599  18.524  0.00  0.00    +0.000 C 
ATOM      3  C   UNL     1       5.662   4.924  19.239  0.00  0.00    +0.000 C 
ATOM      4  C   UNL     1       4.534   4.544  18.265  0.00  0.00    +0.000 C 
ATOM      5  C   UNL     1       4.202   5.692  17.289  0.00  0.00    +0.000 C 
ATOM      6  C   UNL     1       5.465   6.306  16.678  0.00  0.00    +0.000 C 
ENDROOT
BRANCH   4   7
ATOM      7  C   UNL     1       3.269   4.029  19.001  0.00  0.00    +0.000 A 
ATOM      8  C   UNL     1       2.396   4.920  19.691  0.00  0.00    +0.000 A 
ATOM      9 CL   UNL     1       2.643   6.632  19.843  0.00  0.00    +0.000 Cl
ATOM     10  C   UNL     1       1.220   4.477  20.327  0.00  0.00    +0.000 A 
ATOM     11  C   UNL     1       0.856   3.145  20.297  0.00  0.00    +0.000 A 
ATOM     12  C   UNL     1       1.683   2.243  19.650  0.00  0.00    +0.000 A 
ATOM     13  C   UNL     1       2.871   2.665  19.023  0.00  0.00    +0.000 A 
ATOM     14 CL   UNL     1       3.776   1.352  18.340  0.00  0.00    +0.000 Cl
ENDBRANCH   4   7
BRANCH   4  15
ATOM     15  O   UNL     1       5.140   3.551  17.413  0.00  0.00    +0.000 OA
ATOM     16  H   UNL     1       4.568   2.764  17.417  0.00  0.00    +0.000 HD
ENDBRANCH   4  15
BRANCH   1  17
ATOM     17  C   UNL     1       7.512   7.503  17.152  0.00  0.00    +0.000 C 
BRANCH  17  18
ATOM     18  C   UNL     1       8.204   8.384  18.195  0.00  0.00    +0.000 C 
BRANCH  18  19
ATOM     19  C   UNL     1       8.287   9.849  17.774  0.00  0.00    +0.000 C 
BRANCH  19  21
ATOM     20  O   UNL     1       9.417  10.227  19.875  0.00  0.00    +0.000 OA
ATOM     21  C   UNL     1       9.190  10.616  18.730  0.00  0.00    +0.000 C 
BRANCH  21  22
ATOM     22  C   UNL     1       9.828  11.875  18.264  0.00  0.00    +0.000 A 
ATOM     23  C   UNL     1      11.084  11.784  17.634  0.00  0.00    +0.000 A 
ATOM     24  C   UNL     1      11.725  12.934  17.173  0.00  0.00    +0.000 A 
ATOM     25  C   UNL     1      11.113  14.170  17.343  0.00  0.00    +0.000 A 
ATOM     26  F   UNL     1      11.727  15.275  16.903  0.00  0.00    +0.000 F 
ATOM     27  C   UNL     1       9.875  14.277  17.962  0.00  0.00    +0.000 A 
ATOM     28  C   UNL     1       9.227  13.129  18.426  0.00  0.00    +0.000 A 
ENDBRANCH  21  22
ENDBRANCH  19  21
ENDBRANCH  18  19
ENDBRANCH  17  18
ENDBRANCH   1  17
TORSDOF 7
ENDMDL
MODEL 2
REMARK VINA RESULT:      -8.8      0.646      2.010
REMARK  Name = 
REMARK  7 active torsions:
REMARK  status: ('A' for Active; 'I' for Inactive)
REMARK    1  A    between atoms: C_2  and  C_3
REMARK    2  A    between atoms: C_2  and  C_21
REMARK    3  A    between atoms: C_3  and  C_4
REMARK    4  A    between atoms: C_4  and  C_5
REMARK    5  A    between atoms: C_5  and  N_6
REMARK    6  A    between atoms: C_9  and  O_10
REMARK    7  A    between atoms: C_9  and  C_11
REMARK                            x       y       z     vdW  Elec       q    Type
REMARK                         _______ _______ _______ _____ _____    ______ ____
ROOT
ATOM      1  N   UNL     1       6.266   6.754  17.721  0.00  0.00    +0.000 NA
ATOM      2  C   UNL     1       6.679   5.696  18.659  0.00  0.00    +0.000 C 
ATOM      3  C   UNL     1       5.471   5.069  19.356  0.00  0.00    +0.000 C 
ATOM      4  C   UNL     1       4.426   4.558  18.350  0.00  0.00    +0.000 C 
ATOM      5  C   UNL     1       4.145   5.587  17.236  0.00  0.00    +0.000 C 
ATOM      6  C   UNL     1       5.438   6.168  16.654  0.00  0.00    +0.000 C 
ENDROOT
BRANCH   4   7
ATOM      7  C   UNL     1       3.120   4.089  19.045  0.00  0.00    +0.000 A 
ATOM      8  C   UNL     1       2.706   2.726  19.006  0.00  0.00    +0.000 A 
ATOM      9 CL   UNL     1       3.543   1.457  18.166  0.00  0.00    +0.000 Cl
ATOM     10  C   UNL     1       1.548   2.273  19.668  0.00  0.00    +0.000 A 
ATOM     11  C   UNL     1       0.762   3.144  20.399  0.00  0.00    +0.000 A 
ATOM     12  C   UNL     1       1.121   4.480  20.451  0.00  0.00    +0.000 A 
ATOM     13  C   UNL     1       2.266   4.953  19.782  0.00  0.00    +0.000 A 
ATOM     14 CL   UNL     1       2.474   6.669  19.932  0.00  0.00    +0.000 Cl
ENDBRANCH   4   7
BRANCH   4  15
ATOM     15  O   UNL     1       5.112   3.497  17.656  0.00  0.00    +0.000 OA
ATOM     16  H   UNL     1       5.625   2.992  18.311  0.00  0.00    +0.000 HD
ENDBRANCH   4  15
BRANCH   1  17
ATOM     17  C   UNL     1       7.420   7.462  17.143  0.00  0.00    +0.000 C 
BRANCH  17  18
ATOM     18  C   UNL     1       8.220   8.205  18.217  0.00  0.00    +0.000 C 
BRANCH  18  19
ATOM     19  C   UNL     1       8.517   9.653  17.840  0.00  0.00    +0.000 C 
BRANCH  19  21
ATOM     20  O   UNL     1       9.143   9.969  20.152  0.00  0.00    +0.000 OA
ATOM     21  C   UNL     1       9.234  10.354  18.987  0.00  0.00    +0.000 C 
BRANCH  21  22
ATOM     22  C   UNL     1      10.081  11.539  18.689  0.00  0.00    +0.000 A 
ATOM     23  C   UNL     1       9.597  12.478  17.758  0.00  0.00    +0.000 A 
ATOM     24  C   UNL     1      10.349  13.610  17.444  0.00  0.00    +0.000 A 
ATOM     25  C   UNL     1      11.580  13.802  18.060  0.00  0.00    +0.000 A 
ATOM     26  F   UNL     1      12.305  14.887  17.761  0.00  0.00    +0.000 F 
ATOM     27  C   UNL     1      12.071  12.886  18.981  0.00  0.00    +0.000 A 
ATOM     28  C   UNL     1      11.323  11.749  19.299  0.00  0.00    +0.000 A 
ENDBRANCH  21  22
ENDBRANCH  19  21
ENDBRANCH  18  19
ENDBRANCH  17  18
ENDBRANCH   1  17
TORSDOF 7
ENDMDL
MODEL 3
REMARK VINA RESULT:      -8.6      0.438      1.833
REMARK  Name = 
REMARK  7 active torsions:
REMARK  status: ('A' for Active; 'I' for Inactive)
REMARK    1  A    between atoms: C_2  and  C_3
REMARK    2  A    between atoms: C_2  and  C_21
REMARK    3  A    between atoms: C_3  and  C_4
REMARK    4  A    between atoms: C_4  and  C_5
REMARK    5  A    between atoms: C_5  and  N_6
REMARK    6  A    between atoms: C_9  and  O_10
REMARK    7  A    between atoms: C_9  and  C_11
REMARK                            x       y       z     vdW  Elec       q    Type
REMARK                         _______ _______ _______ _____ _____    ______ ____
ROOT
ATOM      1  N   UNL     1       6.343   6.551  17.493  0.00  0.00    +0.000 NA
ATOM      2  C   UNL     1       6.615   5.914  18.793  0.00  0.00    +0.000 C 
ATOM      3  C   UNL     1       5.339   5.330  19.402  0.00  0.00    +0.000 C 
ATOM      4  C   UNL     1       4.627   4.367  18.436  0.00  0.00    +0.000 C 
ATOM      5  C   UNL     1       4.530   4.946  17.010  0.00  0.00    +0.000 C 
ATOM      6  C   UNL     1       5.864   5.536  16.540  0.00  0.00    +0.000 C 
ENDROOT
BRANCH   4   7
ATOM      7  C   UNL     1       3.242   3.914  18.970  0.00  0.00    +0.000 A 
ATOM      8  C   UNL     1       2.850   2.544  18.951  0.00  0.00    +0.000 A 
ATOM      9 CL   UNL     1       3.807   1.246  18.305  0.00  0.00    +0.000 Cl
ATOM     10  C   UNL     1       1.617   2.108  19.472  0.00  0.00    +0.000 A 
ATOM     11  C   UNL     1       0.730   3.003  20.039  0.00  0.00    +0.000 A 
ATOM     12  C   UNL     1       1.065   4.346  20.065  0.00  0.00    +0.000 A 
ATOM     13  C   UNL     1       2.287   4.802  19.534  0.00  0.00    +0.000 A 
ATOM     14 CL   UNL     1       2.456   6.526  19.616  0.00  0.00    +0.000 Cl
ENDBRANCH   4   7
BRANCH   4  15
ATOM     15  O   UNL     1       5.562   3.280  18.289  0.00  0.00    +0.000 OA
ATOM     16  H   UNL     1       5.505   2.725  19.086  0.00  0.00    +0.000 HD
ENDBRANCH   4  15
BRANCH   1  17
ATOM     17  C   UNL     1       7.530   7.238  16.955  0.00  0.00    +0.000 C 
BRANCH  17  18
ATOM     18  C   UNL     1       8.227   8.079  18.028  0.00  0.00    +0.000 C 
BRANCH  18  19
ATOM     19  C   UNL     1       8.132   9.578  17.761  0.00  0.00    +0.000 C 
BRANCH  19  21
ATOM     20  O   UNL     1       9.428   9.901  19.774  0.00  0.00    +0.000 OA
ATOM     21  C   UNL     1       9.093  10.332  18.671  0.00  0.00    +0.000 C 
BRANCH  21  22
ATOM     22  C   UNL     1       9.652  11.630  18.211  0.00  0.00    +0.000 A 
ATOM     23  C   UNL     1      10.978  11.646  17.739  0.00  0.00    +0.000 A 
ATOM     24  C   UNL     1      11.552  12.837  17.292  0.00  0.00    +0.000 A 
ATOM     25  C   UNL     1      10.801  14.006  17.316  0.00  0.00    +0.000 A 
ATOM     26  F   UNL     1      11.349  15.150  16.889  0.00  0.00    +0.000 F 
ATOM     27  C   UNL     1       9.492  14.007  17.780  0.00  0.00    +0.000 A 
ATOM     28  C   UNL     1       8.912  12.818  18.229  0.00  0.00    +0.000 A 
ENDBRANCH  21  22
ENDBRANCH  19  21
ENDBRANCH  18  19
ENDBRANCH  17  18
ENDBRANCH   1  17
TORSDOF 7
ENDMDL
MODEL 4
REMARK VINA RESULT:      -8.4      0.812      1.241
REMARK  Name = 
REMARK  7 active torsions:
REMARK  status: ('A' for Active; 'I' for Inactive)
REMARK    1  A    between atoms: C_2  and  C_3
REMARK    2  A    between atoms: C_2  and  C_21
REMARK    3  A    between atoms: C_3  and  C_4
REMARK    4  A    between atoms: C_4  and  C_5
REMARK    5  A    between atoms: C_5  and  N_6
REMARK    6  A    between atoms: C_9  and  O_10
REMARK    7  A    between atoms: C_9  and  C_11
REMARK                            x       y       z     vdW  Elec       q    Type
REMARK                         _______ _______ _______ _____ _____    ______ ____
ROOT
ATOM      1  N   UNL     1       6.665   7.083  17.887  0.00  0.00    +0.000 NA
ATOM      2  C   UNL     1       7.158   5.923  18.649  0.00  0.00    +0.000 C 
ATOM      3  C   UNL     1       6.036   5.276  19.462  0.00  0.00    +0.000 C 
ATOM      4  C   UNL     1       4.827   4.907  18.586  0.00  0.00    +0.000 C 
ATOM      5  C   UNL     1       4.437   6.051  17.627  0.00  0.00    +0.000 C 
ATOM      6  C   UNL     1       5.657   6.637  16.910  0.00  0.00    +0.000 C 
ENDROOT
BRANCH   4   7
ATOM      7  C   UNL     1       3.616   4.421  19.426  0.00  0.00    +0.000 A 
ATOM      8  C   UNL     1       2.541   5.297  19.757  0.00  0.00    +0.000 A 
ATOM      9 CL   UNL     1       2.463   6.978  19.328  0.00  0.00    +0.000 Cl
ATOM     10  C   UNL     1       1.413   4.863  20.480  0.00  0.00    +0.000 A 
ATOM     11  C   UNL     1       1.298   3.550  20.894  0.00  0.00    +0.000 A 
ATOM     12  C   UNL     1       2.327   2.669  20.606  0.00  0.00    +0.000 A 
ATOM     13  C   UNL     1       3.469   3.089  19.899  0.00  0.00    +0.000 A 
ATOM     14 CL   UNL     1       4.650   1.832  19.718  0.00  0.00    +0.000 Cl
ENDBRANCH   4   7
BRANCH   4  15
ATOM     15  O   UNL     1       5.345   3.895  17.699  0.00  0.00    +0.000 OA
ATOM     16  H   UNL     1       6.221   3.627  18.029  0.00  0.00    +0.000 HD
ENDBRANCH   4  15
BRANCH   1  17
ATOM     17  C   UNL     1       7.755   7.801  17.206  0.00  0.00    +0.000 C 
BRANCH  17  18
ATOM     18  C   UNL     1       8.043   9.149  17.874  0.00  0.00    +0.000 C 
BRANCH  18  19
ATOM     19  C   UNL     1       9.036   9.039  19.028  0.00  0.00    +0.000 C 
BRANCH  19  21
ATOM     20  O   UNL     1       9.076  10.680  20.801  0.00  0.00    +0.000 OA
ATOM     21  C   UNL     1       9.302  10.417  19.620  0.00  0.00    +0.000 C 
BRANCH  21  22
ATOM     22  C   UNL     1       9.862  11.481  18.745  0.00  0.00    +0.000 A 
ATOM     23  C   UNL     1       9.047  12.593  18.456  0.00  0.00    +0.000 A 
ATOM     24  C   UNL     1       9.524  13.621  17.643  0.00  0.00    +0.000 A 
ATOM     25  C   UNL     1      10.809  13.538  17.122  0.00  0.00    +0.000 A 
ATOM     26  F   UNL     1      11.268  14.524  16.341  0.00  0.00    +0.000 F 
ATOM     27  C   UNL     1      11.624  12.448  17.397  0.00  0.00    +0.000 A 
ATOM     28  C   UNL     1      11.153  11.414  18.210  0.00  0.00    +0.000 A 
ENDBRANCH  21  22
ENDBRANCH  19  21
ENDBRANCH  18  19
ENDBRANCH  17  18
ENDBRANCH   1  17
TORSDOF 7
ENDMDL
MODEL 5
REMARK VINA RESULT:      -8.3      1.064      1.443
REMARK  Name = 
REMARK  7 active torsions:
REMARK  status: ('A' for Active; 'I' for Inactive)
REMARK    1  A    between atoms: C_2  and  C_3
REMARK    2  A    between atoms: C_2  and  C_21
REMARK    3  A    between atoms: C_3  and  C_4
REMARK    4  A    between atoms: C_4  and  C_5
REMARK    5  A    between atoms: C_5  and  N_6
REMARK    6  A    between atoms: C_9  and  O_10
REMARK    7  A    between atoms: C_9  and  C_11
REMARK                            x       y       z     vdW  Elec       q    Type
REMARK                         _______ _______ _______ _____ _____    ______ ____
ROOT
ATOM      1  N   UNL     1       6.445   6.147  17.449  0.00  0.00    +0.000 NA
ATOM      2  C   UNL     1       5.185   6.875  17.223  0.00  0.00    +0.000 C 
ATOM      3  C   UNL     1       3.973   5.972  17.454  0.00  0.00    +0.000 C 
ATOM      4  C   UNL     1       4.004   5.308  18.842  0.00  0.00    +0.000 C 
ATOM      5  C   UNL     1       5.394   4.727  19.173  0.00  0.00    +0.000 C 
ATOM      6  C   UNL     1       6.519   5.717  18.855  0.00  0.00    +0.000 C 
ENDROOT
BRANCH   4   7
ATOM      7  C   UNL     1       2.881   4.252  19.015  0.00  0.00    +0.000 A 
ATOM      8  C   UNL     1       1.784   4.471  19.898  0.00  0.00    +0.000 A 
ATOM      9 CL   UNL     1       1.585   5.872  20.905  0.00  0.00    +0.000 Cl
ATOM     10  C   UNL     1       0.733   3.544  20.035  0.00  0.00    +0.000 A 
ATOM     11  C   UNL     1       0.718   2.374  19.300  0.00  0.00    +0.000 A 
ATOM     12  C   UNL     1       1.772   2.115  18.440  0.00  0.00    +0.000 A 
ATOM     13  C   UNL     1       2.839   3.022  18.303  0.00  0.00    +0.000 A 
ATOM     14 CL   UNL     1       4.073   2.454  17.224  0.00  0.00    +0.000 Cl
ENDBRANCH   4   7
BRANCH   4  15
ATOM     15  O   UNL     1       3.884   6.419  19.752  0.00  0.00    +0.000 OA
ATOM     16  H   UNL     1       2.987   6.786  19.663  0.00  0.00    +0.000 HD
ENDBRANCH   4  15
BRANCH   1  17
ATOM     17  C   UNL     1       7.623   6.959  17.099  0.00  0.00    +0.000 C 
BRANCH  17  18
ATOM     18  C   UNL     1       7.954   7.973  18.199  0.00  0.00    +0.000 C 
BRANCH  18  19
ATOM     19  C   UNL     1       8.185   9.381  17.657  0.00  0.00    +0.000 C 
BRANCH  19  21
ATOM     20  O   UNL     1       9.189   9.817  19.811  0.00  0.00    +0.000 OA
ATOM     21  C   UNL     1       8.992  10.198  18.657  0.00  0.00    +0.000 C 
BRANCH  21  22
ATOM     22  C   UNL     1       9.569  11.498  18.225  0.00  0.00    +0.000 A 
ATOM     23  C   UNL     1      10.900  11.509  17.768  0.00  0.00    +0.000 A 
ATOM     24  C   UNL     1      11.490  12.701  17.347  0.00  0.00    +0.000 A 
ATOM     25  C   UNL     1      10.752  13.877  17.384  0.00  0.00    +0.000 A 
ATOM     26  F   UNL     1      11.316  15.023  16.982  0.00  0.00    +0.000 F 
ATOM     27  C   UNL     1       9.437  13.884  17.833  0.00  0.00    +0.000 A 
ATOM     28  C   UNL     1       8.841  12.693  18.256  0.00  0.00    +0.000 A 
ENDBRANCH  21  22
ENDBRANCH  19  21
ENDBRANCH  18  19
ENDBRANCH  17  18
ENDBRANCH   1  17
TORSDOF 7
ENDMDL
MODEL 6
REMARK VINA RESULT:      -8.1      1.813      2.238
REMARK  Name = 
REMARK  7 active torsions:
REMARK  status: ('A' for Active; 'I' for Inactive)
REMARK    1  A    between atoms: C_2  and  C_3
REMARK    2  A    between atoms: C_2  and  C_21
REMARK    3  A    between atoms: C_3  and  C_4
REMARK    4  A    between atoms: C_4  and  C_5
REMARK    5  A    between atoms: C_5  and  N_6
REMARK    6  A    between atoms: C_9  and  O_10
REMARK    7  A    between atoms: C_9  and  C_11
REMARK                            x       y       z     vdW  Elec       q    Type
REMARK                         _______ _______ _______ _____ _____    ______ ____
ROOT
ATOM      1  N   UNL     1       6.537   6.820  17.836  0.00  0.00    +0.000 NA
ATOM      2  C   UNL     1       6.923   5.700  18.711  0.00  0.00    +0.000 C 
ATOM      3  C   UNL     1       5.696   5.043  19.346  0.00  0.00    +0.000 C 
ATOM      4  C   UNL     1       4.663   4.610  18.293  0.00  0.00    +0.000 C 
ATOM      5  C   UNL     1       4.412   5.711  17.242  0.00  0.00    +0.000 C 
ATOM      6  C   UNL     1       5.721   6.313  16.721  0.00  0.00    +0.000 C 
ENDROOT
BRANCH   4   7
ATOM      7  C   UNL     1       3.340   4.112  18.934  0.00  0.00    +0.000 A 
ATOM      8  C   UNL     1       2.460   5.007  19.609  0.00  0.00    +0.000 A 
ATOM      9 CL   UNL     1       2.755   6.702  19.845  0.00  0.00    +0.000 Cl
ATOM     10  C   UNL     1       1.234   4.583  20.159  0.00  0.00    +0.000 A 
ATOM     11  C   UNL     1       0.827   3.267  20.054  0.00  0.00    +0.000 A 
ATOM     12  C   UNL     1       1.660   2.361  19.418  0.00  0.00    +0.000 A 
ATOM     13  C   UNL     1       2.896   2.764  18.878  0.00  0.00    +0.000 A 
ATOM     14 CL   UNL     1       3.794   1.447  18.194  0.00  0.00    +0.000 Cl
ENDBRANCH   4   7
BRANCH   4  15
ATOM     15  O   UNL     1       5.350   3.588  17.543  0.00  0.00    +0.000 OA
ATOM     16  H   UNL     1       4.786   2.794  17.530  0.00  0.00    +0.000 HD
ENDBRANCH   4  15
BRANCH   1  17
ATOM     17  C   UNL     1       7.708   7.550  17.324  0.00  0.00    +0.000 C 
BRANCH  17  18
ATOM     18  C   UNL     1       7.741   8.992  17.839  0.00  0.00    +0.000 C 
BRANCH  18  19
ATOM     19  C   UNL     1       8.850   9.232  18.860  0.00  0.00    +0.000 C 
BRANCH  19  21
ATOM     20  O   UNL     1      10.034  10.937  17.624  0.00  0.00    +0.000 OA
ATOM     21  C   UNL     1       9.452  10.616  18.660  0.00  0.00    +0.000 C 
BRANCH  21  22
ATOM     22  C   UNL     1       9.328  11.620  19.749  0.00  0.00    +0.000 A 
ATOM     23  C   UNL     1       9.189  12.973  19.387  0.00  0.00    +0.000 A 
ATOM     24  C   UNL     1       9.065  13.956  20.369  0.00  0.00    +0.000 A 
ATOM     25  C   UNL     1       9.079  13.586  21.708  0.00  0.00    +0.000 A 
ATOM     26  F   UNL     1       8.962  14.527  22.653  0.00  0.00    +0.000 F 
ATOM     27  C   UNL     1       9.216  12.256  22.083  0.00  0.00    +0.000 A 
ATOM     28  C   UNL     1       9.341  11.267  21.104  0.00  0.00    +0.000 A 
ENDBRANCH  21  22
ENDBRANCH  19  21
ENDBRANCH  18  19
ENDBRANCH  17  18
ENDBRANCH   1  17
TORSDOF 7
ENDMDL
MODEL 7
REMARK VINA RESULT:      -8.0      1.247      1.466
REMARK  Name = 
REMARK  7 active torsions:
REMARK  status: ('A' for Active; 'I' for Inactive)
REMARK    1  A    between atoms: C_2  and  C_3
REMARK    2  A    between atoms: C_2  and  C_21
REMARK    3  A    between atoms: C_3  and  C_4
REMARK    4  A    between atoms: C_4  and  C_5
REMARK    5  A    between atoms: C_5  and  N_6
REMARK    6  A    between atoms: C_9  and  O_10
REMARK    7  A    between atoms: C_9  and  C_11
REMARK                            x       y       z     vdW  Elec       q    Type
REMARK                         _______ _______ _______ _____ _____    ______ ____
ROOT
ATOM      1  N   UNL     1       6.637   6.441  17.953  0.00  0.00    +0.000 NA
ATOM      2  C   UNL     1       6.972   5.131  18.536  0.00  0.00    +0.000 C 
ATOM      3  C   UNL     1       5.739   4.467  19.151  0.00  0.00    +0.000 C 
ATOM      4  C   UNL     1       4.579   4.361  18.147  0.00  0.00    +0.000 C 
ATOM      5  C   UNL     1       4.362   5.679  17.374  0.00  0.00    +0.000 C 
ATOM      6  C   UNL     1       5.680   6.258  16.851  0.00  0.00    +0.000 C 
ENDROOT
BRANCH   4   7
ATOM      7  C   UNL     1       3.269   3.859  18.811  0.00  0.00    +0.000 A 
ATOM      8  C   UNL     1       2.352   4.763  19.422  0.00  0.00    +0.000 A 
ATOM      9 CL   UNL     1       2.587   6.479  19.553  0.00  0.00    +0.000 Cl
ATOM     10  C   UNL     1       1.137   4.332  19.990  0.00  0.00    +0.000 A 
ATOM     11  C   UNL     1       0.777   2.998  19.966  0.00  0.00    +0.000 A 
ATOM     12  C   UNL     1       1.646   2.084  19.394  0.00  0.00    +0.000 A 
ATOM     13  C   UNL     1       2.872   2.495  18.837  0.00  0.00    +0.000 A 
ATOM     14 CL   UNL     1       3.820   1.170  18.243  0.00  0.00    +0.000 Cl
ENDBRANCH   4   7
BRANCH   4  15
ATOM     15  O   UNL     1       5.083   3.465  17.137  0.00  0.00    +0.000 OA
ATOM     16  H   UNL     1       4.448   3.456  16.399  0.00  0.00    +0.000 HD
ENDBRANCH   4  15
BRANCH   1  17
ATOM     17  C   UNL     1       7.834   7.157  17.478  0.00  0.00    +0.000 C 
BRANCH  17  18
ATOM     18  C   UNL     1       7.611   8.671  17.453  0.00  0.00    +0.000 C 
BRANCH  18  19
ATOM     19  C   UNL     1       8.631   9.436  18.291  0.00  0.00    +0.000 C 
BRANCH  19  21
ATOM     20  O   UNL     1       7.694  11.398  17.237  0.00  0.00    +0.000 OA
ATOM     21  C   UNL     1       8.564  10.922  17.965  0.00  0.00    +0.000 C 
BRANCH  21  22
ATOM     22  C   UNL     1       9.581  11.834  18.553  0.00  0.00    +0.000 A 
ATOM     23  C   UNL     1       9.612  13.166  18.099  0.00  0.00    +0.000 A 
ATOM     24  C   UNL     1      10.543  14.065  18.619  0.00  0.00    +0.000 A 
ATOM     25  C   UNL     1      11.438  13.634  19.591  0.00  0.00    +0.000 A 
ATOM     26  F   UNL     1      12.333  14.494  20.091  0.00  0.00    +0.000 F 
ATOM     27  C   UNL     1      11.420  12.323  20.049  0.00  0.00    +0.000 A 
ATOM     28  C   UNL     1      10.490  11.417  19.532  0.00  0.00    +0.000 A 
ENDBRANCH  21  22
ENDBRANCH  19  21
ENDBRANCH  18  19
ENDBRANCH  17  18
ENDBRANCH   1  17
TORSDOF 7
ENDMDL
MODEL 8
REMARK VINA RESULT:      -7.8      1.807      2.168
REMARK  Name = 
REMARK  7 active torsions:
REMARK  status: ('A' for Active; 'I' for Inactive)
REMARK    1  A    between atoms: C_2  and  C_3
REMARK    2  A    between atoms: C_2  and  C_21
REMARK    3  A    between atoms: C_3  and  C_4
REMARK    4  A    between atoms: C_4  and  C_5
REMARK    5  A    between atoms: C_5  and  N_6
REMARK    6  A    between atoms: C_9  and  O_10
REMARK    7  A    between atoms: C_9  and  C_11
REMARK                            x       y       z     vdW  Elec       q    Type
REMARK                         _______ _______ _______ _____ _____    ______ ____
ROOT
ATOM      1  N   UNL     1       6.567   6.979  17.952  0.00  0.00    +0.000 NA
ATOM      2  C   UNL     1       7.016   5.777  18.674  0.00  0.00    +0.000 C 
ATOM      3  C   UNL     1       5.860   5.120  19.431  0.00  0.00    +0.000 C 
ATOM      4  C   UNL     1       4.666   4.816  18.510  0.00  0.00    +0.000 C 
ATOM      5  C   UNL     1       4.325   6.009  17.593  0.00  0.00    +0.000 C 
ATOM      6  C   UNL     1       5.575   6.598  16.933  0.00  0.00    +0.000 C 
ENDROOT
BRANCH   4   7
ATOM      7  C   UNL     1       3.424   4.322  19.299  0.00  0.00    +0.000 A 
ATOM      8  C   UNL     1       2.469   5.236  19.831  0.00  0.00    +0.000 A 
ATOM      9 CL   UNL     1       2.583   6.966  19.722  0.00  0.00    +0.000 Cl
ATOM     10  C   UNL     1       1.313   4.805  20.511  0.00  0.00    +0.000 A 
ATOM     11  C   UNL     1       1.052   3.459  20.682  0.00  0.00    +0.000 A 
ATOM     12  C   UNL     1       1.961   2.537  20.193  0.00  0.00    +0.000 A 
ATOM     13  C   UNL     1       3.130   2.950  19.526  0.00  0.00    +0.000 A 
ATOM     14 CL   UNL     1       4.148   1.624  19.065  0.00  0.00    +0.000 Cl
ENDBRANCH   4   7
BRANCH   4  15
ATOM     15  O   UNL     1       5.185   3.832  17.593  0.00  0.00    +0.000 OA
ATOM     16  H   UNL     1       4.493   3.640  16.936  0.00  0.00    +0.000 HD
ENDBRANCH   4  15
BRANCH   1  17
ATOM     17  C   UNL     1       7.689   7.702  17.330  0.00  0.00    +0.000 C 
BRANCH  17  18
ATOM     18  C   UNL     1       8.349   8.670  18.315  0.00  0.00    +0.000 C 
BRANCH  18  19
ATOM     19  C   UNL     1       8.166  10.133  17.921  0.00  0.00    +0.000 C 
BRANCH  19  21
ATOM     20  O   UNL     1      10.446  10.861  17.594  0.00  0.00    +0.000 OA
ATOM     21  C   UNL     1       9.419  10.927  18.268  0.00  0.00    +0.000 C 
BRANCH  21  22
ATOM     22  C   UNL     1       9.400  11.821  19.455  0.00  0.00    +0.000 A 
ATOM     23  C   UNL     1       9.373  11.223  20.730  0.00  0.00    +0.000 A 
ATOM     24  C   UNL     1       9.358  12.014  21.878  0.00  0.00    +0.000 A 
ATOM     25  C   UNL     1       9.369  13.398  21.753  0.00  0.00    +0.000 A 
ATOM     26  F   UNL     1       9.353  14.160  22.853  0.00  0.00    +0.000 F 
ATOM     27  C   UNL     1       9.395  14.003  20.503  0.00  0.00    +0.000 A 
ATOM     28  C   UNL     1       9.410  13.216  19.348  0.00  0.00    +0.000 A 
ENDBRANCH  21  22
ENDBRANCH  19  21
ENDBRANCH  18  19
ENDBRANCH  17  18
ENDBRANCH   1  17
TORSDOF 7
ENDMDL
MODEL 9
REMARK VINA RESULT:      -7.8      1.788      2.801
REMARK  Name = 
REMARK  7 active torsions:
REMARK  status: ('A' for Active; 'I' for Inactive)
REMARK    1  A    between atoms: C_2  and  C_3
REMARK    2  A    between atoms: C_2  and  C_21
REMARK    3  A    between atoms: C_3  and  C_4
REMARK    4  A    between atoms: C_4  and  C_5
REMARK    5  A    between atoms: C_5  and  N_6
REMARK    6  A    between atoms: C_9  and  O_10
REMARK    7  A    between atoms: C_9  and  C_11
REMARK                            x       y       z     vdW  Elec       q    Type
REMARK                         _______ _______ _______ _____ _____    ______ ____
ROOT
ATOM      1  N   UNL     1       6.523   6.956  17.783  0.00  0.00    +0.000 NA
ATOM      2  C   UNL     1       6.899   5.626  18.291  0.00  0.00    +0.000 C 
ATOM      3  C   UNL     1       5.724   4.949  18.999  0.00  0.00    +0.000 C 
ATOM      4  C   UNL     1       4.473   4.884  18.107  0.00  0.00    +0.000 C 
ATOM      5  C   UNL     1       4.196   6.226  17.400  0.00  0.00    +0.000 C 
ATOM      6  C   UNL     1       5.463   6.814  16.772  0.00  0.00    +0.000 C 
ENDROOT
BRANCH   4   7
ATOM      7  C   UNL     1       3.227   4.369  18.876  0.00  0.00    +0.000 A 
ATOM      8  C   UNL     1       2.881   2.986  18.890  0.00  0.00    +0.000 A 
ATOM      9 CL   UNL     1       3.740   1.739  18.040  0.00  0.00    +0.000 Cl
ATOM     10  C   UNL     1       1.781   2.494  19.619  0.00  0.00    +0.000 A 
ATOM     11  C   UNL     1       0.989   3.343  20.367  0.00  0.00    +0.000 A 
ATOM     12  C   UNL     1       1.281   4.696  20.370  0.00  0.00    +0.000 A 
ATOM     13  C   UNL     1       2.367   5.208  19.634  0.00  0.00    +0.000 A 
ATOM     14 CL   UNL     1       2.494   6.935  19.734  0.00  0.00    +0.000 Cl
ENDBRANCH   4   7
BRANCH   4  15
ATOM     15  O   UNL     1       4.871   4.017  17.026  0.00  0.00    +0.000 OA
ATOM     16  H   UNL     1       5.825   3.847  17.113  0.00  0.00    +0.000 HD
ENDBRANCH   4  15
BRANCH   1  17
ATOM     17  C   UNL     1       7.676   7.678  17.219  0.00  0.00    +0.000 C 
BRANCH  17  18
ATOM     18  C   UNL     1       8.293   8.636  18.242  0.00  0.00    +0.000 C 
BRANCH  18  19
ATOM     19  C   UNL     1       8.146  10.103  17.846  0.00  0.00    +0.000 C 
BRANCH  19  21
ATOM     20  O   UNL     1      10.441  10.804  17.567  0.00  0.00    +0.000 OA
ATOM     21  C   UNL     1       9.403  10.875  18.225  0.00  0.00    +0.000 C 
BRANCH  21  22
ATOM     22  C   UNL     1       9.376  11.751  19.425  0.00  0.00    +0.000 A 
ATOM     23  C   UNL     1       9.378  11.134  20.691  0.00  0.00    +0.000 A 
ATOM     24  C   UNL     1       9.357  11.909  21.851  0.00  0.00    +0.000 A 
ATOM     25  C   UNL     1       9.334  13.294  21.745  0.00  0.00    +0.000 A 
ATOM     26  F   UNL     1       9.313  14.040  22.856  0.00  0.00    +0.000 F 
ATOM     27  C   UNL     1       9.331  13.918  20.504  0.00  0.00    +0.000 A 
ATOM     28  C   UNL     1       9.352  13.147  19.338  0.00  0.00    +0.000 A 
ENDBRANCH  21  22
ENDBRANCH  19  21
ENDBRANCH  18  19
ENDBRANCH  17  18
ENDBRANCH   1  17
TORSDOF 7
ENDMDL
