MODEL 1
REMARK VINA RESULT:      -9.0      0.000      0.000
REMARK  Name = 
REMARK  7 active torsions:
REMARK  status: ('A' for Active; 'I' for Inactive)
REMARK    1  A    between atoms: C_2  and  C_10
REMARK    2  A    between atoms: C_10  and  C_13
REMARK    3  A    between atoms: C_13  and  C_16
REMARK    4  A    between atoms: C_16  and  C_19
REMARK    5  A    between atoms: C_19  and  C_22
REMARK    6  A    between atoms: C_22  and  C_25
REMARK    7  A    between atoms: C_25  and  C_28
REMARK                            x       y       z     vdW  Elec       q    Type
REMARK                         _______ _______ _______ _____ _____    ______ ____
ROOT
ATOM      1  C   UNL     1       5.371   5.222  18.684  0.00  0.00    +0.000 C 
ATOM      2  F   UNL     1       5.423   3.899  19.006  0.00  0.00    +0.000 F 
ATOM      3  F   UNL     1       5.389   5.908  19.861  0.00  0.00    +0.000 F 
ENDROOT
BRANCH   1   4
ATOM      4  C   UNL     1       6.576   5.603  17.825  0.00  0.00    +0.000 C 
ATOM      5  F   UNL     1       7.734   5.446  18.536  0.00  0.00    +0.000 F 
ATOM      6  F   UNL     1       6.531   6.938  17.524  0.00  0.00    +0.000 F 
BRANCH   4   8
ATOM      7  O   UNL     1       6.872   3.570  16.503  0.00  0.00    +0.000 OA
ATOM      8  C   UNL     1       6.640   4.786  16.521  0.00  0.00    +0.000 C 
ATOM      9  N   UNL     1       6.439   5.534  15.358  0.00  0.00    +0.000 N 
ATOM     10  C   UNL     1       6.645   4.958  14.091  0.00  0.00    +0.000 A 
ATOM     11  C   UNL     1       5.879   3.881  13.668  0.00  0.00    +0.000 A 
ATOM     12  C   UNL     1       6.105   3.347  12.397  0.00  0.00    +0.000 A 
ATOM     13  C   UNL     1       7.112   3.884  11.607  0.00  0.00    +0.000 A 
ATOM     14  C   UNL     1       7.819   4.968  12.111  0.00  0.00    +0.000 A 
ATOM     15  N   UNL     1       7.574   5.544  13.314  0.00  0.00    +0.000 NA
ATOM     16  H   UNL     1       6.719   6.511  15.400  0.00  0.00    +0.000 HD
ENDBRANCH   4   8
ENDBRANCH   1   4
BRANCH   1  17
ATOM     17  C   UNL     1       4.066   5.514  17.958  0.00  0.00    +0.000 C 
ATOM     18  F   UNL     1       4.131   6.734  17.356  0.00  0.00    +0.000 F 
ATOM     19  F   UNL     1       3.874   4.614  16.955  0.00  0.00    +0.000 F 
BRANCH  17  20
ATOM     20  C   UNL     1       2.878   5.474  18.910  0.00  0.00    +0.000 C 
ATOM     21  F   UNL     1       3.315   5.531  20.197  0.00  0.00    +0.000 F 
ATOM     22  F   UNL     1       2.095   6.571  18.728  0.00  0.00    +0.000 F 
BRANCH  20  23
ATOM     23  C   UNL     1       2.048   4.220  18.703  0.00  0.00    +0.000 C 
ATOM     24  F   UNL     1       1.205   4.393  17.647  0.00  0.00    +0.000 F 
ATOM     25  F   UNL     1       2.852   3.169  18.381  0.00  0.00    +0.000 F 
BRANCH  23  26
ATOM     26  C   UNL     1       1.249   3.886  19.941  0.00  0.00    +0.000 C 
ATOM     27  F   UNL     1       1.171   4.975  20.761  0.00  0.00    +0.000 F 
ATOM     28  F   UNL     1      -0.041   3.590  19.612  0.00  0.00    +0.000 F 
BRANCH  26  29
ATOM     29  C   UNL     1       1.885   2.715  20.679  0.00  0.00    +0.000 C 
ATOM     30  F   UNL     1       1.826   1.543  20.010  0.00  0.00    +0.000 F 
ATOM     31  F   UNL     1       3.197   2.947  20.941  0.00  0.00    +0.000 F 
ATOM     32  F   UNL     1       1.292   2.507  21.882  0.00  0.00    +0.000 F 
ENDBRANCH  26  29
ENDBRANCH  23  26
ENDBRANCH  20  23
ENDBRANCH  17  20
ENDBRANCH   1  17
TORSDOF 7
ENDMDL
MODEL 2
REMARK VINA RESULT:      -8.9      0.825      1.791
REMARK  Name = 
REMARK  7 active torsions:
REMARK  status: ('A' for Active; 'I' for Inactive)
REMARK    1  A    between atoms: C_2  and  C_10
REMARK    2  A    between atoms: C_10  and  C_13
REMARK    3  A    between atoms: C_13  and  C_16
REMARK    4  A    between atoms: C_16  and  C_19
REMARK    5  A    between atoms: C_19  and  C_22
REMARK    6  A    between atoms: C_22  and  C_25
REMARK    7  A    between atoms: C_25  and  C_28
REMARK                            x       y       z     vdW  Elec       q    Type
REMARK                         _______ _______ _______ _____ _____    ______ ____
ROOT
ATOM      1  C   UNL     1       4.471   6.136  17.908  0.00  0.00    +0.000 C 
ATOM      2  F   UNL     1       4.283   6.856  19.050  0.00  0.00    +0.000 F 
ATOM      3  F   UNL     1       4.054   6.927  16.880  0.00  0.00    +0.000 F 
ENDROOT
BRANCH   1   4
ATOM      4  C   UNL     1       5.949   5.783  17.746  0.00  0.00    +0.000 C 
ATOM      5  F   UNL     1       6.410   5.146  18.865  0.00  0.00    +0.000 F 
ATOM      6  F   UNL     1       6.695   6.928  17.664  0.00  0.00    +0.000 F 
BRANCH   4   8
ATOM      7  O   UNL     1       6.511   3.718  16.569  0.00  0.00    +0.000 OA
ATOM      8  C   UNL     1       6.204   4.915  16.500  0.00  0.00    +0.000 C 
ATOM      9  N   UNL     1       6.085   5.595  15.285  0.00  0.00    +0.000 N 
ATOM     10  C   UNL     1       6.462   4.979  14.079  0.00  0.00    +0.000 A 
ATOM     11  C   UNL     1       5.814   3.834  13.633  0.00  0.00    +0.000 A 
ATOM     12  C   UNL     1       6.209   3.261  12.422  0.00  0.00    +0.000 A 
ATOM     13  C   UNL     1       7.261   3.828  11.716  0.00  0.00    +0.000 A 
ATOM     14  C   UNL     1       7.840   4.979  12.235  0.00  0.00    +0.000 A 
ATOM     15  N   UNL     1       7.432   5.590  13.374  0.00  0.00    +0.000 NA
ATOM     16  H   UNL     1       6.298   6.589  15.306  0.00  0.00    +0.000 HD
ENDBRANCH   4   8
ENDBRANCH   1   4
BRANCH   1  17
ATOM     17  C   UNL     1       3.609   4.883  17.953  0.00  0.00    +0.000 C 
ATOM     18  F   UNL     1       3.502   4.348  16.706  0.00  0.00    +0.000 F 
ATOM     19  F   UNL     1       4.206   3.929  18.718  0.00  0.00    +0.000 F 
BRANCH  17  20
ATOM     20  C   UNL     1       2.222   5.181  18.505  0.00  0.00    +0.000 C 
ATOM     21  F   UNL     1       1.906   6.486  18.282  0.00  0.00    +0.000 F 
ATOM     22  F   UNL     1       1.287   4.448  17.844  0.00  0.00    +0.000 F 
BRANCH  20  23
ATOM     23  C   UNL     1       2.143   4.880  19.991  0.00  0.00    +0.000 C 
ATOM     24  F   UNL     1       3.391   4.911  20.536  0.00  0.00    +0.000 F 
ATOM     25  F   UNL     1       1.423   5.843  20.631  0.00  0.00    +0.000 F 
BRANCH  23  26
ATOM     26  C   UNL     1       1.512   3.529  20.239  0.00  0.00    +0.000 C 
ATOM     27  F   UNL     1       0.151   3.634  20.229  0.00  0.00    +0.000 F 
ATOM     28  F   UNL     1       1.814   2.668  19.225  0.00  0.00    +0.000 F 
BRANCH  26  29
ATOM     29  C   UNL     1       1.987   2.961  21.569  0.00  0.00    +0.000 C 
ATOM     30  F   UNL     1       1.080   2.177  22.192  0.00  0.00    +0.000 F 
ATOM     31  F   UNL     1       3.108   2.210  21.417  0.00  0.00    +0.000 F 
ATOM     32  F   UNL     1       2.311   3.948  22.442  0.00  0.00    +0.000 F 
ENDBRANCH  26  29
ENDBRANCH  23  26
ENDBRANCH  20  23
ENDBRANCH  17  20
ENDBRANCH   1  17
TORSDOF 7
ENDMDL
MODEL 3
REMARK VINA RESULT:      -8.9      3.103      6.600
REMARK  Name = 
REMARK  7 active torsions:
REMARK  status: ('A' for Active; 'I' for Inactive)
REMARK    1  A    between atoms: C_2  and  C_10
REMARK    2  A    between atoms: C_10  and  C_13
REMARK    3  A    between atoms: C_13  and  C_16
REMARK    4  A    between atoms: C_16  and  C_19
REMARK    5  A    between atoms: C_19  and  C_22
REMARK    6  A    between atoms: C_22  and  C_25
REMARK    7  A    between atoms: C_25  and  C_28
REMARK                            x       y       z     vdW  Elec       q    Type
REMARK                         _______ _______ _______ _____ _____    ______ ____
ROOT
ATOM      1  C   UNL     1       2.544   3.041  19.071  0.00  0.00    +0.000 C 
ATOM      2  F   UNL     1       2.171   1.794  19.475  0.00  0.00    +0.000 F 
ATOM      3  F   UNL     1       1.474   3.571  18.414  0.00  0.00    +0.000 F 
ENDROOT
BRANCH   1   4
ATOM      4  C   UNL     1       2.908   3.900  20.281  0.00  0.00    +0.000 C 
ATOM      5  F   UNL     1       4.224   4.269  20.222  0.00  0.00    +0.000 F 
ATOM      6  F   UNL     1       2.805   3.157  21.426  0.00  0.00    +0.000 F 
BRANCH   4   8
ATOM      7  O   UNL     1       0.805   5.083  20.656  0.00  0.00    +0.000 OA
ATOM      8  C   UNL     1       2.013   5.147  20.397  0.00  0.00    +0.000 C 
ATOM      9  N   UNL     1       2.671   6.358  20.163  0.00  0.00    +0.000 N 
ATOM     10  C   UNL     1       1.948   7.559  20.059  0.00  0.00    +0.000 A 
ATOM     11  C   UNL     1       1.209   8.037  21.133  0.00  0.00    +0.000 A 
ATOM     12  C   UNL     1       0.517   9.243  20.994  0.00  0.00    +0.000 A 
ATOM     13  C   UNL     1       0.555   9.909  19.777  0.00  0.00    +0.000 A 
ATOM     14  C   UNL     1       1.330   9.359  18.765  0.00  0.00    +0.000 A 
ATOM     15  N   UNL     1       2.063   8.226  18.896  0.00  0.00    +0.000 NA
ATOM     16  H   UNL     1       3.468   6.318  19.531  0.00  0.00    +0.000 HD
ENDBRANCH   4   8
ENDBRANCH   1   4
BRANCH   1  17
ATOM     17  C   UNL     1       3.715   2.929  18.105  0.00  0.00    +0.000 C 
ATOM     18  F   UNL     1       4.886   3.136  18.769  0.00  0.00    +0.000 F 
ATOM     19  F   UNL     1       3.791   1.667  17.602  0.00  0.00    +0.000 F 
BRANCH  17  20
ATOM     20  C   UNL     1       3.591   3.925  16.961  0.00  0.00    +0.000 C 
ATOM     21  F   UNL     1       2.697   3.467  16.043  0.00  0.00    +0.000 F 
ATOM     22  F   UNL     1       3.089   5.104  17.419  0.00  0.00    +0.000 F 
BRANCH  20  23
ATOM     23  C   UNL     1       4.933   4.171  16.296  0.00  0.00    +0.000 C 
ATOM     24  F   UNL     1       5.788   3.154  16.590  0.00  0.00    +0.000 F 
ATOM     25  F   UNL     1       4.794   4.174  14.941  0.00  0.00    +0.000 F 
BRANCH  23  26
ATOM     26  C   UNL     1       5.530   5.485  16.745  0.00  0.00    +0.000 C 
ATOM     27  F   UNL     1       4.996   6.517  16.029  0.00  0.00    +0.000 F 
ATOM     28  F   UNL     1       5.200   5.740  18.044  0.00  0.00    +0.000 F 
BRANCH  26  29
ATOM     29  C   UNL     1       7.044   5.459  16.584  0.00  0.00    +0.000 C 
ATOM     30  F   UNL     1       7.635   6.667  16.715  0.00  0.00    +0.000 F 
ATOM     31  F   UNL     1       7.627   4.640  17.496  0.00  0.00    +0.000 F 
ATOM     32  F   UNL     1       7.403   4.981  15.365  0.00  0.00    +0.000 F 
ENDBRANCH  26  29
ENDBRANCH  23  26
ENDBRANCH  20  23
ENDBRANCH  17  20
ENDBRANCH   1  17
TORSDOF 7
ENDMDL
MODEL 4
REMARK VINA RESULT:      -8.9      1.244      2.244
REMARK  Name = 
REMARK  7 active torsions:
REMARK  status: ('A' for Active; 'I' for Inactive)
REMARK    1  A    between atoms: C_2  and  C_10
REMARK    2  A    between atoms: C_10  and  C_13
REMARK    3  A    between atoms: C_13  and  C_16
REMARK    4  A    between atoms: C_16  and  C_19
REMARK    5  A    between atoms: C_19  and  C_22
REMARK    6  A    between atoms: C_22  and  C_25
REMARK    7  A    between atoms: C_25  and  C_28
REMARK                            x       y       z     vdW  Elec       q    Type
REMARK                         _______ _______ _______ _____ _____    ______ ____
ROOT
ATOM      1  C   UNL     1       5.652   5.983  17.217  0.00  0.00    +0.000 C 
ATOM      2  F   UNL     1       6.105   7.177  17.691  0.00  0.00    +0.000 F 
ATOM      3  F   UNL     1       4.678   6.271  16.309  0.00  0.00    +0.000 F 
ENDROOT
BRANCH   1   4
ATOM      4  C   UNL     1       6.793   5.214  16.553  0.00  0.00    +0.000 C 
ATOM      5  F   UNL     1       7.499   4.509  17.489  0.00  0.00    +0.000 F 
ATOM      6  F   UNL     1       7.699   6.092  16.021  0.00  0.00    +0.000 F 
BRANCH   4   8
ATOM      7  O   UNL     1       5.662   3.228  15.691  0.00  0.00    +0.000 OA
ATOM      8  C   UNL     1       6.288   4.267  15.448  0.00  0.00    +0.000 C 
ATOM      9  N   UNL     1       6.614   4.666  14.149  0.00  0.00    +0.000 N 
ATOM     10  C   UNL     1       6.376   3.813  13.056  0.00  0.00    +0.000 A 
ATOM     11  C   UNL     1       5.085   3.418  12.733  0.00  0.00    +0.000 A 
ATOM     12  C   UNL     1       4.889   2.582  11.631  0.00  0.00    +0.000 A 
ATOM     13  C   UNL     1       5.991   2.140  10.912  0.00  0.00    +0.000 A 
ATOM     14  C   UNL     1       7.242   2.598  11.304  0.00  0.00    +0.000 A 
ATOM     15  N   UNL     1       7.452   3.460  12.329  0.00  0.00    +0.000 NA
ATOM     16  H   UNL     1       7.469   5.209  14.050  0.00  0.00    +0.000 HD
ENDBRANCH   4   8
ENDBRANCH   1   4
BRANCH   1  17
ATOM     17  C   UNL     1       5.045   5.183  18.361  0.00  0.00    +0.000 C 
ATOM     18  F   UNL     1       5.605   3.944  18.410  0.00  0.00    +0.000 F 
ATOM     19  F   UNL     1       5.337   5.771  19.553  0.00  0.00    +0.000 F 
BRANCH  17  20
ATOM     20  C   UNL     1       3.534   5.059  18.213  0.00  0.00    +0.000 C 
ATOM     21  F   UNL     1       2.986   6.288  18.014  0.00  0.00    +0.000 F 
ATOM     22  F   UNL     1       3.231   4.327  17.108  0.00  0.00    +0.000 F 
BRANCH  20  23
ATOM     23  C   UNL     1       2.912   4.409  19.436  0.00  0.00    +0.000 C 
ATOM     24  F   UNL     1       3.678   3.359  19.842  0.00  0.00    +0.000 F 
ATOM     25  F   UNL     1       2.888   5.289  20.476  0.00  0.00    +0.000 F 
BRANCH  23  26
ATOM     26  C   UNL     1       1.508   3.933  19.144  0.00  0.00    +0.000 C 
ATOM     27  F   UNL     1       0.649   4.374  20.110  0.00  0.00    +0.000 F 
ATOM     28  F   UNL     1       1.051   4.479  17.980  0.00  0.00    +0.000 F 
BRANCH  26  29
ATOM     29  C   UNL     1       1.472   2.413  19.061  0.00  0.00    +0.000 C 
ATOM     30  F   UNL     1       2.425   1.881  18.264  0.00  0.00    +0.000 F 
ATOM     31  F   UNL     1       1.627   1.845  20.284  0.00  0.00    +0.000 F 
ATOM     32  F   UNL     1       0.279   1.972  18.588  0.00  0.00    +0.000 F 
ENDBRANCH  26  29
ENDBRANCH  23  26
ENDBRANCH  20  23
ENDBRANCH  17  20
ENDBRANCH   1  17
TORSDOF 7
ENDMDL
MODEL 5
REMARK VINA RESULT:      -8.8      0.838      1.595
REMARK  Name = 
REMARK  7 active torsions:
REMARK  status: ('A' for Active; 'I' for Inactive)
REMARK    1  A    between atoms: C_2  and  C_10
REMARK    2  A    between atoms: C_10  and  C_13
REMARK    3  A    between atoms: C_13  and  C_16
REMARK    4  A    between atoms: C_16  and  C_19
REMARK    5  A    between atoms: C_19  and  C_22
REMARK    6  A    between atoms: C_22  and  C_25
REMARK    7  A    between atoms: C_25  and  C_28
REMARK                            x       y       z     vdW  Elec       q    Type
REMARK                         _______ _______ _______ _____ _____    ______ ____
ROOT
ATOM      1  C   UNL     1       5.749   5.227  18.783  0.00  0.00    +0.000 C 
ATOM      2  F   UNL     1       6.145   3.927  18.879  0.00  0.00    +0.000 F 
ATOM      3  F   UNL     1       6.140   5.837  19.936  0.00  0.00    +0.000 F 
ENDROOT
BRANCH   1   4
ATOM      4  C   UNL     1       6.409   5.891  17.575  0.00  0.00    +0.000 C 
ATOM      5  F   UNL     1       7.683   6.280  17.886  0.00  0.00    +0.000 F 
ATOM      6  F   UNL     1       5.755   7.053  17.268  0.00  0.00    +0.000 F 
BRANCH   4   8
ATOM      7  O   UNL     1       6.540   3.740  16.426  0.00  0.00    +0.000 OA
ATOM      8  C   UNL     1       6.424   4.969  16.342  0.00  0.00    +0.000 C 
ATOM      9  N   UNL     1       6.318   5.635  15.118  0.00  0.00    +0.000 N 
ATOM     10  C   UNL     1       6.495   4.943  13.908  0.00  0.00    +0.000 A 
ATOM     11  C   UNL     1       5.641   3.910  13.548  0.00  0.00    +0.000 A 
ATOM     12  C   UNL     1       5.842   3.258  12.330  0.00  0.00    +0.000 A 
ATOM     13  C   UNL     1       6.912   3.633  11.529  0.00  0.00    +0.000 A 
ATOM     14  C   UNL     1       7.707   4.685  11.967  0.00  0.00    +0.000 A 
ATOM     15  N   UNL     1       7.492   5.376  13.113  0.00  0.00    +0.000 NA
ATOM     16  H   UNL     1       6.688   6.583  15.092  0.00  0.00    +0.000 HD
ENDBRANCH   4   8
ENDBRANCH   1   4
BRANCH   1  17
ATOM     17  C   UNL     1       4.231   5.285  18.679  0.00  0.00    +0.000 C 
ATOM     18  F   UNL     1       3.742   6.216  19.544  0.00  0.00    +0.000 F 
ATOM     19  F   UNL     1       3.861   5.699  17.437  0.00  0.00    +0.000 F 
BRANCH  17  20
ATOM     20  C   UNL     1       3.601   3.931  18.972  0.00  0.00    +0.000 C 
ATOM     21  F   UNL     1       3.792   3.093  17.916  0.00  0.00    +0.000 F 
ATOM     22  F   UNL     1       4.218   3.346  20.034  0.00  0.00    +0.000 F 
BRANCH  20  23
ATOM     23  C   UNL     1       2.116   4.064  19.261  0.00  0.00    +0.000 C 
ATOM     24  F   UNL     1       1.893   5.163  20.034  0.00  0.00    +0.000 F 
ATOM     25  F   UNL     1       1.427   4.266  18.103  0.00  0.00    +0.000 F 
BRANCH  23  26
ATOM     26  C   UNL     1       1.585   2.834  19.958  0.00  0.00    +0.000 C 
ATOM     27  F   UNL     1       0.248   2.693  19.715  0.00  0.00    +0.000 F 
ATOM     28  F   UNL     1       2.163   1.708  19.447  0.00  0.00    +0.000 F 
BRANCH  26  29
ATOM     29  C   UNL     1       1.842   2.922  21.456  0.00  0.00    +0.000 C 
ATOM     30  F   UNL     1       2.862   2.148  21.889  0.00  0.00    +0.000 F 
ATOM     31  F   UNL     1       2.132   4.193  21.835  0.00  0.00    +0.000 F 
ATOM     32  F   UNL     1       0.746   2.557  22.169  0.00  0.00    +0.000 F 
ENDBRANCH  26  29
ENDBRANCH  23  26
ENDBRANCH  20  23
ENDBRANCH  17  20
ENDBRANCH   1  17
TORSDOF 7
ENDMDL
MODEL 6
REMARK VINA RESULT:      -8.8      1.002      1.998
REMARK  Name = 
REMARK  7 active torsions:
REMARK  status: ('A' for Active; 'I' for Inactive)
REMARK    1  A    between atoms: C_2  and  C_10
REMARK    2  A    between atoms: C_10  and  C_13
REMARK    3  A    between atoms: C_13  and  C_16
REMARK    4  A    between atoms: C_16  and  C_19
REMARK    5  A    between atoms: C_19  and  C_22
REMARK    6  A    between atoms: C_22  and  C_25
REMARK    7  A    between atoms: C_25  and  C_28
REMARK                            x       y       z     vdW  Elec       q    Type
REMARK                         _______ _______ _______ _____ _____    ______ ____
ROOT
ATOM      1  C   UNL     1       6.232   5.391  18.797  0.00  0.00    +0.000 C 
ATOM      2  F   UNL     1       6.317   4.031  18.800  0.00  0.00    +0.000 F 
ATOM      3  F   UNL     1       6.662   5.808  20.020  0.00  0.00    +0.000 F 
ENDROOT
BRANCH   1   4
ATOM      4  C   UNL     1       7.115   5.971  17.693  0.00  0.00    +0.000 C 
ATOM      5  F   UNL     1       8.381   6.187  18.163  0.00  0.00    +0.000 F 
ATOM      6  F   UNL     1       6.659   7.211  17.336  0.00  0.00    +0.000 F 
BRANCH   4   8
ATOM      7  O   UNL     1       7.634   3.921  16.470  0.00  0.00    +0.000 OA
ATOM      8  C   UNL     1       7.160   5.064  16.449  0.00  0.00    +0.000 C 
ATOM      9  N   UNL     1       6.642   5.645  15.288  0.00  0.00    +0.000 N 
ATOM     10  C   UNL     1       6.779   5.006  14.044  0.00  0.00    +0.000 A 
ATOM     11  C   UNL     1       6.201   3.764  13.817  0.00  0.00    +0.000 A 
ATOM     12  C   UNL     1       6.348   3.169  12.561  0.00  0.00    +0.000 A 
ATOM     13  C   UNL     1       7.097   3.816  11.589  0.00  0.00    +0.000 A 
ATOM     14  C   UNL     1       7.627   5.060  11.904  0.00  0.00    +0.000 A 
ATOM     15  N   UNL     1       7.444   5.687  13.092  0.00  0.00    +0.000 NA
ATOM     16  H   UNL     1       6.716   6.658  15.225  0.00  0.00    +0.000 HD
ENDBRANCH   4   8
ENDBRANCH   1   4
BRANCH   1  17
ATOM     17  C   UNL     1       4.779   5.805  18.612  0.00  0.00    +0.000 C 
ATOM     18  F   UNL     1       4.274   6.265  19.790  0.00  0.00    +0.000 F 
ATOM     19  F   UNL     1       4.695   6.845  17.739  0.00  0.00    +0.000 F 
BRANCH  17  20
ATOM     20  C   UNL     1       3.930   4.647  18.107  0.00  0.00    +0.000 C 
ATOM     21  F   UNL     1       4.071   4.524  16.759  0.00  0.00    +0.000 F 
ATOM     22  F   UNL     1       4.370   3.476  18.641  0.00  0.00    +0.000 F 
BRANCH  20  23
ATOM     23  C   UNL     1       2.466   4.844  18.456  0.00  0.00    +0.000 C 
ATOM     24  F   UNL     1       2.316   4.898  19.808  0.00  0.00    +0.000 F 
ATOM     25  F   UNL     1       2.023   6.039  17.974  0.00  0.00    +0.000 F 
BRANCH  23  26
ATOM     26  C   UNL     1       1.618   3.726  17.894  0.00  0.00    +0.000 C 
ATOM     27  F   UNL     1       0.597   4.238  17.146  0.00  0.00    +0.000 F 
ATOM     28  F   UNL     1       2.347   2.961  17.032  0.00  0.00    +0.000 F 
BRANCH  26  29
ATOM     29  C   UNL     1       1.064   2.865  19.022  0.00  0.00    +0.000 C 
ATOM     30  F   UNL     1       2.009   2.211  19.733  0.00  0.00    +0.000 F 
ATOM     31  F   UNL     1       0.354   3.607  19.910  0.00  0.00    +0.000 F 
ATOM     32  F   UNL     1       0.210   1.922  18.550  0.00  0.00    +0.000 F 
ENDBRANCH  26  29
ENDBRANCH  23  26
ENDBRANCH  20  23
ENDBRANCH  17  20
ENDBRANCH   1  17
TORSDOF 7
ENDMDL
MODEL 7
REMARK VINA RESULT:      -8.8      0.488      1.017
REMARK  Name = 
REMARK  7 active torsions:
REMARK  status: ('A' for Active; 'I' for Inactive)
REMARK    1  A    between atoms: C_2  and  C_10
REMARK    2  A    between atoms: C_10  and  C_13
REMARK    3  A    between atoms: C_13  and  C_16
REMARK    4  A    between atoms: C_16  and  C_19
REMARK    5  A    between atoms: C_19  and  C_22
REMARK    6  A    between atoms: C_22  and  C_25
REMARK    7  A    between atoms: C_25  and  C_28
REMARK                            x       y       z     vdW  Elec       q    Type
REMARK                         _______ _______ _______ _____ _____    ______ ____
ROOT
ATOM      1  C   UNL     1       5.544   5.349  18.575  0.00  0.00    +0.000 C 
ATOM      2  F   UNL     1       5.516   4.032  18.924  0.00  0.00    +0.000 F 
ATOM      3  F   UNL     1       5.625   6.056  19.737  0.00  0.00    +0.000 F 
ENDROOT
BRANCH   1   4
ATOM      4  C   UNL     1       6.757   5.633  17.690  0.00  0.00    +0.000 C 
ATOM      5  F   UNL     1       7.914   5.407  18.385  0.00  0.00    +0.000 F 
ATOM      6  F   UNL     1       6.798   6.963  17.370  0.00  0.00    +0.000 F 
BRANCH   4   8
ATOM      7  O   UNL     1       6.909   3.568  16.395  0.00  0.00    +0.000 OA
ATOM      8  C   UNL     1       6.742   4.795  16.399  0.00  0.00    +0.000 C 
ATOM      9  N   UNL     1       6.549   5.535  15.229  0.00  0.00    +0.000 N 
ATOM     10  C   UNL     1       6.689   4.931  13.967  0.00  0.00    +0.000 A 
ATOM     11  C   UNL     1       5.857   3.889  13.582  0.00  0.00    +0.000 A 
ATOM     12  C   UNL     1       6.019   3.326  12.314  0.00  0.00    +0.000 A 
ATOM     13  C   UNL     1       7.032   3.797  11.489  0.00  0.00    +0.000 A 
ATOM     14  C   UNL     1       7.808   4.849  11.956  0.00  0.00    +0.000 A 
ATOM     15  N   UNL     1       7.627   5.455  13.156  0.00  0.00    +0.000 NA
ATOM     16  H   UNL     1       6.882   6.496  15.249  0.00  0.00    +0.000 HD
ENDBRANCH   4   8
ENDBRANCH   1   4
BRANCH   1  17
ATOM     17  C   UNL     1       4.249   5.710  17.862  0.00  0.00    +0.000 C 
ATOM     18  F   UNL     1       4.390   6.899  17.215  0.00  0.00    +0.000 F 
ATOM     19  F   UNL     1       3.971   4.791  16.897  0.00  0.00    +0.000 F 
BRANCH  17  20
ATOM     20  C   UNL     1       3.081   5.791  18.836  0.00  0.00    +0.000 C 
ATOM     21  F   UNL     1       3.527   6.186  20.060  0.00  0.00    +0.000 F 
ATOM     22  F   UNL     1       2.199   6.744  18.431  0.00  0.00    +0.000 F 
BRANCH  20  23
ATOM     23  C   UNL     1       2.367   4.457  18.953  0.00  0.00    +0.000 C 
ATOM     24  F   UNL     1       1.390   4.371  18.008  0.00  0.00    +0.000 F 
ATOM     25  F   UNL     1       3.232   3.435  18.702  0.00  0.00    +0.000 F 
BRANCH  23  26
ATOM     26  C   UNL     1       1.762   4.282  20.327  0.00  0.00    +0.000 C 
ATOM     27  F   UNL     1       2.716   4.460  21.288  0.00  0.00    +0.000 F 
ATOM     28  F   UNL     1       0.828   5.248  20.564  0.00  0.00    +0.000 F 
BRANCH  26  29
ATOM     29  C   UNL     1       1.134   2.901  20.456  0.00  0.00    +0.000 C 
ATOM     30  F   UNL     1       0.869   2.531  21.728  0.00  0.00    +0.000 F 
ATOM     31  F   UNL     1      -0.039   2.824  19.776  0.00  0.00    +0.000 F 
ATOM     32  F   UNL     1       1.938   1.942  19.930  0.00  0.00    +0.000 F 
ENDBRANCH  26  29
ENDBRANCH  23  26
ENDBRANCH  20  23
ENDBRANCH  17  20
ENDBRANCH   1  17
TORSDOF 7
ENDMDL
MODEL 8
REMARK VINA RESULT:      -8.8      1.414      2.352
REMARK  Name = 
REMARK  7 active torsions:
REMARK  status: ('A' for Active; 'I' for Inactive)
REMARK    1  A    between atoms: C_2  and  C_10
REMARK    2  A    between atoms: C_10  and  C_13
REMARK    3  A    between atoms: C_13  and  C_16
REMARK    4  A    between atoms: C_16  and  C_19
REMARK    5  A    between atoms: C_19  and  C_22
REMARK    6  A    between atoms: C_22  and  C_25
REMARK    7  A    between atoms: C_25  and  C_28
REMARK                            x       y       z     vdW  Elec       q    Type
REMARK                         _______ _______ _______ _____ _____    ______ ____
ROOT
ATOM      1  C   UNL     1       5.540   6.022  17.128  0.00  0.00    +0.000 C 
ATOM      2  F   UNL     1       5.576   7.287  17.633  0.00  0.00    +0.000 F 
ATOM      3  F   UNL     1       4.695   6.055  16.060  0.00  0.00    +0.000 F 
ENDROOT
BRANCH   1   4
ATOM      4  C   UNL     1       6.939   5.591  16.691  0.00  0.00    +0.000 C 
ATOM      5  F   UNL     1       7.414   4.610  17.518  0.00  0.00    +0.000 F 
ATOM      6  F   UNL     1       7.816   6.630  16.845  0.00  0.00    +0.000 F 
BRANCH   4   8
ATOM      7  O   UNL     1       7.707   5.611  14.372  0.00  0.00    +0.000 OA
ATOM      8  C   UNL     1       6.967   5.109  15.229  0.00  0.00    +0.000 C 
ATOM      9  N   UNL     1       6.072   4.075  14.941  0.00  0.00    +0.000 N 
ATOM     10  C   UNL     1       5.861   3.657  13.615  0.00  0.00    +0.000 A 
ATOM     11  C   UNL     1       6.900   3.121  12.866  0.00  0.00    +0.000 A 
ATOM     12  C   UNL     1       6.645   2.704  11.557  0.00  0.00    +0.000 A 
ATOM     13  C   UNL     1       5.372   2.872  11.029  0.00  0.00    +0.000 A 
ATOM     14  C   UNL     1       4.395   3.407  11.858  0.00  0.00    +0.000 A 
ATOM     15  N   UNL     1       4.602   3.758  13.151  0.00  0.00    +0.000 NA
ATOM     16  H   UNL     1       5.227   4.046  15.506  0.00  0.00    +0.000 HD
ENDBRANCH   4   8
ENDBRANCH   1   4
BRANCH   1  17
ATOM     17  C   UNL     1       4.978   5.075  18.179  0.00  0.00    +0.000 C 
ATOM     18  F   UNL     1       5.459   3.818  17.976  0.00  0.00    +0.000 F 
ATOM     19  F   UNL     1       5.403   5.442  19.418  0.00  0.00    +0.000 F 
BRANCH  17  20
ATOM     20  C   UNL     1       3.456   5.052  18.149  0.00  0.00    +0.000 C 
ATOM     21  F   UNL     1       2.975   6.323  18.078  0.00  0.00    +0.000 F 
ATOM     22  F   UNL     1       3.018   4.420  17.028  0.00  0.00    +0.000 F 
BRANCH  20  23
ATOM     23  C   UNL     1       2.891   4.356  19.375  0.00  0.00    +0.000 C 
ATOM     24  F   UNL     1       3.678   3.296  19.708  0.00  0.00    +0.000 F 
ATOM     25  F   UNL     1       2.911   5.198  20.446  0.00  0.00    +0.000 F 
BRANCH  23  26
ATOM     26  C   UNL     1       1.477   3.884  19.129  0.00  0.00    +0.000 C 
ATOM     27  F   UNL     1       0.662   4.283  20.150  0.00  0.00    +0.000 F 
ATOM     28  F   UNL     1       0.965   4.472  18.010  0.00  0.00    +0.000 F 
BRANCH  26  29
ATOM     29  C   UNL     1       1.443   2.369  18.989  0.00  0.00    +0.000 C 
ATOM     30  F   UNL     1       0.256   1.878  18.569  0.00  0.00    +0.000 F 
ATOM     31  F   UNL     1       2.377   1.931  18.106  0.00  0.00    +0.000 F 
ATOM     32  F   UNL     1       1.722   1.756  20.167  0.00  0.00    +0.000 F 
ENDBRANCH  26  29
ENDBRANCH  23  26
ENDBRANCH  20  23
ENDBRANCH  17  20
ENDBRANCH   1  17
TORSDOF 7
ENDMDL
MODEL 9
REMARK VINA RESULT:      -8.7      1.389      2.261
REMARK  Name = 
REMARK  7 active torsions:
REMARK  status: ('A' for Active; 'I' for Inactive)
REMARK    1  A    between atoms: C_2  and  C_10
REMARK    2  A    between atoms: C_10  and  C_13
REMARK    3  A    between atoms: C_13  and  C_16
REMARK    4  A    between atoms: C_16  and  C_19
REMARK    5  A    between atoms: C_19  and  C_22
REMARK    6  A    between atoms: C_22  and  C_25
REMARK    7  A    between atoms: C_25  and  C_28
REMARK                            x       y       z     vdW  Elec       q    Type
REMARK                         _______ _______ _______ _____ _____    ______ ____
ROOT
ATOM      1  C   UNL     1       5.650   5.864  17.182  0.00  0.00    +0.000 C 
ATOM      2  F   UNL     1       5.477   7.201  17.383  0.00  0.00    +0.000 F 
ATOM      3  F   UNL     1       4.720   5.488  16.259  0.00  0.00    +0.000 F 
ENDROOT
BRANCH   1   4
ATOM      4  C   UNL     1       7.060   5.587  16.663  0.00  0.00    +0.000 C 
ATOM      5  F   UNL     1       7.680   4.656  17.450  0.00  0.00    +0.000 F 
ATOM      6  F   UNL     1       7.830   6.713  16.784  0.00  0.00    +0.000 F 
BRANCH   4   8
ATOM      7  O   UNL     1       7.750   5.660  14.322  0.00  0.00    +0.000 OA
ATOM      8  C   UNL     1       7.058   5.123  15.196  0.00  0.00    +0.000 C 
ATOM      9  N   UNL     1       6.192   4.059  14.924  0.00  0.00    +0.000 N 
ATOM     10  C   UNL     1       5.953   3.648  13.601  0.00  0.00    +0.000 A 
ATOM     11  C   UNL     1       6.985   3.159  12.813  0.00  0.00    +0.000 A 
ATOM     12  C   UNL     1       6.704   2.747  11.508  0.00  0.00    +0.000 A 
ATOM     13  C   UNL     1       5.409   2.873  11.023  0.00  0.00    +0.000 A 
ATOM     14  C   UNL     1       4.441   3.364  11.889  0.00  0.00    +0.000 A 
ATOM     15  N   UNL     1       4.676   3.708  13.179  0.00  0.00    +0.000 NA
ATOM     16  H   UNL     1       5.367   3.993  15.516  0.00  0.00    +0.000 HD
ENDBRANCH   4   8
ENDBRANCH   1   4
BRANCH   1  17
ATOM     17  C   UNL     1       5.388   5.120  18.484  0.00  0.00    +0.000 C 
ATOM     18  F   UNL     1       5.783   3.823  18.365  0.00  0.00    +0.000 F 
ATOM     19  F   UNL     1       6.140   5.648  19.486  0.00  0.00    +0.000 F 
BRANCH  17  20
ATOM     20  C   UNL     1       3.916   5.175  18.870  0.00  0.00    +0.000 C 
ATOM     21  F   UNL     1       3.785   5.700  20.118  0.00  0.00    +0.000 F 
ATOM     22  F   UNL     1       3.244   6.013  18.036  0.00  0.00    +0.000 F 
BRANCH  20  23
ATOM     23  C   UNL     1       3.282   3.796  18.821  0.00  0.00    +0.000 C 
ATOM     24  F   UNL     1       3.656   3.156  17.679  0.00  0.00    +0.000 F 
ATOM     25  F   UNL     1       3.734   3.032  19.854  0.00  0.00    +0.000 F 
BRANCH  23  26
ATOM     26  C   UNL     1       1.775   3.889  18.882  0.00  0.00    +0.000 C 
ATOM     27  F   UNL     1       1.397   4.883  19.738  0.00  0.00    +0.000 F 
ATOM     28  F   UNL     1       1.269   4.248  17.667  0.00  0.00    +0.000 F 
BRANCH  26  29
ATOM     29  C   UNL     1       1.182   2.558  19.325  0.00  0.00    +0.000 C 
ATOM     30  F   UNL     1       1.996   1.498  19.130  0.00  0.00    +0.000 F 
ATOM     31  F   UNL     1       0.868   2.569  20.645  0.00  0.00    +0.000 F 
ATOM     32  F   UNL     1       0.027   2.287  18.665  0.00  0.00    +0.000 F 
ENDBRANCH  26  29
ENDBRANCH  23  26
ENDBRANCH  20  23
ENDBRANCH  17  20
ENDBRANCH   1  17
TORSDOF 7
ENDMDL
