MODEL 1
REMARK VINA RESULT:      -8.3      0.000      0.000
REMARK  Name = 
REMARK  3 active torsions:
REMARK  status: ('A' for Active; 'I' for Inactive)
REMARK    1  A    between atoms: C_2  and  C_15
REMARK    2  A    between atoms: N_3  and  C_4
REMARK    3  A    between atoms: C_4  and  C_5
REMARK                            x       y       z     vdW  Elec       q    Type
REMARK                         _______ _______ _______ _____ _____    ______ ____
ROOT
ATOM      1  O   UNL     1       1.458   8.989  18.555  0.00  0.00    +0.000 OA
ATOM      2  C   UNL     1       1.423   8.651  19.732  0.00  0.00    +0.000 C 
ATOM      3  N   UNL     1       2.081   7.526  20.192  0.00  0.00    +0.000 N 
ATOM      4  H   UNL     1       1.916   7.190  21.130  0.00  0.00    +0.000 HD
ENDROOT
BRANCH   2   5
ATOM      5  C   UNL     1       0.676   9.455  20.737  0.00  0.00    +0.000 A 
ATOM      6  C   UNL     1       0.106   8.800  21.848  0.00  0.00    +0.000 A 
ATOM      7  C   UNL     1      -0.568   9.526  22.832  0.00  0.00    +0.000 A 
ATOM      8  C   UNL     1      -0.673  10.909  22.729  0.00  0.00    +0.000 A 
ATOM      9  C   UNL     1      -0.103  11.568  21.638  0.00  0.00    +0.000 A 
ATOM     10  C   UNL     1       0.568  10.852  20.643  0.00  0.00    +0.000 A 
ATOM     11 BR   UNL     1       1.237  11.886  19.191  0.00  0.00    +0.000 Br
ENDBRANCH   2   5
BRANCH   3  12
ATOM     12  C   UNL     1       2.850   6.687  19.286  0.00  0.00    +0.000 C 
BRANCH  12  13
ATOM     13  C   UNL     1       2.568   5.172  19.425  0.00  0.00    +0.000 C 
ATOM     14  C   UNL     1       1.582   4.898  20.587  0.00  0.00    +0.000 C 
ATOM     15  C   UNL     1       1.272   3.394  20.699  0.00  0.00    +0.000 C 
ATOM     16  C   UNL     1       0.640   2.908  19.385  0.00  0.00    +0.000 C 
ATOM     17  C   UNL     1       1.608   3.147  18.215  0.00  0.00    +0.000 C 
ATOM     18  C   UNL     1       2.915   2.379  18.471  0.00  0.00    +0.000 C 
ATOM     19  C   UNL     1       3.553   2.852  19.784  0.00  0.00    +0.000 C 
ATOM     20  C   UNL     1       2.577   2.623  20.948  0.00  0.00    +0.000 C 
ATOM     21  C   UNL     1       3.861   4.352  19.678  0.00  0.00    +0.000 C 
ATOM     22  C   UNL     1       1.917   4.652  18.112  0.00  0.00    +0.000 C 
ENDBRANCH  12  13
ENDBRANCH   3  12
TORSDOF 3
ENDMDL
MODEL 2
REMARK VINA RESULT:      -8.3      0.077      1.629
REMARK  Name = 
REMARK  3 active torsions:
REMARK  status: ('A' for Active; 'I' for Inactive)
REMARK    1  A    between atoms: C_2  and  C_15
REMARK    2  A    between atoms: N_3  and  C_4
REMARK    3  A    between atoms: C_4  and  C_5
REMARK                            x       y       z     vdW  Elec       q    Type
REMARK                         _______ _______ _______ _____ _____    ______ ____
ROOT
ATOM      1  O   UNL     1       1.386   8.902  18.492  0.00  0.00    +0.000 OA
ATOM      2  C   UNL     1       1.417   8.615  19.682  0.00  0.00    +0.000 C 
ATOM      3  N   UNL     1       2.137   7.534  20.156  0.00  0.00    +0.000 N 
ATOM      4  H   UNL     1       2.028   7.233  21.114  0.00  0.00    +0.000 HD
ENDROOT
BRANCH   2   5
ATOM      5  C   UNL     1       0.686   9.433  20.688  0.00  0.00    +0.000 A 
ATOM      6  C   UNL     1       0.108   8.791  21.801  0.00  0.00    +0.000 A 
ATOM      7  C   UNL     1      -0.551   9.530  22.785  0.00  0.00    +0.000 A 
ATOM      8  C   UNL     1      -0.631  10.915  22.679  0.00  0.00    +0.000 A 
ATOM      9  C   UNL     1      -0.054  11.562  21.586  0.00  0.00    +0.000 A 
ATOM     10  C   UNL     1       0.603  10.832  20.590  0.00  0.00    +0.000 A 
ATOM     11 BR   UNL     1       1.286  11.851  19.135  0.00  0.00    +0.000 Br
ENDBRANCH   2   5
BRANCH   3  12
ATOM     12  C   UNL     1       2.895   6.686  19.251  0.00  0.00    +0.000 C 
BRANCH  12  13
ATOM     13  C   UNL     1       2.583   5.175  19.380  0.00  0.00    +0.000 C 
ATOM     14  C   UNL     1       3.864   4.373  19.716  0.00  0.00    +0.000 C 
ATOM     15  C   UNL     1       3.544   2.877  19.882  0.00  0.00    +0.000 C 
ATOM     16  C   UNL     1       2.532   2.699  21.025  0.00  0.00    +0.000 C 
ATOM     17  C   UNL     1       1.239   3.468  20.709  0.00  0.00    +0.000 C 
ATOM     18  C   UNL     1       0.636   2.930  19.401  0.00  0.00    +0.000 C 
ATOM     19  C   UNL     1       1.640   3.097  18.252  0.00  0.00    +0.000 C 
ATOM     20  C   UNL     1       2.935   2.338  18.579  0.00  0.00    +0.000 C 
ATOM     21  C   UNL     1       1.964   4.588  18.084  0.00  0.00    +0.000 C 
ATOM     22  C   UNL     1       1.567   4.963  20.538  0.00  0.00    +0.000 C 
ENDBRANCH  12  13
ENDBRANCH   3  12
TORSDOF 3
ENDMDL
MODEL 3
REMARK VINA RESULT:      -8.2      0.153      1.646
REMARK  Name = 
REMARK  3 active torsions:
REMARK  status: ('A' for Active; 'I' for Inactive)
REMARK    1  A    between atoms: C_2  and  C_15
REMARK    2  A    between atoms: N_3  and  C_4
REMARK    3  A    between atoms: C_4  and  C_5
REMARK                            x       y       z     vdW  Elec       q    Type
REMARK                         _______ _______ _______ _____ _____    ______ ____
ROOT
ATOM      1  O   UNL     1       1.285   8.988  18.398  0.00  0.00    +0.000 OA
ATOM      2  C   UNL     1       1.338   8.696  19.586  0.00  0.00    +0.000 C 
ATOM      3  N   UNL     1       2.058   7.608  20.043  0.00  0.00    +0.000 N 
ATOM      4  H   UNL     1       1.965   7.305  21.002  0.00  0.00    +0.000 HD
ENDROOT
BRANCH   2   5
ATOM      5  C   UNL     1       0.634   9.518  20.609  0.00  0.00    +0.000 A 
ATOM      6  C   UNL     1       0.075   8.877  21.733  0.00  0.00    +0.000 A 
ATOM      7  C   UNL     1      -0.556   9.619  22.733  0.00  0.00    +0.000 A 
ATOM      8  C   UNL     1      -0.629  11.005  22.632  0.00  0.00    +0.000 A 
ATOM      9  C   UNL     1      -0.070  11.650  21.527  0.00  0.00    +0.000 A 
ATOM     10  C   UNL     1       0.559  10.917  20.516  0.00  0.00    +0.000 A 
ATOM     11 BR   UNL     1       1.218  11.935  19.048  0.00  0.00    +0.000 Br
ENDBRANCH   2   5
BRANCH   3  12
ATOM     12  C   UNL     1       2.790   6.756  19.119  0.00  0.00    +0.000 C 
BRANCH  12  13
ATOM     13  C   UNL     1       2.525   5.242  19.302  0.00  0.00    +0.000 C 
ATOM     14  C   UNL     1       1.887   4.635  18.027  0.00  0.00    +0.000 C 
ATOM     15  C   UNL     1       1.661   3.122  18.197  0.00  0.00    +0.000 C 
ATOM     16  C   UNL     1       3.011   2.433  18.454  0.00  0.00    +0.000 C 
ATOM     17  C   UNL     1       3.658   3.001  19.728  0.00  0.00    +0.000 C 
ATOM     18  C   UNL     1       2.722   2.760  20.924  0.00  0.00    +0.000 C 
ATOM     19  C   UNL     1       1.368   3.438  20.676  0.00  0.00    +0.000 C 
ATOM     20  C   UNL     1       0.732   2.877  19.395  0.00  0.00    +0.000 C 
ATOM     21  C   UNL     1       1.589   4.948  20.504  0.00  0.00    +0.000 C 
ATOM     22  C   UNL     1       3.876   4.515  19.553  0.00  0.00    +0.000 C 
ENDBRANCH  12  13
ENDBRANCH   3  12
TORSDOF 3
ENDMDL
MODEL 4
REMARK VINA RESULT:      -7.8      1.417      2.478
REMARK  Name = 
REMARK  3 active torsions:
REMARK  status: ('A' for Active; 'I' for Inactive)
REMARK    1  A    between atoms: C_2  and  C_15
REMARK    2  A    between atoms: N_3  and  C_4
REMARK    3  A    between atoms: C_4  and  C_5
REMARK                            x       y       z     vdW  Elec       q    Type
REMARK                         _______ _______ _______ _____ _____    ______ ____
ROOT
ATOM      1  O   UNL     1       2.330   8.836  17.538  0.00  0.00    +0.000 OA
ATOM      2  C   UNL     1       1.740   8.628  18.590  0.00  0.00    +0.000 C 
ATOM      3  N   UNL     1       2.010   7.525  19.377  0.00  0.00    +0.000 N 
ATOM      4  H   UNL     1       1.412   7.300  20.159  0.00  0.00    +0.000 HD
ENDROOT
BRANCH   2   5
ATOM      5  C   UNL     1       0.704   9.574  19.087  0.00  0.00    +0.000 A 
ATOM      6  C   UNL     1      -0.096  10.263  18.153  0.00  0.00    +0.000 A 
ATOM      7  C   UNL     1      -1.106  11.127  18.581  0.00  0.00    +0.000 A 
ATOM      8  C   UNL     1      -1.338  11.307  19.942  0.00  0.00    +0.000 A 
ATOM      9  C   UNL     1      -0.558  10.622  20.875  0.00  0.00    +0.000 A 
ATOM     10  C   UNL     1       0.460   9.759  20.458  0.00  0.00    +0.000 A 
ATOM     11 BR   UNL     1       1.473   8.946  21.849  0.00  0.00    +0.000 Br
ENDBRANCH   2   5
BRANCH   3  12
ATOM     12  C   UNL     1       3.018   6.553  18.981  0.00  0.00    +0.000 C 
BRANCH  12  13
ATOM     13  C   UNL     1       2.631   5.082  19.263  0.00  0.00    +0.000 C 
ATOM     14  C   UNL     1       3.889   4.225  19.550  0.00  0.00    +0.000 C 
ATOM     15  C   UNL     1       3.499   2.771  19.869  0.00  0.00    +0.000 C 
ATOM     16  C   UNL     1       2.590   2.750  21.107  0.00  0.00    +0.000 C 
ATOM     17  C   UNL     1       1.320   3.575  20.844  0.00  0.00    +0.000 C 
ATOM     18  C   UNL     1       0.566   2.979  19.644  0.00  0.00    +0.000 C 
ATOM     19  C   UNL     1       1.466   2.989  18.400  0.00  0.00    +0.000 C 
ATOM     20  C   UNL     1       2.740   2.174  18.674  0.00  0.00    +0.000 C 
ATOM     21  C   UNL     1       1.861   4.438  18.081  0.00  0.00    +0.000 C 
ATOM     22  C   UNL     1       1.718   5.027  20.520  0.00  0.00    +0.000 C 
ENDBRANCH  12  13
ENDBRANCH   3  12
TORSDOF 3
ENDMDL
MODEL 5
REMARK VINA RESULT:      -7.8      2.892      4.023
REMARK  Name = 
REMARK  3 active torsions:
REMARK  status: ('A' for Active; 'I' for Inactive)
REMARK    1  A    between atoms: C_2  and  C_15
REMARK    2  A    between atoms: N_3  and  C_4
REMARK    3  A    between atoms: C_4  and  C_5
REMARK                            x       y       z     vdW  Elec       q    Type
REMARK                         _______ _______ _______ _____ _____    ______ ____
ROOT
ATOM      1  O   UNL     1       1.294   5.674  20.657  0.00  0.00    +0.000 OA
ATOM      2  C   UNL     1       1.932   6.680  20.375  0.00  0.00    +0.000 C 
ATOM      3  N   UNL     1       3.175   6.616  19.774  0.00  0.00    +0.000 N 
ATOM      4  H   UNL     1       3.740   7.449  19.687  0.00  0.00    +0.000 HD
ENDROOT
BRANCH   2   5
ATOM      5  C   UNL     1       1.387   8.036  20.655  0.00  0.00    +0.000 A 
ATOM      6  C   UNL     1       0.986   8.353  21.968  0.00  0.00    +0.000 A 
ATOM      7  C   UNL     1       0.507   9.628  22.278  0.00  0.00    +0.000 A 
ATOM      8  C   UNL     1       0.433  10.603  21.288  0.00  0.00    +0.000 A 
ATOM      9  C   UNL     1       0.836  10.303  19.987  0.00  0.00    +0.000 A 
ATOM     10  C   UNL     1       1.311   9.028  19.663  0.00  0.00    +0.000 A 
ATOM     11 BR   UNL     1       1.766   8.756  17.835  0.00  0.00    +0.000 Br
ENDBRANCH   2   5
BRANCH   3  12
ATOM     12  C   UNL     1       3.782   5.335  19.448  0.00  0.00    +0.000 C 
BRANCH  12  13
ATOM     13  C   UNL     1       4.993   5.429  18.488  0.00  0.00    +0.000 C 
ATOM     14  C   UNL     1       5.096   4.161  17.604  0.00  0.00    +0.000 C 
ATOM     15  C   UNL     1       6.277   4.274  16.623  0.00  0.00    +0.000 C 
ATOM     16  C   UNL     1       6.068   5.497  15.717  0.00  0.00    +0.000 C 
ATOM     17  C   UNL     1       5.984   6.775  16.566  0.00  0.00    +0.000 C 
ATOM     18  C   UNL     1       7.288   6.944  17.362  0.00  0.00    +0.000 C 
ATOM     19  C   UNL     1       7.512   5.725  18.268  0.00  0.00    +0.000 C 
ATOM     20  C   UNL     1       7.582   4.449  17.415  0.00  0.00    +0.000 C 
ATOM     21  C   UNL     1       6.334   5.607  19.246  0.00  0.00    +0.000 C 
ATOM     22  C   UNL     1       4.804   6.653  17.549  0.00  0.00    +0.000 C 
ENDBRANCH  12  13
ENDBRANCH   3  12
TORSDOF 3
ENDMDL
MODEL 6
REMARK VINA RESULT:      -7.8      1.392      2.302
REMARK  Name = 
REMARK  3 active torsions:
REMARK  status: ('A' for Active; 'I' for Inactive)
REMARK    1  A    between atoms: C_2  and  C_15
REMARK    2  A    between atoms: N_3  and  C_4
REMARK    3  A    between atoms: C_4  and  C_5
REMARK                            x       y       z     vdW  Elec       q    Type
REMARK                         _______ _______ _______ _____ _____    ______ ____
ROOT
ATOM      1  O   UNL     1       1.922   9.562  17.556  0.00  0.00    +0.000 OA
ATOM      2  C   UNL     1       1.489   9.240  18.656  0.00  0.00    +0.000 C 
ATOM      3  N   UNL     1       1.842   8.050  19.262  0.00  0.00    +0.000 N 
ATOM      4  H   UNL     1       1.360   7.742  20.095  0.00  0.00    +0.000 HD
ENDROOT
BRANCH   2   5
ATOM      5  C   UNL     1       0.565  10.133  19.407  0.00  0.00    +0.000 A 
ATOM      6  C   UNL     1       0.980  10.660  20.645  0.00  0.00    +0.000 A 
ATOM      7  C   UNL     1       0.157  11.533  21.359  0.00  0.00    +0.000 A 
ATOM      8  C   UNL     1      -1.083  11.899  20.844  0.00  0.00    +0.000 A 
ATOM      9  C   UNL     1      -1.500  11.390  19.613  0.00  0.00    +0.000 A 
ATOM     10  C   UNL     1      -0.687  10.510  18.893  0.00  0.00    +0.000 A 
ATOM     11 BR   UNL     1      -1.421   9.856  17.262  0.00  0.00    +0.000 Br
ENDBRANCH   2   5
BRANCH   3  12
ATOM     12  C   UNL     1       2.752   7.120  18.612  0.00  0.00    +0.000 C 
BRANCH  12  13
ATOM     13  C   UNL     1       2.532   5.637  18.996  0.00  0.00    +0.000 C 
ATOM     14  C   UNL     1       3.882   4.935  19.283  0.00  0.00    +0.000 C 
ATOM     15  C   UNL     1       3.659   3.471  19.703  0.00  0.00    +0.000 C 
ATOM     16  C   UNL     1       2.799   3.435  20.977  0.00  0.00    +0.000 C 
ATOM     17  C   UNL     1       1.441   4.107  20.716  0.00  0.00    +0.000 C 
ATOM     18  C   UNL     1       0.714   3.361  19.585  0.00  0.00    +0.000 C 
ATOM     19  C   UNL     1       1.566   3.385  18.308  0.00  0.00    +0.000 C 
ATOM     20  C   UNL     1       2.926   2.724  18.578  0.00  0.00    +0.000 C 
ATOM     21  C   UNL     1       1.794   4.843  17.887  0.00  0.00    +0.000 C 
ATOM     22  C   UNL     1       1.673   5.569  20.291  0.00  0.00    +0.000 C 
ENDBRANCH  12  13
ENDBRANCH   3  12
TORSDOF 3
ENDMDL
MODEL 7
REMARK VINA RESULT:      -7.8      1.416      2.473
REMARK  Name = 
REMARK  3 active torsions:
REMARK  status: ('A' for Active; 'I' for Inactive)
REMARK    1  A    between atoms: C_2  and  C_15
REMARK    2  A    between atoms: N_3  and  C_4
REMARK    3  A    between atoms: C_4  and  C_5
REMARK                            x       y       z     vdW  Elec       q    Type
REMARK                         _______ _______ _______ _____ _____    ______ ____
ROOT
ATOM      1  O   UNL     1       2.251   8.918  17.438  0.00  0.00    +0.000 OA
ATOM      2  C   UNL     1       1.709   8.720  18.518  0.00  0.00    +0.000 C 
ATOM      3  N   UNL     1       1.994   7.610  19.289  0.00  0.00    +0.000 N 
ATOM      4  H   UNL     1       1.430   7.396  20.100  0.00  0.00    +0.000 HD
ENDROOT
BRANCH   2   5
ATOM      5  C   UNL     1       0.717   9.686  19.065  0.00  0.00    +0.000 A 
ATOM      6  C   UNL     1      -0.008  10.500  18.172  0.00  0.00    +0.000 A 
ATOM      7  C   UNL     1      -0.975  11.389  18.646  0.00  0.00    +0.000 A 
ATOM      8  C   UNL     1      -1.240  11.469  20.009  0.00  0.00    +0.000 A 
ATOM      9  C   UNL     1      -0.535  10.660  20.901  0.00  0.00    +0.000 A 
ATOM     10  C   UNL     1       0.441   9.771  20.440  0.00  0.00    +0.000 A 
ATOM     11 BR   UNL     1       1.356   8.780  21.784  0.00  0.00    +0.000 Br
ENDBRANCH   2   5
BRANCH   3  12
ATOM     12  C   UNL     1       2.961   6.619  18.844  0.00  0.00    +0.000 C 
BRANCH  12  13
ATOM     13  C   UNL     1       2.587   5.159  19.196  0.00  0.00    +0.000 C 
ATOM     14  C   UNL     1       1.874   4.470  18.007  0.00  0.00    +0.000 C 
ATOM     15  C   UNL     1       1.538   3.006  18.345  0.00  0.00    +0.000 C 
ATOM     16  C   UNL     1       2.838   2.246  18.654  0.00  0.00    +0.000 C 
ATOM     17  C   UNL     1       3.558   2.896  19.847  0.00  0.00    +0.000 C 
ATOM     18  C   UNL     1       2.637   2.859  21.078  0.00  0.00    +0.000 C 
ATOM     19  C   UNL     1       1.332   3.611  20.780  0.00  0.00    +0.000 C 
ATOM     20  C   UNL     1       0.624   2.965  19.578  0.00  0.00    +0.000 C 
ATOM     21  C   UNL     1       1.662   5.070  20.438  0.00  0.00    +0.000 C 
ATOM     22  C   UNL     1       3.886   4.361  19.504  0.00  0.00    +0.000 C 
ENDBRANCH  12  13
ENDBRANCH   3  12
TORSDOF 3
ENDMDL
MODEL 8
REMARK VINA RESULT:      -7.7      1.497      1.952
REMARK  Name = 
REMARK  3 active torsions:
REMARK  status: ('A' for Active; 'I' for Inactive)
REMARK    1  A    between atoms: C_2  and  C_15
REMARK    2  A    between atoms: N_3  and  C_4
REMARK    3  A    between atoms: C_4  and  C_5
REMARK                            x       y       z     vdW  Elec       q    Type
REMARK                         _______ _______ _______ _____ _____    ______ ____
ROOT
ATOM      1  O   UNL     1       2.921   9.001  17.992  0.00  0.00    +0.000 OA
ATOM      2  C   UNL     1       1.935   8.568  18.577  0.00  0.00    +0.000 C 
ATOM      3  N   UNL     1       1.799   7.230  18.892  0.00  0.00    +0.000 N 
ATOM      4  H   UNL     1       0.919   6.877  19.240  0.00  0.00    +0.000 HD
ENDROOT
BRANCH   2   5
ATOM      5  C   UNL     1       0.832   9.476  18.994  0.00  0.00    +0.000 A 
ATOM      6  C   UNL     1       0.078  10.135  18.003  0.00  0.00    +0.000 A 
ATOM      7  C   UNL     1      -0.990  10.963  18.355  0.00  0.00    +0.000 A 
ATOM      8  C   UNL     1      -1.326  11.135  19.694  0.00  0.00    +0.000 A 
ATOM      9  C   UNL     1      -0.592  10.479  20.683  0.00  0.00    +0.000 A 
ATOM     10  C   UNL     1       0.484   9.653  20.343  0.00  0.00    +0.000 A 
ATOM     11 BR   UNL     1       1.422   8.876  21.807  0.00  0.00    +0.000 Br
ENDBRANCH   2   5
BRANCH   3  12
ATOM     12  C   UNL     1       2.833   6.269  18.538  0.00  0.00    +0.000 C 
BRANCH  12  13
ATOM     13  C   UNL     1       2.566   4.831  19.042  0.00  0.00    +0.000 C 
ATOM     14  C   UNL     1       1.550   4.834  20.211  0.00  0.00    +0.000 C 
ATOM     15  C   UNL     1       1.257   3.399  20.684  0.00  0.00    +0.000 C 
ATOM     16  C   UNL     1       0.669   2.590  19.516  0.00  0.00    +0.000 C 
ATOM     17  C   UNL     1       1.667   2.551  18.347  0.00  0.00    +0.000 C 
ATOM     18  C   UNL     1       2.976   1.895  18.818  0.00  0.00    +0.000 C 
ATOM     19  C   UNL     1       3.570   2.691  19.988  0.00  0.00    +0.000 C 
ATOM     20  C   UNL     1       2.563   2.738  21.148  0.00  0.00    +0.000 C 
ATOM     21  C   UNL     1       3.861   4.124  19.522  0.00  0.00    +0.000 C 
ATOM     22  C   UNL     1       1.960   3.990  17.883  0.00  0.00    +0.000 C 
ENDBRANCH  12  13
ENDBRANCH   3  12
TORSDOF 3
ENDMDL
MODEL 9
REMARK VINA RESULT:      -7.6      0.978      1.209
REMARK  Name = 
REMARK  3 active torsions:
REMARK  status: ('A' for Active; 'I' for Inactive)
REMARK    1  A    between atoms: C_2  and  C_15
REMARK    2  A    between atoms: N_3  and  C_4
REMARK    3  A    between atoms: C_4  and  C_5
REMARK                            x       y       z     vdW  Elec       q    Type
REMARK                         _______ _______ _______ _____ _____    ______ ____
ROOT
ATOM      1  O   UNL     1       0.907   9.409  18.141  0.00  0.00    +0.000 OA
ATOM      2  C   UNL     1       1.164   8.998  19.266  0.00  0.00    +0.000 C 
ATOM      3  N   UNL     1       2.067   7.975  19.483  0.00  0.00    +0.000 N 
ATOM      4  H   UNL     1       2.150   7.557  20.400  0.00  0.00    +0.000 HD
ENDROOT
BRANCH   2   5
ATOM      5  C   UNL     1       0.521   9.597  20.467  0.00  0.00    +0.000 A 
ATOM      6  C   UNL     1       0.036   8.745  21.479  0.00  0.00    +0.000 A 
ATOM      7  C   UNL     1      -0.537   9.272  22.639  0.00  0.00    +0.000 A 
ATOM      8  C   UNL     1      -0.624  10.651  22.808  0.00  0.00    +0.000 A 
ATOM      9  C   UNL     1      -0.138  11.503  21.815  0.00  0.00    +0.000 A 
ATOM     10  C   UNL     1       0.431  10.987  20.647  0.00  0.00    +0.000 A 
ATOM     11 BR   UNL     1       0.993  12.277  19.364  0.00  0.00    +0.000 Br
ENDBRANCH   2   5
BRANCH   3  12
ATOM     12  C   UNL     1       2.757   7.337  18.372  0.00  0.00    +0.000 C 
BRANCH  12  13
ATOM     13  C   UNL     1       2.852   5.797  18.479  0.00  0.00    +0.000 C 
ATOM     14  C   UNL     1       2.940   5.350  19.960  0.00  0.00    +0.000 C 
ATOM     15  C   UNL     1       2.994   3.816  20.066  0.00  0.00    +0.000 C 
ATOM     16  C   UNL     1       1.723   3.219  19.441  0.00  0.00    +0.000 C 
ATOM     17  C   UNL     1       1.620   3.628  17.963  0.00  0.00    +0.000 C 
ATOM     18  C   UNL     1       2.854   3.111  17.206  0.00  0.00    +0.000 C 
ATOM     19  C   UNL     1       4.132   3.696  17.824  0.00  0.00    +0.000 C 
ATOM     20  C   UNL     1       4.223   3.296  19.304  0.00  0.00    +0.000 C 
ATOM     21  C   UNL     1       4.081   5.227  17.723  0.00  0.00    +0.000 C 
ATOM     22  C   UNL     1       1.571   5.164  17.864  0.00  0.00    +0.000 C 
ENDBRANCH  12  13
ENDBRANCH   3  12
TORSDOF 3
ENDMDL
