MODEL 1
REMARK VINA RESULT:      -7.1      0.000      0.000
REMARK  Name = 
REMARK  10 active torsions:
REMARK  status: ('A' for Active; 'I' for Inactive)
REMARK    1  A    between atoms: C_2  and  C_3
REMARK    2  A    between atoms: C_3  and  C_4
REMARK    3  A    between atoms: C_4  and  C_5
REMARK    4  A    between atoms: C_5  and  C_6
REMARK    5  A    between atoms: C_6  and  O_7
REMARK    6  A    between atoms: O_7  and  C_8
REMARK    7  A    between atoms: C_11  and  C_12
REMARK    8  A    between atoms: C_18  and  O_19
REMARK    9  A    between atoms: O_19  and  C_20
REMARK   10  A    between atoms: N_21  and  C_22
REMARK                            x       y       z     vdW  Elec       q    Type
REMARK                         _______ _______ _______ _____ _____    ______ ____
ROOT
ATOM      1  C   UNL     1       6.897   4.692  16.899  0.00  0.00    +0.000 A 
ATOM      2  N   UNL     1       7.562   5.159  17.926  0.00  0.00    +0.000 NA
ATOM      3  C   UNL     1       6.624   5.287  18.921  0.00  0.00    +0.000 A 
ATOM      4  C   UNL     1       5.365   4.844  18.530  0.00  0.00    +0.000 A 
ATOM      5  N   UNL     1       5.562   4.523  17.191  0.00  0.00    +0.000 N 
ATOM      6  C   UNL     1       4.633   4.070  16.184  0.00  0.00    +0.000 C 
ENDROOT
BRANCH   4   7
ATOM      7  C   UNL     1       4.107   4.740  19.309  0.00  0.00    +0.000 A 
ATOM      8  C   UNL     1       3.354   5.901  19.550  0.00  0.00    +0.000 A 
ATOM      9  C   UNL     1       2.233   5.889  20.378  0.00  0.00    +0.000 A 
ATOM     10 CL   UNL     1       1.430   7.365  20.746  0.00  0.00    +0.000 Cl
ATOM     11  C   UNL     1       1.783   4.701  20.929  0.00  0.00    +0.000 A 
ATOM     12  C   UNL     1       2.444   3.513  20.622  0.00  0.00    +0.000 A 
ATOM     13  C   UNL     1       3.591   3.512  19.805  0.00  0.00    +0.000 A 
BRANCH  13  14
ATOM     14  O   UNL     1       4.255   2.348  19.511  0.00  0.00    +0.000 OA
ATOM     15  C   UNL     1       3.573   1.446  18.636  0.00  0.00    +0.000 C 
ENDBRANCH  13  14
ENDBRANCH   4   7
BRANCH   1  16
ATOM     16  O   UNL     1       7.396   4.408  15.699  0.00  0.00    +0.000 OA
BRANCH  16  17
ATOM     17  C   UNL     1       7.164   5.415  14.712  0.00  0.00    +0.000 C 
BRANCH  17  18
ATOM     18  C   UNL     1       7.154   4.750  13.333  0.00  0.00    +0.000 C 
BRANCH  18  19
ATOM     19  C   UNL     1       6.229   3.537  13.307  0.00  0.00    +0.000 C 
BRANCH  19  20
ATOM     20  C   UNL     1       5.763   3.204  11.887  0.00  0.00    +0.000 C 
BRANCH  20  22
ATOM     21  C   UNL     1       3.578   3.126  10.641  0.00  0.00    +0.000 C 
ATOM     22  C   UNL     1       4.299   3.497  11.707  0.00  0.00    +0.000 C 
ENDBRANCH  20  22
ENDBRANCH  19  20
ENDBRANCH  18  19
ENDBRANCH  17  18
ENDBRANCH  16  17
ENDBRANCH   1  16
TORSDOF 8
ENDMDL
MODEL 2
REMARK VINA RESULT:      -6.8      1.929      2.731
REMARK  Name = 
REMARK  10 active torsions:
REMARK  status: ('A' for Active; 'I' for Inactive)
REMARK    1  A    between atoms: C_2  and  C_3
REMARK    2  A    between atoms: C_3  and  C_4
REMARK    3  A    between atoms: C_4  and  C_5
REMARK    4  A    between atoms: C_5  and  C_6
REMARK    5  A    between atoms: C_6  and  O_7
REMARK    6  A    between atoms: O_7  and  C_8
REMARK    7  A    between atoms: C_11  and  C_12
REMARK    8  A    between atoms: C_18  and  O_19
REMARK    9  A    between atoms: O_19  and  C_20
REMARK   10  A    between atoms: N_21  and  C_22
REMARK                            x       y       z     vdW  Elec       q    Type
REMARK                         _______ _______ _______ _____ _____    ______ ____
ROOT
ATOM      1  C   UNL     1       5.130   4.735  16.472  0.00  0.00    +0.000 A 
ATOM      2  N   UNL     1       4.255   3.772  16.612  0.00  0.00    +0.000 NA
ATOM      3  C   UNL     1       3.310   4.280  17.469  0.00  0.00    +0.000 A 
ATOM      4  C   UNL     1       3.567   5.598  17.829  0.00  0.00    +0.000 A 
ATOM      5  N   UNL     1       4.791   5.843  17.214  0.00  0.00    +0.000 N 
ATOM      6  C   UNL     1       5.648   7.004  17.251  0.00  0.00    +0.000 C 
ENDROOT
BRANCH   4   7
ATOM      7  C   UNL     1       2.773   6.531  18.664  0.00  0.00    +0.000 A 
ATOM      8  C   UNL     1       2.369   7.761  18.119  0.00  0.00    +0.000 A 
ATOM      9  C   UNL     1       1.729   8.730  18.890  0.00  0.00    +0.000 A 
ATOM     10 CL   UNL     1       1.380  10.269  18.206  0.00  0.00    +0.000 Cl
ATOM     11  C   UNL     1       1.404   8.471  20.211  0.00  0.00    +0.000 A 
ATOM     12  C   UNL     1       1.694   7.220  20.752  0.00  0.00    +0.000 A 
ATOM     13  C   UNL     1       2.359   6.238  19.992  0.00  0.00    +0.000 A 
BRANCH  13  14
ATOM     14  O   UNL     1       2.661   5.009  20.523  0.00  0.00    +0.000 OA
ATOM     15  C   UNL     1       1.543   4.174  20.834  0.00  0.00    +0.000 C 
ENDBRANCH  13  14
ENDBRANCH   4   7
BRANCH   1  16
ATOM     16  O   UNL     1       6.232   4.698  15.727  0.00  0.00    +0.000 OA
BRANCH  16  17
ATOM     17  C   UNL     1       6.352   3.530  14.912  0.00  0.00    +0.000 C 
BRANCH  17  18
ATOM     18  C   UNL     1       6.393   3.963  13.445  0.00  0.00    +0.000 C 
BRANCH  18  19
ATOM     19  C   UNL     1       5.003   3.936  12.817  0.00  0.00    +0.000 C 
BRANCH  19  20
ATOM     20  C   UNL     1       4.948   3.024  11.589  0.00  0.00    +0.000 C 
BRANCH  20  22
ATOM     21  C   UNL     1       3.235   4.011  10.032  0.00  0.00    +0.000 C 
ATOM     22  C   UNL     1       3.601   3.080  10.922  0.00  0.00    +0.000 C 
ENDBRANCH  20  22
ENDBRANCH  19  20
ENDBRANCH  18  19
ENDBRANCH  17  18
ENDBRANCH  16  17
ENDBRANCH   1  16
TORSDOF 8
ENDMDL
MODEL 3
REMARK VINA RESULT:      -6.8      0.715      1.012
REMARK  Name = 
REMARK  10 active torsions:
REMARK  status: ('A' for Active; 'I' for Inactive)
REMARK    1  A    between atoms: C_2  and  C_3
REMARK    2  A    between atoms: C_3  and  C_4
REMARK    3  A    between atoms: C_4  and  C_5
REMARK    4  A    between atoms: C_5  and  C_6
REMARK    5  A    between atoms: C_6  and  O_7
REMARK    6  A    between atoms: O_7  and  C_8
REMARK    7  A    between atoms: C_11  and  C_12
REMARK    8  A    between atoms: C_18  and  O_19
REMARK    9  A    between atoms: O_19  and  C_20
REMARK   10  A    between atoms: N_21  and  C_22
REMARK                            x       y       z     vdW  Elec       q    Type
REMARK                         _______ _______ _______ _____ _____    ______ ____
ROOT
ATOM      1  C   UNL     1       6.643   4.505  16.948  0.00  0.00    +0.000 A 
ATOM      2  N   UNL     1       7.339   4.953  17.963  0.00  0.00    +0.000 NA
ATOM      3  C   UNL     1       6.411   5.186  18.948  0.00  0.00    +0.000 A 
ATOM      4  C   UNL     1       5.122   4.829  18.565  0.00  0.00    +0.000 A 
ATOM      5  N   UNL     1       5.298   4.449  17.238  0.00  0.00    +0.000 N 
ATOM      6  C   UNL     1       4.340   4.036  16.242  0.00  0.00    +0.000 C 
ENDROOT
BRANCH   4   7
ATOM      7  C   UNL     1       3.858   4.848  19.339  0.00  0.00    +0.000 A 
ATOM      8  C   UNL     1       3.202   6.073  19.548  0.00  0.00    +0.000 A 
ATOM      9  C   UNL     1       2.081   6.175  20.369  0.00  0.00    +0.000 A 
ATOM     10 CL   UNL     1       1.401   7.720  20.698  0.00  0.00    +0.000 Cl
ATOM     11  C   UNL     1       1.533   5.041  20.948  0.00  0.00    +0.000 A 
ATOM     12  C   UNL     1       2.094   3.796  20.673  0.00  0.00    +0.000 A 
ATOM     13  C   UNL     1       3.240   3.680  19.862  0.00  0.00    +0.000 A 
BRANCH  13  14
ATOM     14  O   UNL     1       3.807   2.459  19.600  0.00  0.00    +0.000 OA
ATOM     15  C   UNL     1       3.132   1.654  18.629  0.00  0.00    +0.000 C 
ENDBRANCH  13  14
ENDBRANCH   4   7
BRANCH   1  16
ATOM     16  O   UNL     1       7.123   4.144  15.761  0.00  0.00    +0.000 OA
BRANCH  16  17
ATOM     17  C   UNL     1       7.426   5.236  14.892  0.00  0.00    +0.000 C 
BRANCH  17  18
ATOM     18  C   UNL     1       7.051   4.837  13.462  0.00  0.00    +0.000 C 
BRANCH  18  19
ATOM     19  C   UNL     1       6.185   3.582  13.443  0.00  0.00    +0.000 C 
BRANCH  19  20
ATOM     20  C   UNL     1       5.766   3.197  12.022  0.00  0.00    +0.000 C 
BRANCH  20  22
ATOM     21  C   UNL     1       6.367   0.947  11.070  0.00  0.00    +0.000 C 
ATOM     22  C   UNL     1       6.711   2.191  11.424  0.00  0.00    +0.000 C 
ENDBRANCH  20  22
ENDBRANCH  19  20
ENDBRANCH  18  19
ENDBRANCH  17  18
ENDBRANCH  16  17
ENDBRANCH   1  16
TORSDOF 8
ENDMDL
MODEL 4
REMARK VINA RESULT:      -6.7      1.343      1.650
REMARK  Name = 
REMARK  10 active torsions:
REMARK  status: ('A' for Active; 'I' for Inactive)
REMARK    1  A    between atoms: C_2  and  C_3
REMARK    2  A    between atoms: C_3  and  C_4
REMARK    3  A    between atoms: C_4  and  C_5
REMARK    4  A    between atoms: C_5  and  C_6
REMARK    5  A    between atoms: C_6  and  O_7
REMARK    6  A    between atoms: O_7  and  C_8
REMARK    7  A    between atoms: C_11  and  C_12
REMARK    8  A    between atoms: C_18  and  O_19
REMARK    9  A    between atoms: O_19  and  C_20
REMARK   10  A    between atoms: N_21  and  C_22
REMARK                            x       y       z     vdW  Elec       q    Type
REMARK                         _______ _______ _______ _____ _____    ______ ____
ROOT
ATOM      1  C   UNL     1       6.392   4.739  15.395  0.00  0.00    +0.000 A 
ATOM      2  N   UNL     1       7.104   5.709  15.912  0.00  0.00    +0.000 NA
ATOM      3  C   UNL     1       6.333   6.201  16.936  0.00  0.00    +0.000 A 
ATOM      4  C   UNL     1       5.145   5.497  17.098  0.00  0.00    +0.000 A 
ATOM      5  N   UNL     1       5.185   4.594  16.041  0.00  0.00    +0.000 N 
ATOM      6  C   UNL     1       4.218   3.618  15.598  0.00  0.00    +0.000 C 
ENDROOT
BRANCH   4   7
ATOM      7  C   UNL     1       4.078   5.650  18.116  0.00  0.00    +0.000 A 
ATOM      8  C   UNL     1       3.334   6.841  18.153  0.00  0.00    +0.000 A 
ATOM      9  C   UNL     1       2.405   7.095  19.161  0.00  0.00    +0.000 A 
ATOM     10 CL   UNL     1       1.623   8.625  19.233  0.00  0.00    +0.000 Cl
ATOM     11  C   UNL     1       2.135   6.134  20.121  0.00  0.00    +0.000 A 
ATOM     12  C   UNL     1       2.777   4.900  20.050  0.00  0.00    +0.000 A 
ATOM     13  C   UNL     1       3.733   4.636  19.050  0.00  0.00    +0.000 A 
BRANCH  13  14
ATOM     14  O   UNL     1       4.380   3.428  18.983  0.00  0.00    +0.000 OA
ATOM     15  C   UNL     1       4.295   2.611  20.154  0.00  0.00    +0.000 C 
ENDBRANCH  13  14
ENDBRANCH   4   7
BRANCH   1  16
ATOM     16  O   UNL     1       6.738   3.967  14.368  0.00  0.00    +0.000 OA
BRANCH  16  17
ATOM     17  C   UNL     1       6.645   4.605  13.093  0.00  0.00    +0.000 C 
BRANCH  17  18
ATOM     18  C   UNL     1       6.855   3.550  12.005  0.00  0.00    +0.000 C 
BRANCH  18  19
ATOM     19  C   UNL     1       5.596   2.715  11.789  0.00  0.00    +0.000 C 
BRANCH  19  20
ATOM     20  C   UNL     1       4.330   3.575  11.804  0.00  0.00    +0.000 C 
BRANCH  20  22
ATOM     21  C   UNL     1       3.022   3.896   9.678  0.00  0.00    +0.000 C 
ATOM     22  C   UNL     1       3.362   3.147  10.735  0.00  0.00    +0.000 C 
ENDBRANCH  20  22
ENDBRANCH  19  20
ENDBRANCH  18  19
ENDBRANCH  17  18
ENDBRANCH  16  17
ENDBRANCH   1  16
TORSDOF 8
ENDMDL
MODEL 5
REMARK VINA RESULT:      -6.7      2.920      6.490
REMARK  Name = 
REMARK  10 active torsions:
REMARK  status: ('A' for Active; 'I' for Inactive)
REMARK    1  A    between atoms: C_2  and  C_3
REMARK    2  A    between atoms: C_3  and  C_4
REMARK    3  A    between atoms: C_4  and  C_5
REMARK    4  A    between atoms: C_5  and  C_6
REMARK    5  A    between atoms: C_6  and  O_7
REMARK    6  A    between atoms: O_7  and  C_8
REMARK    7  A    between atoms: C_11  and  C_12
REMARK    8  A    between atoms: C_18  and  O_19
REMARK    9  A    between atoms: O_19  and  C_20
REMARK   10  A    between atoms: N_21  and  C_22
REMARK                            x       y       z     vdW  Elec       q    Type
REMARK                         _______ _______ _______ _____ _____    ______ ____
ROOT
ATOM      1  C   UNL     1       3.224   6.063  19.468  0.00  0.00    +0.000 A 
ATOM      2  N   UNL     1       2.770   7.065  18.758  0.00  0.00    +0.000 NA
ATOM      3  C   UNL     1       3.544   7.070  17.625  0.00  0.00    +0.000 A 
ATOM      4  C   UNL     1       4.462   6.025  17.598  0.00  0.00    +0.000 A 
ATOM      5  N   UNL     1       4.270   5.426  18.839  0.00  0.00    +0.000 N 
ATOM      6  C   UNL     1       4.958   4.327  19.471  0.00  0.00    +0.000 C 
ENDROOT
BRANCH   4   7
ATOM      7  C   UNL     1       5.423   5.626  16.542  0.00  0.00    +0.000 A 
ATOM      8  C   UNL     1       4.938   5.032  15.365  0.00  0.00    +0.000 A 
ATOM      9  C   UNL     1       5.797   4.524  14.392  0.00  0.00    +0.000 A 
ATOM     10 CL   UNL     1       5.149   3.686  13.037  0.00  0.00    +0.000 Cl
ATOM     11  C   UNL     1       7.168   4.662  14.528  0.00  0.00    +0.000 A 
ATOM     12  C   UNL     1       7.678   5.342  15.632  0.00  0.00    +0.000 A 
ATOM     13  C   UNL     1       6.824   5.843  16.634  0.00  0.00    +0.000 A 
BRANCH  13  14
ATOM     14  O   UNL     1       7.321   6.501  17.730  0.00  0.00    +0.000 OA
ATOM     15  C   UNL     1       7.690   7.867  17.523  0.00  0.00    +0.000 C 
ENDBRANCH  13  14
ENDBRANCH   4   7
BRANCH   1  16
ATOM     16  O   UNL     1       2.775   5.672  20.658  0.00  0.00    +0.000 OA
BRANCH  16  17
ATOM     17  C   UNL     1       1.429   5.192  20.650  0.00  0.00    +0.000 C 
BRANCH  17  18
ATOM     18  C   UNL     1       1.455   3.671  20.819  0.00  0.00    +0.000 C 
BRANCH  18  19
ATOM     19  C   UNL     1       0.769   2.968  19.651  0.00  0.00    +0.000 C 
BRANCH  19  20
ATOM     20  C   UNL     1       1.614   1.818  19.099  0.00  0.00    +0.000 C 
BRANCH  20  22
ATOM     21  C   UNL     1       2.225   3.224  17.104  0.00  0.00    +0.000 C 
ATOM     22  C   UNL     1       2.537   2.288  18.009  0.00  0.00    +0.000 C 
ENDBRANCH  20  22
ENDBRANCH  19  20
ENDBRANCH  18  19
ENDBRANCH  17  18
ENDBRANCH  16  17
ENDBRANCH   1  16
TORSDOF 8
ENDMDL
MODEL 6
REMARK VINA RESULT:      -6.7      1.962      2.836
REMARK  Name = 
REMARK  10 active torsions:
REMARK  status: ('A' for Active; 'I' for Inactive)
REMARK    1  A    between atoms: C_2  and  C_3
REMARK    2  A    between atoms: C_3  and  C_4
REMARK    3  A    between atoms: C_4  and  C_5
REMARK    4  A    between atoms: C_5  and  C_6
REMARK    5  A    between atoms: C_6  and  O_7
REMARK    6  A    between atoms: O_7  and  C_8
REMARK    7  A    between atoms: C_11  and  C_12
REMARK    8  A    between atoms: C_18  and  O_19
REMARK    9  A    between atoms: O_19  and  C_20
REMARK   10  A    between atoms: N_21  and  C_22
REMARK                            x       y       z     vdW  Elec       q    Type
REMARK                         _______ _______ _______ _____ _____    ______ ____
ROOT
ATOM      1  C   UNL     1       5.293   4.479  16.559  0.00  0.00    +0.000 A 
ATOM      2  N   UNL     1       4.370   3.557  16.676  0.00  0.00    +0.000 NA
ATOM      3  C   UNL     1       3.406   4.126  17.470  0.00  0.00    +0.000 A 
ATOM      4  C   UNL     1       3.701   5.441  17.812  0.00  0.00    +0.000 A 
ATOM      5  N   UNL     1       4.963   5.619  17.256  0.00  0.00    +0.000 N 
ATOM      6  C   UNL     1       5.866   6.744  17.309  0.00  0.00    +0.000 C 
ENDROOT
BRANCH   4   7
ATOM      7  C   UNL     1       2.905   6.427  18.582  0.00  0.00    +0.000 A 
ATOM      8  C   UNL     1       2.569   7.652  17.982  0.00  0.00    +0.000 A 
ATOM      9  C   UNL     1       1.933   8.668  18.693  0.00  0.00    +0.000 A 
ATOM     10 CL   UNL     1       1.668  10.195  17.947  0.00  0.00    +0.000 Cl
ATOM     11  C   UNL     1       1.543   8.464  20.007  0.00  0.00    +0.000 A 
ATOM     12  C   UNL     1       1.765   7.221  20.598  0.00  0.00    +0.000 A 
ATOM     13  C   UNL     1       2.426   6.193  19.899  0.00  0.00    +0.000 A 
BRANCH  13  14
ATOM     14  O   UNL     1       2.660   4.973  20.480  0.00  0.00    +0.000 OA
ATOM     15  C   UNL     1       1.500   4.196  20.788  0.00  0.00    +0.000 C 
ENDBRANCH  13  14
ENDBRANCH   4   7
BRANCH   1  16
ATOM     16  O   UNL     1       6.428   4.376  15.873  0.00  0.00    +0.000 OA
BRANCH  16  17
ATOM     17  C   UNL     1       6.261   3.944  14.521  0.00  0.00    +0.000 C 
BRANCH  17  18
ATOM     18  C   UNL     1       7.171   4.789  13.625  0.00  0.00    +0.000 C 
BRANCH  18  19
ATOM     19  C   UNL     1       7.080   4.350  12.167  0.00  0.00    +0.000 C 
BRANCH  19  20
ATOM     20  C   UNL     1       6.156   3.143  11.989  0.00  0.00    +0.000 C 
BRANCH  20  22
ATOM     21  C   UNL     1       6.296   0.845  10.973  0.00  0.00    +0.000 C 
ATOM     22  C   UNL     1       6.882   1.983  11.364  0.00  0.00    +0.000 C 
ENDBRANCH  20  22
ENDBRANCH  19  20
ENDBRANCH  18  19
ENDBRANCH  17  18
ENDBRANCH  16  17
ENDBRANCH   1  16
TORSDOF 8
ENDMDL
MODEL 7
REMARK VINA RESULT:      -6.6      1.715      2.382
REMARK  Name = 
REMARK  10 active torsions:
REMARK  status: ('A' for Active; 'I' for Inactive)
REMARK    1  A    between atoms: C_2  and  C_3
REMARK    2  A    between atoms: C_3  and  C_4
REMARK    3  A    between atoms: C_4  and  C_5
REMARK    4  A    between atoms: C_5  and  C_6
REMARK    5  A    between atoms: C_6  and  O_7
REMARK    6  A    between atoms: O_7  and  C_8
REMARK    7  A    between atoms: C_11  and  C_12
REMARK    8  A    between atoms: C_18  and  O_19
REMARK    9  A    between atoms: O_19  and  C_20
REMARK   10  A    between atoms: N_21  and  C_22
REMARK                            x       y       z     vdW  Elec       q    Type
REMARK                         _______ _______ _______ _____ _____    ______ ____
ROOT
ATOM      1  C   UNL     1       6.445   4.471  16.834  0.00  0.00    +0.000 A 
ATOM      2  N   UNL     1       7.172   5.158  17.680  0.00  0.00    +0.000 NA
ATOM      3  C   UNL     1       6.301   5.519  18.677  0.00  0.00    +0.000 A 
ATOM      4  C   UNL     1       5.022   5.008  18.482  0.00  0.00    +0.000 A 
ATOM      5  N   UNL     1       5.134   4.385  17.244  0.00  0.00    +0.000 N 
ATOM      6  C   UNL     1       4.144   3.719  16.431  0.00  0.00    +0.000 C 
ENDROOT
BRANCH   4   7
ATOM      7  C   UNL     1       3.819   5.096  19.344  0.00  0.00    +0.000 A 
ATOM      8  C   UNL     1       3.465   3.992  20.138  0.00  0.00    +0.000 A 
ATOM      9  C   UNL     1       2.280   3.966  20.873  0.00  0.00    +0.000 A 
ATOM     10 CL   UNL     1       1.832   2.537  21.718  0.00  0.00    +0.000 Cl
ATOM     11  C   UNL     1       1.448   5.074  20.897  0.00  0.00    +0.000 A 
ATOM     12  C   UNL     1       1.824   6.224  20.207  0.00  0.00    +0.000 A 
ATOM     13  C   UNL     1       3.007   6.258  19.443  0.00  0.00    +0.000 A 
BRANCH  13  14
ATOM     14  O   UNL     1       3.375   7.383  18.749  0.00  0.00    +0.000 OA
ATOM     15  C   UNL     1       2.337   8.021  18.002  0.00  0.00    +0.000 C 
ENDBRANCH  13  14
ENDBRANCH   4   7
BRANCH   1  16
ATOM     16  O   UNL     1       6.867   3.915  15.702  0.00  0.00    +0.000 OA
BRANCH  16  17
ATOM     17  C   UNL     1       7.064   4.838  14.629  0.00  0.00    +0.000 C 
BRANCH  17  18
ATOM     18  C   UNL     1       6.055   4.521  13.523  0.00  0.00    +0.000 C 
BRANCH  18  19
ATOM     19  C   UNL     1       6.261   3.114  12.968  0.00  0.00    +0.000 C 
BRANCH  19  20
ATOM     20  C   UNL     1       5.630   2.947  11.584  0.00  0.00    +0.000 C 
BRANCH  20  22
ATOM     21  C   UNL     1       3.379   3.335  10.528  0.00  0.00    +0.000 C 
ATOM     22  C   UNL     1       4.229   3.495  11.549  0.00  0.00    +0.000 C 
ENDBRANCH  20  22
ENDBRANCH  19  20
ENDBRANCH  18  19
ENDBRANCH  17  18
ENDBRANCH  16  17
ENDBRANCH   1  16
TORSDOF 8
ENDMDL
MODEL 8
REMARK VINA RESULT:      -6.6      4.432      6.345
REMARK  Name = 
REMARK  10 active torsions:
REMARK  status: ('A' for Active; 'I' for Inactive)
REMARK    1  A    between atoms: C_2  and  C_3
REMARK    2  A    between atoms: C_3  and  C_4
REMARK    3  A    between atoms: C_4  and  C_5
REMARK    4  A    between atoms: C_5  and  C_6
REMARK    5  A    between atoms: C_6  and  O_7
REMARK    6  A    between atoms: O_7  and  C_8
REMARK    7  A    between atoms: C_11  and  C_12
REMARK    8  A    between atoms: C_18  and  O_19
REMARK    9  A    between atoms: O_19  and  C_20
REMARK   10  A    between atoms: N_21  and  C_22
REMARK                            x       y       z     vdW  Elec       q    Type
REMARK                         _______ _______ _______ _____ _____    ______ ____
ROOT
ATOM      1  C   UNL     1       6.888   7.071  17.313  0.00  0.00    +0.000 A 
ATOM      2  N   UNL     1       6.260   7.302  16.187  0.00  0.00    +0.000 NA
ATOM      3  C   UNL     1       5.155   6.489  16.229  0.00  0.00    +0.000 A 
ATOM      4  C   UNL     1       5.059   5.777  17.420  0.00  0.00    +0.000 A 
ATOM      5  N   UNL     1       6.234   6.131  18.076  0.00  0.00    +0.000 N 
ATOM      6  C   UNL     1       6.782   5.684  19.334  0.00  0.00    +0.000 C 
ENDROOT
BRANCH   4   7
ATOM      7  C   UNL     1       3.999   4.856  17.898  0.00  0.00    +0.000 A 
ATOM      8  C   UNL     1       4.312   3.503  18.106  0.00  0.00    +0.000 A 
ATOM      9  C   UNL     1       3.334   2.565  18.434  0.00  0.00    +0.000 A 
ATOM     10 CL   UNL     1       3.751   0.900  18.543  0.00  0.00    +0.000 Cl
ATOM     11  C   UNL     1       2.024   2.965  18.639  0.00  0.00    +0.000 A 
ATOM     12  C   UNL     1       1.701   4.317  18.546  0.00  0.00    +0.000 A 
ATOM     13  C   UNL     1       2.674   5.273  18.195  0.00  0.00    +0.000 A 
BRANCH  13  14
ATOM     14  O   UNL     1       2.359   6.604  18.087  0.00  0.00    +0.000 OA
ATOM     15  C   UNL     1       2.297   7.331  19.317  0.00  0.00    +0.000 C 
ENDBRANCH  13  14
ENDBRANCH   4   7
BRANCH   1  16
ATOM     16  O   UNL     1       8.022   7.638  17.714  0.00  0.00    +0.000 OA
BRANCH  16  17
ATOM     17  C   UNL     1       7.971   9.063  17.796  0.00  0.00    +0.000 C 
BRANCH  17  18
ATOM     18  C   UNL     1       8.981   9.526  18.849  0.00  0.00    +0.000 C 
BRANCH  18  19
ATOM     19  C   UNL     1       9.218  11.031  18.771  0.00  0.00    +0.000 C 
BRANCH  19  20
ATOM     20  C   UNL     1      10.386  11.380  17.846  0.00  0.00    +0.000 C 
BRANCH  20  22
ATOM     21  C   UNL     1      11.374  13.487  16.891  0.00  0.00    +0.000 C 
ATOM     22  C   UNL     1      10.343  12.823  17.426  0.00  0.00    +0.000 C 
ENDBRANCH  20  22
ENDBRANCH  19  20
ENDBRANCH  18  19
ENDBRANCH  17  18
ENDBRANCH  16  17
ENDBRANCH   1  16
TORSDOF 8
ENDMDL
MODEL 9
REMARK VINA RESULT:      -6.5      1.120      1.147
REMARK  Name = 
REMARK  10 active torsions:
REMARK  status: ('A' for Active; 'I' for Inactive)
REMARK    1  A    between atoms: C_2  and  C_3
REMARK    2  A    between atoms: C_3  and  C_4
REMARK    3  A    between atoms: C_4  and  C_5
REMARK    4  A    between atoms: C_5  and  C_6
REMARK    5  A    between atoms: C_6  and  O_7
REMARK    6  A    between atoms: O_7  and  C_8
REMARK    7  A    between atoms: C_11  and  C_12
REMARK    8  A    between atoms: C_18  and  O_19
REMARK    9  A    between atoms: O_19  and  C_20
REMARK   10  A    between atoms: N_21  and  C_22
REMARK                            x       y       z     vdW  Elec       q    Type
REMARK                         _______ _______ _______ _____ _____    ______ ____
ROOT
ATOM      1  C   UNL     1       6.663   5.446  17.081  0.00  0.00    +0.000 A 
ATOM      2  N   UNL     1       7.161   4.665  18.007  0.00  0.00    +0.000 NA
ATOM      3  C   UNL     1       6.110   4.412  18.853  0.00  0.00    +0.000 A 
ATOM      4  C   UNL     1       4.924   4.999  18.425  0.00  0.00    +0.000 A 
ATOM      5  N   UNL     1       5.331   5.714  17.304  0.00  0.00    +0.000 N 
ATOM      6  C   UNL     1       4.597   6.602  16.434  0.00  0.00    +0.000 C 
ENDROOT
BRANCH   4   7
ATOM      7  C   UNL     1       3.558   4.916  18.996  0.00  0.00    +0.000 A 
ATOM      8  C   UNL     1       3.033   6.028  19.675  0.00  0.00    +0.000 A 
ATOM      9  C   UNL     1       1.809   5.971  20.341  0.00  0.00    +0.000 A 
ATOM     10 CL   UNL     1       1.280   7.318  21.269  0.00  0.00    +0.000 Cl
ATOM     11  C   UNL     1       1.035   4.823  20.284  0.00  0.00    +0.000 A 
ATOM     12  C   UNL     1       1.478   3.740  19.528  0.00  0.00    +0.000 A 
ATOM     13  C   UNL     1       2.722   3.774  18.868  0.00  0.00    +0.000 A 
BRANCH  13  14
ATOM     14  O   UNL     1       3.169   2.705  18.135  0.00  0.00    +0.000 OA
ATOM     15  C   UNL     1       3.520   1.539  18.885  0.00  0.00    +0.000 C 
ENDBRANCH  13  14
ENDBRANCH   4   7
BRANCH   1  16
ATOM     16  O   UNL     1       7.319   5.952  16.040  0.00  0.00    +0.000 OA
BRANCH  16  17
ATOM     17  C   UNL     1       7.582   5.011  14.996  0.00  0.00    +0.000 C 
BRANCH  17  18
ATOM     18  C   UNL     1       6.453   3.977  14.979  0.00  0.00    +0.000 C 
BRANCH  18  19
ATOM     19  C   UNL     1       5.536   4.175  13.776  0.00  0.00    +0.000 C 
BRANCH  19  20
ATOM     20  C   UNL     1       5.916   3.259  12.610  0.00  0.00    +0.000 C 
BRANCH  20  22
ATOM     21  C   UNL     1       3.831   3.061  11.215  0.00  0.00    +0.000 C 
ATOM     22  C   UNL     1       5.071   3.533  11.397  0.00  0.00    +0.000 C 
ENDBRANCH  20  22
ENDBRANCH  19  20
ENDBRANCH  18  19
ENDBRANCH  17  18
ENDBRANCH  16  17
ENDBRANCH   1  16
TORSDOF 8
ENDMDL
