MODEL 1
REMARK VINA RESULT:      -9.4      0.000      0.000
REMARK  Name = 
REMARK  7 active torsions:
REMARK  status: ('A' for Active; 'I' for Inactive)
REMARK    1  A    between atoms: S_2  and  N_4
REMARK    2  A    between atoms: S_2  and  C_22
REMARK    3  A    between atoms: N_4  and  C_5
REMARK    4  A    between atoms: C_5  and  C_6
REMARK    5  A    between atoms: C_5  and  C_16
REMARK    6  A    between atoms: C_9  and  C_10
REMARK    7  A    between atoms: C_25  and  C_26
REMARK                            x       y       z     vdW  Elec       q    Type
REMARK                         _______ _______ _______ _____ _____    ______ ____
ROOT
ATOM      1  C   UNL     1       3.370   6.098  19.102  0.00  0.00    +0.000 C 
ENDROOT
BRANCH   1   2
ATOM      2  C   UNL     1       2.500   7.352  19.177  0.00  0.00    +0.000 A 
ATOM      3  C   UNL     1       2.264   8.155  18.048  0.00  0.00    +0.000 A 
ATOM      4  C   UNL     1       1.371   9.231  18.114  0.00  0.00    +0.000 A 
ATOM      5  C   UNL     1       0.714   9.540  19.314  0.00  0.00    +0.000 A 
ATOM      6  C   UNL     1       0.998   8.778  20.455  0.00  0.00    +0.000 A 
ATOM      7  C   UNL     1       1.874   7.693  20.386  0.00  0.00    +0.000 A 
BRANCH   5   8
ATOM      8  C   UNL     1      -0.300  10.657  19.396  0.00  0.00    +0.000 C 
ATOM      9  F   UNL     1       0.147  11.843  18.896  0.00  0.00    +0.000 F 
ATOM     10  F   UNL     1      -1.437  10.368  18.700  0.00  0.00    +0.000 F 
ATOM     11  F   UNL     1      -0.703  10.913  20.670  0.00  0.00    +0.000 F 
ENDBRANCH   5   8
ENDBRANCH   1   2
BRANCH   1  12
ATOM     12  C   UNL     1       2.533   4.799  19.090  0.00  0.00    +0.000 A 
ATOM     13  C   UNL     1       1.853   4.352  17.954  0.00  0.00    +0.000 A 
ATOM     14  N   UNL     1       1.121   3.211  17.923  0.00  0.00    +0.000 NA
ATOM     15  C   UNL     1       1.079   2.519  19.079  0.00  0.00    +0.000 A 
ATOM     16  C   UNL     1       1.724   2.955  20.224  0.00  0.00    +0.000 A 
ATOM     17  N   UNL     1       2.455   4.097  20.262  0.00  0.00    +0.000 NA
ENDBRANCH   1  12
BRANCH   1  18
ATOM     18  N   UNL     1       4.290   6.102  17.942  0.00  0.00    +0.000 NA
ATOM     19  H   UNL     1       3.796   5.866  17.077  0.00  0.00    +0.000 HD
BRANCH  18  21
ATOM     20  O   UNL     1       6.730   6.590  18.140  0.00  0.00    +0.000 OA
ATOM     21  S   UNL     1       5.829   5.461  18.044  0.00  0.00    +0.000 S 
ATOM     22  O   UNL     1       5.858   4.396  19.020  0.00  0.00    +0.000 OA
BRANCH  21  23
ATOM     23  C   UNL     1       6.140   4.706  16.454  0.00  0.00    +0.000 A 
ATOM     24  C   UNL     1       5.173   3.855  15.897  0.00  0.00    +0.000 A 
ATOM     25  C   UNL     1       5.268   3.479  14.554  0.00  0.00    +0.000 A 
ATOM     26  C   UNL     1       6.314   3.954  13.750  0.00  0.00    +0.000 A 
ATOM     27  C   UNL     1       7.294   4.780  14.327  0.00  0.00    +0.000 A 
ATOM     28  C   UNL     1       7.202   5.162  15.669  0.00  0.00    +0.000 A 
BRANCH  26  29
ATOM     29  C   UNL     1       6.372   3.644  12.268  0.00  0.00    +0.000 C 
ATOM     30  F   UNL     1       7.198   4.468  11.565  0.00  0.00    +0.000 F 
ATOM     31  F   UNL     1       6.816   2.377  12.023  0.00  0.00    +0.000 F 
ATOM     32  F   UNL     1       5.153   3.733  11.668  0.00  0.00    +0.000 F 
ENDBRANCH  26  29
ENDBRANCH  21  23
ENDBRANCH  18  21
ENDBRANCH   1  18
TORSDOF 7
ENDMDL
MODEL 2
REMARK VINA RESULT:      -9.4      0.291      1.030
REMARK  Name = 
REMARK  7 active torsions:
REMARK  status: ('A' for Active; 'I' for Inactive)
REMARK    1  A    between atoms: S_2  and  N_4
REMARK    2  A    between atoms: S_2  and  C_22
REMARK    3  A    between atoms: N_4  and  C_5
REMARK    4  A    between atoms: C_5  and  C_6
REMARK    5  A    between atoms: C_5  and  C_16
REMARK    6  A    between atoms: C_9  and  C_10
REMARK    7  A    between atoms: C_25  and  C_26
REMARK                            x       y       z     vdW  Elec       q    Type
REMARK                         _______ _______ _______ _____ _____    ______ ____
ROOT
ATOM      1  C   UNL     1       3.251   6.158  19.104  0.00  0.00    +0.000 C 
ENDROOT
BRANCH   1   2
ATOM      2  C   UNL     1       2.427   7.443  19.163  0.00  0.00    +0.000 A 
ATOM      3  C   UNL     1       2.230   8.246  18.026  0.00  0.00    +0.000 A 
ATOM      4  C   UNL     1       1.376   9.354  18.077  0.00  0.00    +0.000 A 
ATOM      5  C   UNL     1       0.719   9.695  19.268  0.00  0.00    +0.000 A 
ATOM      6  C   UNL     1       0.966   8.931  20.418  0.00  0.00    +0.000 A 
ATOM      7  C   UNL     1       1.803   7.815  20.364  0.00  0.00    +0.000 A 
BRANCH   5   8
ATOM      8  C   UNL     1      -0.254  10.848  19.334  0.00  0.00    +0.000 C 
ATOM      9  F   UNL     1      -1.559  10.472  19.221  0.00  0.00    +0.000 F 
ATOM     10  F   UNL     1      -0.166  11.525  20.515  0.00  0.00    +0.000 F 
ATOM     11  F   UNL     1      -0.043  11.774  18.360  0.00  0.00    +0.000 F 
ENDBRANCH   5   8
ENDBRANCH   1   2
BRANCH   1  12
ATOM     12  C   UNL     1       2.371   4.889  19.156  0.00  0.00    +0.000 A 
ATOM     13  C   UNL     1       1.903   4.249  18.005  0.00  0.00    +0.000 A 
ATOM     14  N   UNL     1       1.138   3.130  18.031  0.00  0.00    +0.000 NA
ATOM     15  C   UNL     1       0.838   2.663  19.260  0.00  0.00    +0.000 A 
ATOM     16  C   UNL     1       1.270   3.293  20.414  0.00  0.00    +0.000 A 
ATOM     17  N   UNL     1       2.033   4.415  20.395  0.00  0.00    +0.000 NA
ENDBRANCH   1  12
BRANCH   1  18
ATOM     18  N   UNL     1       4.138   6.094  17.921  0.00  0.00    +0.000 NA
ATOM     19  H   UNL     1       3.628   5.774  17.093  0.00  0.00    +0.000 HD
BRANCH  18  21
ATOM     20  O   UNL     1       6.560   6.670  18.104  0.00  0.00    +0.000 OA
ATOM     21  S   UNL     1       5.699   5.509  18.028  0.00  0.00    +0.000 S 
ATOM     22  O   UNL     1       5.767   4.461  19.020  0.00  0.00    +0.000 OA
BRANCH  21  23
ATOM     23  C   UNL     1       6.031   4.740  16.448  0.00  0.00    +0.000 A 
ATOM     24  C   UNL     1       5.014   4.019  15.808  0.00  0.00    +0.000 A 
ATOM     25  C   UNL     1       5.159   3.649  14.467  0.00  0.00    +0.000 A 
ATOM     26  C   UNL     1       6.309   4.005  13.749  0.00  0.00    +0.000 A 
ATOM     27  C   UNL     1       7.336   4.701  14.409  0.00  0.00    +0.000 A 
ATOM     28  C   UNL     1       7.195   5.076  15.750  0.00  0.00    +0.000 A 
BRANCH  26  29
ATOM     29  C   UNL     1       6.438   3.707  12.268  0.00  0.00    +0.000 C 
ATOM     30  F   UNL     1       6.936   2.470  11.997  0.00  0.00    +0.000 F 
ATOM     31  F   UNL     1       5.238   3.775  11.622  0.00  0.00    +0.000 F 
ATOM     32  F   UNL     1       7.254   4.589  11.628  0.00  0.00    +0.000 F 
ENDBRANCH  26  29
ENDBRANCH  21  23
ENDBRANCH  18  21
ENDBRANCH   1  18
TORSDOF 7
ENDMDL
MODEL 3
REMARK VINA RESULT:      -9.4      0.347      1.258
REMARK  Name = 
REMARK  7 active torsions:
REMARK  status: ('A' for Active; 'I' for Inactive)
REMARK    1  A    between atoms: S_2  and  N_4
REMARK    2  A    between atoms: S_2  and  C_22
REMARK    3  A    between atoms: N_4  and  C_5
REMARK    4  A    between atoms: C_5  and  C_6
REMARK    5  A    between atoms: C_5  and  C_16
REMARK    6  A    between atoms: C_9  and  C_10
REMARK    7  A    between atoms: C_25  and  C_26
REMARK                            x       y       z     vdW  Elec       q    Type
REMARK                         _______ _______ _______ _____ _____    ______ ____
ROOT
ATOM      1  C   UNL     1       3.390   6.026  19.080  0.00  0.00    +0.000 C 
ENDROOT
BRANCH   1   2
ATOM      2  C   UNL     1       2.455   7.228  19.205  0.00  0.00    +0.000 A 
ATOM      3  C   UNL     1       1.835   7.557  20.422  0.00  0.00    +0.000 A 
ATOM      4  C   UNL     1       1.076   8.728  20.541  0.00  0.00    +0.000 A 
ATOM      5  C   UNL     1       0.904   9.581  19.442  0.00  0.00    +0.000 A 
ATOM      6  C   UNL     1       1.471   9.219  18.211  0.00  0.00    +0.000 A 
ATOM      7  C   UNL     1       2.242   8.061  18.096  0.00  0.00    +0.000 A 
BRANCH   5   8
ATOM      8  C   UNL     1       0.143  10.880  19.559  0.00  0.00    +0.000 C 
ATOM      9  F   UNL     1      -0.628  11.166  18.473  0.00  0.00    +0.000 F 
ATOM     10  F   UNL     1      -0.708  10.880  20.625  0.00  0.00    +0.000 F 
ATOM     11  F   UNL     1       0.957  11.956  19.737  0.00  0.00    +0.000 F 
ENDBRANCH   5   8
ENDBRANCH   1   2
BRANCH   1  12
ATOM     12  C   UNL     1       2.624   4.687  19.009  0.00  0.00    +0.000 A 
ATOM     13  C   UNL     1       1.830   4.330  17.915  0.00  0.00    +0.000 A 
ATOM     14  N   UNL     1       1.158   3.155  17.833  0.00  0.00    +0.000 NA
ATOM     15  C   UNL     1       1.294   2.334  18.894  0.00  0.00    +0.000 A 
ATOM     16  C   UNL     1       2.055   2.676  19.998  0.00  0.00    +0.000 A 
ATOM     17  N   UNL     1       2.728   3.851  20.089  0.00  0.00    +0.000 NA
ENDBRANCH   1  12
BRANCH   1  18
ATOM     18  N   UNL     1       4.312   6.129  17.926  0.00  0.00    +0.000 NA
ATOM     19  H   UNL     1       3.825   5.937  17.045  0.00  0.00    +0.000 HD
BRANCH  18  21
ATOM     20  O   UNL     1       6.746   6.668  18.030  0.00  0.00    +0.000 OA
ATOM     21  S   UNL     1       5.866   5.521  17.991  0.00  0.00    +0.000 S 
ATOM     22  O   UNL     1       5.949   4.479  18.989  0.00  0.00    +0.000 OA
BRANCH  21  23
ATOM     23  C   UNL     1       6.139   4.733  16.408  0.00  0.00    +0.000 A 
ATOM     24  C   UNL     1       5.104   3.987  15.825  0.00  0.00    +0.000 A 
ATOM     25  C   UNL     1       5.195   3.600  14.485  0.00  0.00    +0.000 A 
ATOM     26  C   UNL     1       6.306   3.963  13.710  0.00  0.00    +0.000 A 
ATOM     27  C   UNL     1       7.351   4.683  14.314  0.00  0.00    +0.000 A 
ATOM     28  C   UNL     1       7.264   5.075  15.653  0.00  0.00    +0.000 A 
BRANCH  26  29
ATOM     29  C   UNL     1       6.372   3.645  12.230  0.00  0.00    +0.000 C 
ATOM     30  F   UNL     1       5.171   3.732  11.594  0.00  0.00    +0.000 F 
ATOM     31  F   UNL     1       7.210   4.485  11.558  0.00  0.00    +0.000 F 
ATOM     32  F   UNL     1       6.834   2.387  11.987  0.00  0.00    +0.000 F 
ENDBRANCH  26  29
ENDBRANCH  21  23
ENDBRANCH  18  21
ENDBRANCH   1  18
TORSDOF 7
ENDMDL
MODEL 4
REMARK VINA RESULT:      -9.2      0.582      1.193
REMARK  Name = 
REMARK  7 active torsions:
REMARK  status: ('A' for Active; 'I' for Inactive)
REMARK    1  A    between atoms: S_2  and  N_4
REMARK    2  A    between atoms: S_2  and  C_22
REMARK    3  A    between atoms: N_4  and  C_5
REMARK    4  A    between atoms: C_5  and  C_6
REMARK    5  A    between atoms: C_5  and  C_16
REMARK    6  A    between atoms: C_9  and  C_10
REMARK    7  A    between atoms: C_25  and  C_26
REMARK                            x       y       z     vdW  Elec       q    Type
REMARK                         _______ _______ _______ _____ _____    ______ ____
ROOT
ATOM      1  C   UNL     1       3.345   6.128  19.258  0.00  0.00    +0.000 C 
ENDROOT
BRANCH   1   2
ATOM      2  C   UNL     1       2.494   7.395  19.192  0.00  0.00    +0.000 A 
ATOM      3  C   UNL     1       2.297   8.089  17.985  0.00  0.00    +0.000 A 
ATOM      4  C   UNL     1       1.420   9.179  17.926  0.00  0.00    +0.000 A 
ATOM      5  C   UNL     1       0.740   9.611  19.074  0.00  0.00    +0.000 A 
ATOM      6  C   UNL     1       0.986   8.957  20.290  0.00  0.00    +0.000 A 
ATOM      7  C   UNL     1       1.846   7.859  20.347  0.00  0.00    +0.000 A 
BRANCH   5   8
ATOM      8  C   UNL     1      -0.258  10.744  19.024  0.00  0.00    +0.000 C 
ATOM      9  F   UNL     1      -1.376  10.459  18.300  0.00  0.00    +0.000 F 
ATOM     10  F   UNL     1      -0.701  11.090  20.266  0.00  0.00    +0.000 F 
ATOM     11  F   UNL     1       0.260  11.881  18.487  0.00  0.00    +0.000 F 
ENDBRANCH   5   8
ENDBRANCH   1   2
BRANCH   1  12
ATOM     12  C   UNL     1       2.522   4.885  19.663  0.00  0.00    +0.000 A 
ATOM     13  C   UNL     1       2.428   4.442  20.986  0.00  0.00    +0.000 A 
ATOM     14  N   UNL     1       1.704   3.359  21.360  0.00  0.00    +0.000 NA
ATOM     15  C   UNL     1       1.071   2.711  20.361  0.00  0.00    +0.000 A 
ATOM     16  C   UNL     1       1.169   3.117  19.041  0.00  0.00    +0.000 A 
ATOM     17  N   UNL     1       1.895   4.198  18.659  0.00  0.00    +0.000 NA
ENDBRANCH   1  12
BRANCH   1  18
ATOM     18  N   UNL     1       4.068   5.851  17.996  0.00  0.00    +0.000 NA
ATOM     19  H   UNL     1       3.526   5.233  17.387  0.00  0.00    +0.000 HD
BRANCH  18  21
ATOM     20  O   UNL     1       6.354   6.850  17.925  0.00  0.00    +0.000 OA
ATOM     21  S   UNL     1       5.712   5.555  17.977  0.00  0.00    +0.000 S 
ATOM     22  O   UNL     1       6.053   4.592  18.999  0.00  0.00    +0.000 OA
BRANCH  21  23
ATOM     23  C   UNL     1       6.039   4.769  16.405  0.00  0.00    +0.000 A 
ATOM     24  C   UNL     1       5.029   4.012  15.793  0.00  0.00    +0.000 A 
ATOM     25  C   UNL     1       5.163   3.625  14.456  0.00  0.00    +0.000 A 
ATOM     26  C   UNL     1       6.293   3.997  13.714  0.00  0.00    +0.000 A 
ATOM     27  C   UNL     1       7.312   4.727  14.347  0.00  0.00    +0.000 A 
ATOM     28  C   UNL     1       7.182   5.120  15.683  0.00  0.00    +0.000 A 
BRANCH  26  29
ATOM     29  C   UNL     1       6.405   3.678  12.237  0.00  0.00    +0.000 C 
ATOM     30  F   UNL     1       7.196   4.544  11.545  0.00  0.00    +0.000 F 
ATOM     31  F   UNL     1       6.929   2.437  12.015  0.00  0.00    +0.000 F 
ATOM     32  F   UNL     1       5.197   3.689  11.608  0.00  0.00    +0.000 F 
ENDBRANCH  26  29
ENDBRANCH  21  23
ENDBRANCH  18  21
ENDBRANCH   1  18
TORSDOF 7
ENDMDL
MODEL 5
REMARK VINA RESULT:      -9.1      0.660      1.474
REMARK  Name = 
REMARK  7 active torsions:
REMARK  status: ('A' for Active; 'I' for Inactive)
REMARK    1  A    between atoms: S_2  and  N_4
REMARK    2  A    between atoms: S_2  and  C_22
REMARK    3  A    between atoms: N_4  and  C_5
REMARK    4  A    between atoms: C_5  and  C_6
REMARK    5  A    between atoms: C_5  and  C_16
REMARK    6  A    between atoms: C_9  and  C_10
REMARK    7  A    between atoms: C_25  and  C_26
REMARK                            x       y       z     vdW  Elec       q    Type
REMARK                         _______ _______ _______ _____ _____    ______ ____
ROOT
ATOM      1  C   UNL     1       3.425   6.035  19.305  0.00  0.00    +0.000 C 
ENDROOT
BRANCH   1   2
ATOM      2  C   UNL     1       2.493   7.245  19.275  0.00  0.00    +0.000 A 
ATOM      3  C   UNL     1       1.810   7.679  20.425  0.00  0.00    +0.000 A 
ATOM      4  C   UNL     1       1.055   8.858  20.402  0.00  0.00    +0.000 A 
ATOM      5  C   UNL     1       0.948   9.614  19.225  0.00  0.00    +0.000 A 
ATOM      6  C   UNL     1       1.577   9.146  18.063  0.00  0.00    +0.000 A 
ATOM      7  C   UNL     1       2.345   7.980  18.089  0.00  0.00    +0.000 A 
BRANCH   5   8
ATOM      8  C   UNL     1       0.191  10.920  19.190  0.00  0.00    +0.000 C 
ATOM      9  F   UNL     1       0.787  11.880  18.429  0.00  0.00    +0.000 F 
ATOM     10  F   UNL     1      -1.064  10.770  18.676  0.00  0.00    +0.000 F 
ATOM     11  F   UNL     1       0.022  11.467  20.423  0.00  0.00    +0.000 F 
ENDBRANCH   5   8
ENDBRANCH   1   2
BRANCH   1  12
ATOM     12  C   UNL     1       2.690   4.733  19.696  0.00  0.00    +0.000 A 
ATOM     13  C   UNL     1       2.283   4.463  21.006  0.00  0.00    +0.000 A 
ATOM     14  N   UNL     1       1.630   3.331  21.366  0.00  0.00    +0.000 NA
ATOM     15  C   UNL     1       1.397   2.454  20.368  0.00  0.00    +0.000 A 
ATOM     16  C   UNL     1       1.812   2.690  19.069  0.00  0.00    +0.000 A 
ATOM     17  N   UNL     1       2.469   3.819  18.702  0.00  0.00    +0.000 NA
ENDBRANCH   1  12
BRANCH   1  18
ATOM     18  N   UNL     1       4.146   5.829  18.029  0.00  0.00    +0.000 NA
ATOM     19  H   UNL     1       3.609   5.233  17.392  0.00  0.00    +0.000 HD
BRANCH  18  21
ATOM     20  O   UNL     1       6.415   6.863  17.922  0.00  0.00    +0.000 OA
ATOM     21  S   UNL     1       5.793   5.558  17.989  0.00  0.00    +0.000 S 
ATOM     22  O   UNL     1       6.163   4.605  19.010  0.00  0.00    +0.000 OA
BRANCH  21  23
ATOM     23  C   UNL     1       6.111   4.770  16.415  0.00  0.00    +0.000 A 
ATOM     24  C   UNL     1       5.119   3.963  15.840  0.00  0.00    +0.000 A 
ATOM     25  C   UNL     1       5.232   3.566  14.503  0.00  0.00    +0.000 A 
ATOM     26  C   UNL     1       6.323   3.980  13.726  0.00  0.00    +0.000 A 
ATOM     27  C   UNL     1       7.327   4.763  14.322  0.00  0.00    +0.000 A 
ATOM     28  C   UNL     1       7.217   5.164  15.657  0.00  0.00    +0.000 A 
BRANCH  26  29
ATOM     29  C   UNL     1       6.408   3.650  12.249  0.00  0.00    +0.000 C 
ATOM     30  F   UNL     1       6.966   2.436  11.987  0.00  0.00    +0.000 F 
ATOM     31  F   UNL     1       5.181   3.633  11.652  0.00  0.00    +0.000 F 
ATOM     32  F   UNL     1       7.147   4.559  11.554  0.00  0.00    +0.000 F 
ENDBRANCH  26  29
ENDBRANCH  21  23
ENDBRANCH  18  21
ENDBRANCH   1  18
TORSDOF 7
ENDMDL
MODEL 6
REMARK VINA RESULT:      -8.9      0.642      1.570
REMARK  Name = 
REMARK  7 active torsions:
REMARK  status: ('A' for Active; 'I' for Inactive)
REMARK    1  A    between atoms: S_2  and  N_4
REMARK    2  A    between atoms: S_2  and  C_22
REMARK    3  A    between atoms: N_4  and  C_5
REMARK    4  A    between atoms: C_5  and  C_6
REMARK    5  A    between atoms: C_5  and  C_16
REMARK    6  A    between atoms: C_9  and  C_10
REMARK    7  A    between atoms: C_25  and  C_26
REMARK                            x       y       z     vdW  Elec       q    Type
REMARK                         _______ _______ _______ _____ _____    ______ ____
ROOT
ATOM      1  C   UNL     1       3.387   6.133  19.287  0.00  0.00    +0.000 C 
ENDROOT
BRANCH   1   2
ATOM      2  C   UNL     1       2.459   7.344  19.225  0.00  0.00    +0.000 A 
ATOM      3  C   UNL     1       1.765   7.802  20.360  0.00  0.00    +0.000 A 
ATOM      4  C   UNL     1       1.014   8.981  20.306  0.00  0.00    +0.000 A 
ATOM      5  C   UNL     1       0.921   9.716  19.116  0.00  0.00    +0.000 A 
ATOM      6  C   UNL     1       1.561   9.225  17.968  0.00  0.00    +0.000 A 
ATOM      7  C   UNL     1       2.326   8.059  18.024  0.00  0.00    +0.000 A 
BRANCH   5   8
ATOM      8  C   UNL     1       0.168  11.024  19.048  0.00  0.00    +0.000 C 
ATOM      9  F   UNL     1      -0.069  11.585  20.267  0.00  0.00    +0.000 F 
ATOM     10  F   UNL     1       0.845  11.968  18.334  0.00  0.00    +0.000 F 
ATOM     11  F   UNL     1      -1.046  10.904  18.445  0.00  0.00    +0.000 F 
ENDBRANCH   5   8
ENDBRANCH   1   2
BRANCH   1  12
ATOM     12  C   UNL     1       2.612   4.798  19.338  0.00  0.00    +0.000 A 
ATOM     13  C   UNL     1       2.286   4.161  20.540  0.00  0.00    +0.000 A 
ATOM     14  N   UNL     1       1.599   2.994  20.604  0.00  0.00    +0.000 NA
ATOM     15  C   UNL     1       1.247   2.463  19.415  0.00  0.00    +0.000 A 
ATOM     16  C   UNL     1       1.579   3.063  18.213  0.00  0.00    +0.000 A 
ATOM     17  N   UNL     1       2.269   4.229  18.141  0.00  0.00    +0.000 NA
ENDBRANCH   1  12
BRANCH   1  18
ATOM     18  N   UNL     1       4.362   6.095  18.173  0.00  0.00    +0.000 NA
ATOM     19  H   UNL     1       3.890   5.977  17.272  0.00  0.00    +0.000 HD
BRANCH  18  21
ATOM     20  O   UNL     1       6.827   6.257  18.528  0.00  0.00    +0.000 OA
ATOM     21  S   UNL     1       5.803   5.260  18.301  0.00  0.00    +0.000 S 
ATOM     22  O   UNL     1       5.645   4.133  19.192  0.00  0.00    +0.000 OA
BRANCH  21  23
ATOM     23  C   UNL     1       6.111   4.586  16.674  0.00  0.00    +0.000 A 
ATOM     24  C   UNL     1       5.299   3.547  16.196  0.00  0.00    +0.000 A 
ATOM     25  C   UNL     1       5.340   3.196  14.843  0.00  0.00    +0.000 A 
ATOM     26  C   UNL     1       6.177   3.884  13.952  0.00  0.00    +0.000 A 
ATOM     27  C   UNL     1       7.009   4.901  14.448  0.00  0.00    +0.000 A 
ATOM     28  C   UNL     1       6.970   5.258  15.800  0.00  0.00    +0.000 A 
BRANCH  26  29
ATOM     29  C   UNL     1       6.156   3.590  12.466  0.00  0.00    +0.000 C 
ATOM     30  F   UNL     1       4.983   3.918  11.857  0.00  0.00    +0.000 F 
ATOM     31  F   UNL     1       7.128   4.270  11.791  0.00  0.00    +0.000 F 
ATOM     32  F   UNL     1       6.365   2.273  12.192  0.00  0.00    +0.000 F 
ENDBRANCH  26  29
ENDBRANCH  21  23
ENDBRANCH  18  21
ENDBRANCH   1  18
TORSDOF 7
ENDMDL
MODEL 7
REMARK VINA RESULT:      -8.8      3.592      4.276
REMARK  Name = 
REMARK  7 active torsions:
REMARK  status: ('A' for Active; 'I' for Inactive)
REMARK    1  A    between atoms: S_2  and  N_4
REMARK    2  A    between atoms: S_2  and  C_22
REMARK    3  A    between atoms: N_4  and  C_5
REMARK    4  A    between atoms: C_5  and  C_6
REMARK    5  A    between atoms: C_5  and  C_16
REMARK    6  A    between atoms: C_9  and  C_10
REMARK    7  A    between atoms: C_25  and  C_26
REMARK                            x       y       z     vdW  Elec       q    Type
REMARK                         _______ _______ _______ _____ _____    ______ ____
ROOT
ATOM      1  C   UNL     1       3.469   5.722  19.322  0.00  0.00    +0.000 C 
ENDROOT
BRANCH   1   2
ATOM      2  C   UNL     1       2.707   7.038  19.187  0.00  0.00    +0.000 A 
ATOM      3  C   UNL     1       2.685   7.758  17.979  0.00  0.00    +0.000 A 
ATOM      4  C   UNL     1       1.885   8.899  17.846  0.00  0.00    +0.000 A 
ATOM      5  C   UNL     1       1.110   9.358  18.921  0.00  0.00    +0.000 A 
ATOM      6  C   UNL     1       1.183   8.677  20.144  0.00  0.00    +0.000 A 
ATOM      7  C   UNL     1       1.965   7.528  20.274  0.00  0.00    +0.000 A 
BRANCH   5   8
ATOM      8  C   UNL     1       0.193  10.550  18.784  0.00  0.00    +0.000 C 
ATOM      9  F   UNL     1       0.845  11.718  18.523  0.00  0.00    +0.000 F 
ATOM     10  F   UNL     1      -0.703  10.392  17.768  0.00  0.00    +0.000 F 
ATOM     11  F   UNL     1      -0.551  10.776  19.901  0.00  0.00    +0.000 F 
ENDBRANCH   5   8
ENDBRANCH   1   2
BRANCH   1  12
ATOM     12  C   UNL     1       2.615   4.609  19.970  0.00  0.00    +0.000 A 
ATOM     13  C   UNL     1       2.792   4.200  21.295  0.00  0.00    +0.000 A 
ATOM     14  N   UNL     1       2.047   3.232  21.883  0.00  0.00    +0.000 NA
ATOM     15  C   UNL     1       1.109   2.666  21.097  0.00  0.00    +0.000 A 
ATOM     16  C   UNL     1       0.932   3.038  19.776  0.00  0.00    +0.000 A 
ATOM     17  N   UNL     1       1.676   4.003  19.180  0.00  0.00    +0.000 NA
ENDBRANCH   1  12
BRANCH   1  18
ATOM     18  N   UNL     1       4.016   5.236  18.035  0.00  0.00    +0.000 NA
ATOM     19  H   UNL     1       3.311   4.715  17.506  0.00  0.00    +0.000 HD
BRANCH  18  21
ATOM     20  O   UNL     1       5.825   3.966  19.194  0.00  0.00    +0.000 OA
ATOM     21  S   UNL     1       5.558   4.603  17.922  0.00  0.00    +0.000 S 
ATOM     22  O   UNL     1       5.707   3.882  16.679  0.00  0.00    +0.000 OA
BRANCH  21  23
ATOM     23  C   UNL     1       6.650   6.015  17.829  0.00  0.00    +0.000 A 
ATOM     24  C   UNL     1       6.280   7.119  17.047  0.00  0.00    +0.000 A 
ATOM     25  C   UNL     1       6.972   8.327  17.176  0.00  0.00    +0.000 A 
ATOM     26  C   UNL     1       8.026   8.452  18.091  0.00  0.00    +0.000 A 
ATOM     27  C   UNL     1       8.409   7.331  18.846  0.00  0.00    +0.000 A 
ATOM     28  C   UNL     1       7.718   6.121  18.724  0.00  0.00    +0.000 A 
BRANCH  26  29
ATOM     29  C   UNL     1       8.717   9.782  18.321  0.00  0.00    +0.000 C 
ATOM     30  F   UNL     1       7.929  10.863  18.066  0.00  0.00    +0.000 F 
ATOM     31  F   UNL     1       9.141   9.927  19.610  0.00  0.00    +0.000 F 
ATOM     32  F   UNL     1       9.825   9.934  17.546  0.00  0.00    +0.000 F 
ENDBRANCH  26  29
ENDBRANCH  21  23
ENDBRANCH  18  21
ENDBRANCH   1  18
TORSDOF 7
ENDMDL
MODEL 8
REMARK VINA RESULT:      -8.7      0.851      1.966
REMARK  Name = 
REMARK  7 active torsions:
REMARK  status: ('A' for Active; 'I' for Inactive)
REMARK    1  A    between atoms: S_2  and  N_4
REMARK    2  A    between atoms: S_2  and  C_22
REMARK    3  A    between atoms: N_4  and  C_5
REMARK    4  A    between atoms: C_5  and  C_6
REMARK    5  A    between atoms: C_5  and  C_16
REMARK    6  A    between atoms: C_9  and  C_10
REMARK    7  A    between atoms: C_25  and  C_26
REMARK                            x       y       z     vdW  Elec       q    Type
REMARK                         _______ _______ _______ _____ _____    ______ ____
ROOT
ATOM      1  C   UNL     1       3.320   5.833  19.453  0.00  0.00    +0.000 C 
ENDROOT
BRANCH   1   2
ATOM      2  C   UNL     1       2.470   7.095  19.327  0.00  0.00    +0.000 A 
ATOM      3  C   UNL     1       1.816   7.659  20.436  0.00  0.00    +0.000 A 
ATOM      4  C   UNL     1       1.139   8.879  20.319  0.00  0.00    +0.000 A 
ATOM      5  C   UNL     1       1.083   9.549  19.089  0.00  0.00    +0.000 A 
ATOM      6  C   UNL     1       1.680   8.954  17.968  0.00  0.00    +0.000 A 
ATOM      7  C   UNL     1       2.371   7.746  18.087  0.00  0.00    +0.000 A 
BRANCH   5   8
ATOM      8  C   UNL     1       0.412  10.895  18.950  0.00  0.00    +0.000 C 
ATOM      9  F   UNL     1      -0.559  10.929  17.994  0.00  0.00    +0.000 F 
ATOM     10  F   UNL     1      -0.195  11.286  20.107  0.00  0.00    +0.000 F 
ATOM     11  F   UNL     1       1.285  11.890  18.636  0.00  0.00    +0.000 F 
ENDBRANCH   5   8
ENDBRANCH   1   2
BRANCH   1  12
ATOM     12  C   UNL     1       2.549   4.663  20.103  0.00  0.00    +0.000 A 
ATOM     13  C   UNL     1       2.719   4.300  21.442  0.00  0.00    +0.000 A 
ATOM     14  N   UNL     1       2.045   3.282  22.032  0.00  0.00    +0.000 NA
ATOM     15  C   UNL     1       1.185   2.618  21.233  0.00  0.00    +0.000 A 
ATOM     16  C   UNL     1       1.017   2.944  19.898  0.00  0.00    +0.000 A 
ATOM     17  N   UNL     1       1.691   3.959  19.301  0.00  0.00    +0.000 NA
ENDBRANCH   1  12
BRANCH   1  18
ATOM     18  N   UNL     1       3.892   5.389  18.161  0.00  0.00    +0.000 NA
ATOM     19  H   UNL     1       3.321   4.652  17.738  0.00  0.00    +0.000 HD
BRANCH  18  21
ATOM     20  O   UNL     1       6.152   6.433  18.334  0.00  0.00    +0.000 OA
ATOM     21  S   UNL     1       5.536   5.179  17.958  0.00  0.00    +0.000 S 
ATOM     22  O   UNL     1       5.953   3.932  18.558  0.00  0.00    +0.000 OA
BRANCH  21  23
ATOM     23  C   UNL     1       5.783   5.006  16.196  0.00  0.00    +0.000 A 
ATOM     24  C   UNL     1       7.078   5.119  15.670  0.00  0.00    +0.000 A 
ATOM     25  C   UNL     1       7.333   4.719  14.354  0.00  0.00    +0.000 A 
ATOM     26  C   UNL     1       6.307   4.191  13.557  0.00  0.00    +0.000 A 
ATOM     27  C   UNL     1       5.007   4.112  14.084  0.00  0.00    +0.000 A 
ATOM     28  C   UNL     1       4.747   4.508  15.400  0.00  0.00    +0.000 A 
BRANCH  26  29
ATOM     29  C   UNL     1       6.587   3.654  12.168  0.00  0.00    +0.000 C 
ATOM     30  F   UNL     1       5.465   3.432  11.427  0.00  0.00    +0.000 F 
ATOM     31  F   UNL     1       7.357   4.505  11.430  0.00  0.00    +0.000 F 
ATOM     32  F   UNL     1       7.260   2.470  12.192  0.00  0.00    +0.000 F 
ENDBRANCH  26  29
ENDBRANCH  21  23
ENDBRANCH  18  21
ENDBRANCH   1  18
TORSDOF 7
ENDMDL
MODEL 9
REMARK VINA RESULT:      -8.6      3.674      4.335
REMARK  Name = 
REMARK  7 active torsions:
REMARK  status: ('A' for Active; 'I' for Inactive)
REMARK    1  A    between atoms: S_2  and  N_4
REMARK    2  A    between atoms: S_2  and  C_22
REMARK    3  A    between atoms: N_4  and  C_5
REMARK    4  A    between atoms: C_5  and  C_6
REMARK    5  A    between atoms: C_5  and  C_16
REMARK    6  A    between atoms: C_9  and  C_10
REMARK    7  A    between atoms: C_25  and  C_26
REMARK                            x       y       z     vdW  Elec       q    Type
REMARK                         _______ _______ _______ _____ _____    ______ ____
ROOT
ATOM      1  C   UNL     1       3.415   5.645  19.015  0.00  0.00    +0.000 C 
ENDROOT
BRANCH   1   2
ATOM      2  C   UNL     1       2.709   6.999  19.028  0.00  0.00    +0.000 A 
ATOM      3  C   UNL     1       2.699   7.838  17.899  0.00  0.00    +0.000 A 
ATOM      4  C   UNL     1       1.948   9.019  17.897  0.00  0.00    +0.000 A 
ATOM      5  C   UNL     1       1.209   9.398  19.027  0.00  0.00    +0.000 A 
ATOM      6  C   UNL     1       1.270   8.593  20.174  0.00  0.00    +0.000 A 
ATOM      7  C   UNL     1       2.005   7.406  20.172  0.00  0.00    +0.000 A 
BRANCH   5   8
ATOM      8  C   UNL     1       0.342  10.634  19.028  0.00  0.00    +0.000 C 
ATOM      9  F   UNL     1       0.108  11.140  20.272  0.00  0.00    +0.000 F 
ATOM     10  F   UNL     1       0.902  11.653  18.316  0.00  0.00    +0.000 F 
ATOM     11  F   UNL     1      -0.881  10.423  18.471  0.00  0.00    +0.000 F 
ENDBRANCH   5   8
ENDBRANCH   1   2
BRANCH   1  12
ATOM     12  C   UNL     1       2.432   4.464  19.170  0.00  0.00    +0.000 A 
ATOM     13  C   UNL     1       1.697   3.950  18.097  0.00  0.00    +0.000 A 
ATOM     14  N   UNL     1       0.836   2.909  18.212  0.00  0.00    +0.000 NA
ATOM     15  C   UNL     1       0.718   2.390  19.451  0.00  0.00    +0.000 A 
ATOM     16  C   UNL     1       1.417   2.898  20.533  0.00  0.00    +0.000 A 
ATOM     17  N   UNL     1       2.277   3.941  20.425  0.00  0.00    +0.000 NA
ENDBRANCH   1  12
BRANCH   1  18
ATOM     18  N   UNL     1       4.247   5.439  17.808  0.00  0.00    +0.000 NA
ATOM     19  H   UNL     1       3.693   5.053  17.038  0.00  0.00    +0.000 HD
BRANCH  18  21
ATOM     20  O   UNL     1       5.919   4.254  19.232  0.00  0.00    +0.000 OA
ATOM     21  S   UNL     1       5.796   4.823  17.907  0.00  0.00    +0.000 S 
ATOM     22  O   UNL     1       6.096   4.044  16.728  0.00  0.00    +0.000 OA
BRANCH  21  23
ATOM     23  C   UNL     1       6.881   6.244  17.870  0.00  0.00    +0.000 A 
ATOM     24  C   UNL     1       6.532   7.353  17.085  0.00  0.00    +0.000 A 
ATOM     25  C   UNL     1       7.209   8.565  17.252  0.00  0.00    +0.000 A 
ATOM     26  C   UNL     1       8.227   8.688  18.208  0.00  0.00    +0.000 A 
ATOM     27  C   UNL     1       8.589   7.562  18.966  0.00  0.00    +0.000 A 
ATOM     28  C   UNL     1       7.913   6.348  18.806  0.00  0.00    +0.000 A 
BRANCH  26  29
ATOM     29  C   UNL     1       8.898  10.021  18.477  0.00  0.00    +0.000 C 
ATOM     30  F   UNL     1       9.986  10.257  17.694  0.00  0.00    +0.000 F 
ATOM     31  F   UNL     1       8.055  11.074  18.271  0.00  0.00    +0.000 F 
ATOM     32  F   UNL     1       9.329  10.137  19.764  0.00  0.00    +0.000 F 
ENDBRANCH  26  29
ENDBRANCH  21  23
ENDBRANCH  18  21
ENDBRANCH   1  18
TORSDOF 7
ENDMDL
