MODEL 1
REMARK VINA RESULT:      -6.7      0.000      0.000
REMARK  Name = 
REMARK  8 active torsions:
REMARK  status: ('A' for Active; 'I' for Inactive)
REMARK    1  A    between atoms: C_1  and  S_2
REMARK    2  A    between atoms: S_2  and  C_3
REMARK    3  A    between atoms: C_6  and  C_7
REMARK    4  A    between atoms: C_8  and  C_9
REMARK    5  A    between atoms: C_8  and  N_18
REMARK    6  A    between atoms: C_9  and  C_10
REMARK    7  A    between atoms: C_13  and  S_14
REMARK    8  A    between atoms: S_14  and  C_15
REMARK                            x       y       z     vdW  Elec       q    Type
REMARK                         _______ _______ _______ _____ _____    ______ ____
ROOT
ATOM      1  C   UNL     1       3.333   6.380  18.643  0.00  0.00    +0.000 C 
ATOM      2  C   UNL     1       3.175   5.066  18.394  0.00  0.00    +0.000 C 
ENDROOT
BRANCH   1   6
ATOM      3  C   UNL     1       0.710   9.665  19.526  0.00  0.00    +0.000 A 
ATOM      4  C   UNL     1       1.096   8.761  20.515  0.00  0.00    +0.000 A 
ATOM      5  C   UNL     1       1.918   7.674  20.194  0.00  0.00    +0.000 A 
ATOM      6  C   UNL     1       2.366   7.468  18.879  0.00  0.00    +0.000 A 
ATOM      7  C   UNL     1       1.975   8.384  17.897  0.00  0.00    +0.000 A 
ATOM      8  C   UNL     1       1.143   9.465  18.215  0.00  0.00    +0.000 A 
BRANCH   3  10
ATOM      9  C   UNL     1      -1.093  11.319  18.316  0.00  0.00    +0.000 C 
ATOM     10  S   UNL     1      -0.316  11.063  19.933  0.00  0.00    +0.000 S 
ENDBRANCH   3  10
ENDBRANCH   1   6
BRANCH   2  11
ATOM     11  N   UNL     1       1.861   4.479  18.462  0.00  0.00    +0.000 N 
ATOM     12  O   UNL     1       1.243   4.373  17.396  0.00  0.00    +0.000 OA
ATOM     13  O   UNL     1       1.422   4.205  19.586  0.00  0.00    +0.000 OA
ENDBRANCH   2  11
BRANCH   2  14
ATOM     14  C   UNL     1       4.255   4.047  18.191  0.00  0.00    +0.000 C 
BRANCH  14  15
ATOM     15  C   UNL     1       5.116   4.347  16.985  0.00  0.00    +0.000 A 
ATOM     16  C   UNL     1       4.582   4.277  15.692  0.00  0.00    +0.000 A 
ATOM     17  C   UNL     1       5.400   4.467  14.576  0.00  0.00    +0.000 A 
ATOM     18  C   UNL     1       6.766   4.733  14.721  0.00  0.00    +0.000 A 
ATOM     19  C   UNL     1       7.298   4.814  16.010  0.00  0.00    +0.000 A 
ATOM     20  C   UNL     1       6.480   4.626  17.132  0.00  0.00    +0.000 A 
BRANCH  18  21
ATOM     21  S   UNL     1       7.738   4.867  13.225  0.00  0.00    +0.000 S 
ATOM     22  C   UNL     1       6.855   3.777  12.079  0.00  0.00    +0.000 C 
ENDBRANCH  18  21
ENDBRANCH  14  15
ENDBRANCH   2  14
TORSDOF 6
ENDMDL
MODEL 2
REMARK VINA RESULT:      -6.6      0.808      1.518
REMARK  Name = 
REMARK  8 active torsions:
REMARK  status: ('A' for Active; 'I' for Inactive)
REMARK    1  A    between atoms: C_1  and  S_2
REMARK    2  A    between atoms: S_2  and  C_3
REMARK    3  A    between atoms: C_6  and  C_7
REMARK    4  A    between atoms: C_8  and  C_9
REMARK    5  A    between atoms: C_8  and  N_18
REMARK    6  A    between atoms: C_9  and  C_10
REMARK    7  A    between atoms: C_13  and  S_14
REMARK    8  A    between atoms: S_14  and  C_15
REMARK                            x       y       z     vdW  Elec       q    Type
REMARK                         _______ _______ _______ _____ _____    ______ ____
ROOT
ATOM      1  C   UNL     1       3.385   6.503  19.015  0.00  0.00    +0.000 C 
ATOM      2  C   UNL     1       3.352   5.201  19.355  0.00  0.00    +0.000 C 
ENDROOT
BRANCH   1   6
ATOM      3  C   UNL     1       0.582   9.741  19.351  0.00  0.00    +0.000 A 
ATOM      4  C   UNL     1       0.901   8.943  20.448  0.00  0.00    +0.000 A 
ATOM      5  C   UNL     1       1.785   7.867  20.305  0.00  0.00    +0.000 A 
ATOM      6  C   UNL     1       2.365   7.567  19.062  0.00  0.00    +0.000 A 
ATOM      7  C   UNL     1       2.041   8.377  17.968  0.00  0.00    +0.000 A 
ATOM      8  C   UNL     1       1.146   9.447  18.109  0.00  0.00    +0.000 A 
BRANCH   3  10
ATOM      9  C   UNL     1      -1.578  10.832  18.089  0.00  0.00    +0.000 C 
ATOM     10  S   UNL     1      -0.523  11.126  19.533  0.00  0.00    +0.000 S 
ENDBRANCH   3  10
ENDBRANCH   1   6
BRANCH   2  11
ATOM     11  N   UNL     1       2.186   4.662  20.006  0.00  0.00    +0.000 N 
ATOM     12  O   UNL     1       2.257   4.501  21.231  0.00  0.00    +0.000 OA
ATOM     13  O   UNL     1       1.240   4.324  19.284  0.00  0.00    +0.000 OA
ENDBRANCH   2  11
BRANCH   2  14
ATOM     14  C   UNL     1       4.480   4.217  19.280  0.00  0.00    +0.000 C 
BRANCH  14  15
ATOM     15  C   UNL     1       5.170   4.228  17.934  0.00  0.00    +0.000 A 
ATOM     16  C   UNL     1       6.512   4.613  17.825  0.00  0.00    +0.000 A 
ATOM     17  C   UNL     1       7.122   4.708  16.571  0.00  0.00    +0.000 A 
ATOM     18  C   UNL     1       6.411   4.418  15.401  0.00  0.00    +0.000 A 
ATOM     19  C   UNL     1       5.076   4.022  15.510  0.00  0.00    +0.000 A 
ATOM     20  C   UNL     1       4.462   3.924  16.766  0.00  0.00    +0.000 A 
BRANCH  18  21
ATOM     21  S   UNL     1       7.261   4.661  13.846  0.00  0.00    +0.000 S 
ATOM     22  C   UNL     1       6.314   3.615  12.709  0.00  0.00    +0.000 C 
ENDBRANCH  18  21
ENDBRANCH  14  15
ENDBRANCH   2  14
TORSDOF 6
ENDMDL
MODEL 3
REMARK VINA RESULT:      -6.6      0.271      1.250
REMARK  Name = 
REMARK  8 active torsions:
REMARK  status: ('A' for Active; 'I' for Inactive)
REMARK    1  A    between atoms: C_1  and  S_2
REMARK    2  A    between atoms: S_2  and  C_3
REMARK    3  A    between atoms: C_6  and  C_7
REMARK    4  A    between atoms: C_8  and  C_9
REMARK    5  A    between atoms: C_8  and  N_18
REMARK    6  A    between atoms: C_9  and  C_10
REMARK    7  A    between atoms: C_13  and  S_14
REMARK    8  A    between atoms: S_14  and  C_15
REMARK                            x       y       z     vdW  Elec       q    Type
REMARK                         _______ _______ _______ _____ _____    ______ ____
ROOT
ATOM      1  C   UNL     1       3.414   6.374  18.637  0.00  0.00    +0.000 C 
ATOM      2  C   UNL     1       3.174   5.079  18.360  0.00  0.00    +0.000 C 
ENDROOT
BRANCH   1   6
ATOM      3  C   UNL     1       0.616   9.572  19.268  0.00  0.00    +0.000 A 
ATOM      4  C   UNL     1       1.195   9.352  18.019  0.00  0.00    +0.000 A 
ATOM      5  C   UNL     1       2.136   8.330  17.848  0.00  0.00    +0.000 A 
ATOM      6  C   UNL     1       2.519   7.510  18.922  0.00  0.00    +0.000 A 
ATOM      7  C   UNL     1       1.928   7.737  20.170  0.00  0.00    +0.000 A 
ATOM      8  C   UNL     1       0.995   8.768  20.345  0.00  0.00    +0.000 A 
BRANCH   3  10
ATOM      9  C   UNL     1      -1.616  10.527  18.021  0.00  0.00    +0.000 C 
ATOM     10  S   UNL     1      -0.600  10.855  19.486  0.00  0.00    +0.000 S 
ENDBRANCH   3  10
ENDBRANCH   1   6
BRANCH   2  11
ATOM     11  N   UNL     1       1.830   4.567  18.444  0.00  0.00    +0.000 N 
ATOM     12  O   UNL     1       1.412   4.284  19.574  0.00  0.00    +0.000 OA
ATOM     13  O   UNL     1       1.231   4.373  17.380  0.00  0.00    +0.000 OA
ENDBRANCH   2  11
BRANCH   2  14
ATOM     14  C   UNL     1       4.187   4.004  18.108  0.00  0.00    +0.000 C 
BRANCH  14  15
ATOM     15  C   UNL     1       5.079   4.313  16.926  0.00  0.00    +0.000 A 
ATOM     16  C   UNL     1       4.578   4.247  15.620  0.00  0.00    +0.000 A 
ATOM     17  C   UNL     1       5.425   4.446  14.526  0.00  0.00    +0.000 A 
ATOM     18  C   UNL     1       6.785   4.716  14.708  0.00  0.00    +0.000 A 
ATOM     19  C   UNL     1       7.283   4.793  16.011  0.00  0.00    +0.000 A 
ATOM     20  C   UNL     1       6.437   4.597  17.111  0.00  0.00    +0.000 A 
BRANCH  18  21
ATOM     21  S   UNL     1       7.796   4.861  13.239  0.00  0.00    +0.000 S 
ATOM     22  C   UNL     1       6.894   3.850  12.036  0.00  0.00    +0.000 C 
ENDBRANCH  18  21
ENDBRANCH  14  15
ENDBRANCH   2  14
TORSDOF 6
ENDMDL
MODEL 4
REMARK VINA RESULT:      -6.6      0.907      1.883
REMARK  Name = 
REMARK  8 active torsions:
REMARK  status: ('A' for Active; 'I' for Inactive)
REMARK    1  A    between atoms: C_1  and  S_2
REMARK    2  A    between atoms: S_2  and  C_3
REMARK    3  A    between atoms: C_6  and  C_7
REMARK    4  A    between atoms: C_8  and  C_9
REMARK    5  A    between atoms: C_8  and  N_18
REMARK    6  A    between atoms: C_9  and  C_10
REMARK    7  A    between atoms: C_13  and  S_14
REMARK    8  A    between atoms: S_14  and  C_15
REMARK                            x       y       z     vdW  Elec       q    Type
REMARK                         _______ _______ _______ _____ _____    ______ ____
ROOT
ATOM      1  C   UNL     1       3.391   6.486  19.115  0.00  0.00    +0.000 C 
ATOM      2  C   UNL     1       3.285   5.183  19.432  0.00  0.00    +0.000 C 
ENDROOT
BRANCH   1   6
ATOM      3  C   UNL     1       0.446   9.613  19.182  0.00  0.00    +0.000 A 
ATOM      4  C   UNL     1       1.107   9.267  18.004  0.00  0.00    +0.000 A 
ATOM      5  C   UNL     1       2.093   8.273  18.015  0.00  0.00    +0.000 A 
ATOM      6  C   UNL     1       2.439   7.609  19.204  0.00  0.00    +0.000 A 
ATOM      7  C   UNL     1       1.767   7.963  20.378  0.00  0.00    +0.000 A 
ATOM      8  C   UNL     1       0.788   8.966  20.370  0.00  0.00    +0.000 A 
BRANCH   3  10
ATOM      9  C   UNL     1      -1.731  10.319  17.694  0.00  0.00    +0.000 C 
ATOM     10  S   UNL     1      -0.827  10.860  19.168  0.00  0.00    +0.000 S 
ENDBRANCH   3  10
ENDBRANCH   1   6
BRANCH   2  11
ATOM     11  N   UNL     1       2.103   4.704  20.102  0.00  0.00    +0.000 N 
ATOM     12  O   UNL     1       2.135   4.683  21.339  0.00  0.00    +0.000 OA
ATOM     13  O   UNL     1       1.186   4.274  19.393  0.00  0.00    +0.000 OA
ENDBRANCH   2  11
BRANCH   2  14
ATOM     14  C   UNL     1       4.348   4.133  19.314  0.00  0.00    +0.000 C 
BRANCH  14  15
ATOM     15  C   UNL     1       5.065   4.182  17.982  0.00  0.00    +0.000 A 
ATOM     16  C   UNL     1       6.415   4.547  17.913  0.00  0.00    +0.000 A 
ATOM     17  C   UNL     1       7.050   4.678  16.675  0.00  0.00    +0.000 A 
ATOM     18  C   UNL     1       6.358   4.445  15.482  0.00  0.00    +0.000 A 
ATOM     19  C   UNL     1       5.014   4.070  15.551  0.00  0.00    +0.000 A 
ATOM     20  C   UNL     1       4.374   3.936  16.789  0.00  0.00    +0.000 A 
BRANCH  18  21
ATOM     21  S   UNL     1       7.242   4.732  13.953  0.00  0.00    +0.000 S 
ATOM     22  C   UNL     1       6.347   3.686  12.775  0.00  0.00    +0.000 C 
ENDBRANCH  18  21
ENDBRANCH  14  15
ENDBRANCH   2  14
TORSDOF 6
ENDMDL
MODEL 5
REMARK VINA RESULT:      -6.6      0.954      1.440
REMARK  Name = 
REMARK  8 active torsions:
REMARK  status: ('A' for Active; 'I' for Inactive)
REMARK    1  A    between atoms: C_1  and  S_2
REMARK    2  A    between atoms: S_2  and  C_3
REMARK    3  A    between atoms: C_6  and  C_7
REMARK    4  A    between atoms: C_8  and  C_9
REMARK    5  A    between atoms: C_8  and  N_18
REMARK    6  A    between atoms: C_9  and  C_10
REMARK    7  A    between atoms: C_13  and  S_14
REMARK    8  A    between atoms: S_14  and  C_15
REMARK                            x       y       z     vdW  Elec       q    Type
REMARK                         _______ _______ _______ _____ _____    ______ ____
ROOT
ATOM      1  C   UNL     1       3.279   6.619  19.171  0.00  0.00    +0.000 C 
ATOM      2  C   UNL     1       3.214   5.277  19.248  0.00  0.00    +0.000 C 
ENDROOT
BRANCH   1   6
ATOM      3  C   UNL     1       0.426   9.821  19.421  0.00  0.00    +0.000 A 
ATOM      4  C   UNL     1       0.801   9.096  20.550  0.00  0.00    +0.000 A 
ATOM      5  C   UNL     1       1.701   8.030  20.438  0.00  0.00    +0.000 A 
ATOM      6  C   UNL     1       2.240   7.665  19.193  0.00  0.00    +0.000 A 
ATOM      7  C   UNL     1       1.859   8.403  18.067  0.00  0.00    +0.000 A 
ATOM      8  C   UNL     1       0.950   9.463  18.178  0.00  0.00    +0.000 A 
BRANCH   3  10
ATOM      9  C   UNL     1      -0.394  11.627  21.296  0.00  0.00    +0.000 C 
ATOM     10  S   UNL     1      -0.699  11.195  19.562  0.00  0.00    +0.000 S 
ENDBRANCH   3  10
ENDBRANCH   1   6
BRANCH   2  11
ATOM     11  N   UNL     1       1.953   4.637  19.523  0.00  0.00    +0.000 N 
ATOM     12  O   UNL     1       1.300   4.252  18.545  0.00  0.00    +0.000 OA
ATOM     13  O   UNL     1       1.584   4.597  20.703  0.00  0.00    +0.000 OA
ENDBRANCH   2  11
BRANCH   2  14
ATOM     14  C   UNL     1       4.361   4.313  19.237  0.00  0.00    +0.000 C 
BRANCH  14  15
ATOM     15  C   UNL     1       5.089   4.294  17.911  0.00  0.00    +0.000 A 
ATOM     16  C   UNL     1       6.455   4.594  17.844  0.00  0.00    +0.000 A 
ATOM     17  C   UNL     1       7.105   4.662  16.608  0.00  0.00    +0.000 A 
ATOM     18  C   UNL     1       6.412   4.431  15.416  0.00  0.00    +0.000 A 
ATOM     19  C   UNL     1       5.051   4.121  15.483  0.00  0.00    +0.000 A 
ATOM     20  C   UNL     1       4.396   4.049  16.719  0.00  0.00    +0.000 A 
BRANCH  18  21
ATOM     21  S   UNL     1       7.319   4.637  13.888  0.00  0.00    +0.000 S 
ATOM     22  C   UNL     1       6.374   3.618  12.725  0.00  0.00    +0.000 C 
ENDBRANCH  18  21
ENDBRANCH  14  15
ENDBRANCH   2  14
TORSDOF 6
ENDMDL
MODEL 6
REMARK VINA RESULT:      -6.5      0.657      1.017
REMARK  Name = 
REMARK  8 active torsions:
REMARK  status: ('A' for Active; 'I' for Inactive)
REMARK    1  A    between atoms: C_1  and  S_2
REMARK    2  A    between atoms: S_2  and  C_3
REMARK    3  A    between atoms: C_6  and  C_7
REMARK    4  A    between atoms: C_8  and  C_9
REMARK    5  A    between atoms: C_8  and  N_18
REMARK    6  A    between atoms: C_9  and  C_10
REMARK    7  A    between atoms: C_13  and  S_14
REMARK    8  A    between atoms: S_14  and  C_15
REMARK                            x       y       z     vdW  Elec       q    Type
REMARK                         _______ _______ _______ _____ _____    ______ ____
ROOT
ATOM      1  C   UNL     1       3.332   6.578  18.804  0.00  0.00    +0.000 C 
ATOM      2  C   UNL     1       3.228   5.245  18.649  0.00  0.00    +0.000 C 
ENDROOT
BRANCH   1   6
ATOM      3  C   UNL     1       0.572   9.799  19.486  0.00  0.00    +0.000 A 
ATOM      4  C   UNL     1       0.958   8.945  20.518  0.00  0.00    +0.000 A 
ATOM      5  C   UNL     1       1.826   7.877  20.264  0.00  0.00    +0.000 A 
ATOM      6  C   UNL     1       2.322   7.639  18.971  0.00  0.00    +0.000 A 
ATOM      7  C   UNL     1       1.931   8.504  17.944  0.00  0.00    +0.000 A 
ATOM      8  C   UNL     1       1.052   9.567  18.196  0.00  0.00    +0.000 A 
BRANCH   3  10
ATOM      9  C   UNL     1      -0.147  11.408  21.570  0.00  0.00    +0.000 C 
ATOM     10  S   UNL     1      -0.512  11.174  19.810  0.00  0.00    +0.000 S 
ENDBRANCH   3  10
ENDBRANCH   1   6
BRANCH   2  11
ATOM     11  N   UNL     1       1.939   4.610  18.767  0.00  0.00    +0.000 N 
ATOM     12  O   UNL     1       1.582   4.286  19.906  0.00  0.00    +0.000 OA
ATOM     13  O   UNL     1       1.333   4.363  17.718  0.00  0.00    +0.000 OA
ENDBRANCH   2  11
BRANCH   2  14
ATOM     14  C   UNL     1       4.348   4.259  18.510  0.00  0.00    +0.000 C 
BRANCH  14  15
ATOM     15  C   UNL     1       5.143   4.460  17.239  0.00  0.00    +0.000 A 
ATOM     16  C   UNL     1       4.524   4.357  15.988  0.00  0.00    +0.000 A 
ATOM     17  C   UNL     1       5.278   4.455  14.814  0.00  0.00    +0.000 A 
ATOM     18  C   UNL     1       6.661   4.660  14.862  0.00  0.00    +0.000 A 
ATOM     19  C   UNL     1       7.277   4.774  16.111  0.00  0.00    +0.000 A 
ATOM     20  C   UNL     1       6.525   4.679  17.289  0.00  0.00    +0.000 A 
BRANCH  18  21
ATOM     21  S   UNL     1       7.540   4.676  13.305  0.00  0.00    +0.000 S 
ATOM     22  C   UNL     1       6.538   3.576  12.271  0.00  0.00    +0.000 C 
ENDBRANCH  18  21
ENDBRANCH  14  15
ENDBRANCH   2  14
TORSDOF 6
ENDMDL
MODEL 7
REMARK VINA RESULT:      -6.5      0.332      1.063
REMARK  Name = 
REMARK  8 active torsions:
REMARK  status: ('A' for Active; 'I' for Inactive)
REMARK    1  A    between atoms: C_1  and  S_2
REMARK    2  A    between atoms: S_2  and  C_3
REMARK    3  A    between atoms: C_6  and  C_7
REMARK    4  A    between atoms: C_8  and  C_9
REMARK    5  A    between atoms: C_8  and  N_18
REMARK    6  A    between atoms: C_9  and  C_10
REMARK    7  A    between atoms: C_13  and  S_14
REMARK    8  A    between atoms: S_14  and  C_15
REMARK                            x       y       z     vdW  Elec       q    Type
REMARK                         _______ _______ _______ _____ _____    ______ ____
ROOT
ATOM      1  C   UNL     1       3.423   6.369  18.487  0.00  0.00    +0.000 C 
ATOM      2  C   UNL     1       3.266   5.041  18.328  0.00  0.00    +0.000 C 
ENDROOT
BRANCH   1   6
ATOM      3  C   UNL     1       0.788   9.703  19.114  0.00  0.00    +0.000 A 
ATOM      4  C   UNL     1       1.120   8.837  20.154  0.00  0.00    +0.000 A 
ATOM      5  C   UNL     1       1.947   7.733  19.917  0.00  0.00    +0.000 A 
ATOM      6  C   UNL     1       2.455   7.472  18.634  0.00  0.00    +0.000 A 
ATOM      7  C   UNL     1       2.118   8.349  17.598  0.00  0.00    +0.000 A 
ATOM      8  C   UNL     1       1.280   9.448  17.833  0.00  0.00    +0.000 A 
BRANCH   3  10
ATOM      9  C   UNL     1      -1.590  10.739  18.264  0.00  0.00    +0.000 C 
ATOM     10  S   UNL     1      -0.244  11.123  19.416  0.00  0.00    +0.000 S 
ENDBRANCH   3  10
ENDBRANCH   1   6
BRANCH   2  11
ATOM     11  N   UNL     1       1.950   4.461  18.420  0.00  0.00    +0.000 N 
ATOM     12  O   UNL     1       1.327   4.326  17.360  0.00  0.00    +0.000 OA
ATOM     13  O   UNL     1       1.515   4.224  19.553  0.00  0.00    +0.000 OA
ENDBRANCH   2  11
BRANCH   2  14
ATOM     14  C   UNL     1       4.346   4.009  18.212  0.00  0.00    +0.000 C 
BRANCH  14  15
ATOM     15  C   UNL     1       5.203   4.204  16.981  0.00  0.00    +0.000 A 
ATOM     16  C   UNL     1       6.470   4.793  17.080  0.00  0.00    +0.000 A 
ATOM     17  C   UNL     1       7.222   5.053  15.931  0.00  0.00    +0.000 A 
ATOM     18  C   UNL     1       6.733   4.729  14.662  0.00  0.00    +0.000 A 
ATOM     19  C   UNL     1       5.474   4.132  14.562  0.00  0.00    +0.000 A 
ATOM     20  C   UNL     1       4.717   3.868  15.711  0.00  0.00    +0.000 A 
BRANCH  18  21
ATOM     21  S   UNL     1       7.737   5.190  13.255  0.00  0.00    +0.000 S 
ATOM     22  C   UNL     1       7.085   4.132  11.937  0.00  0.00    +0.000 C 
ENDBRANCH  18  21
ENDBRANCH  14  15
ENDBRANCH   2  14
TORSDOF 6
ENDMDL
MODEL 8
REMARK VINA RESULT:      -6.4      0.628      1.201
REMARK  Name = 
REMARK  8 active torsions:
REMARK  status: ('A' for Active; 'I' for Inactive)
REMARK    1  A    between atoms: C_1  and  S_2
REMARK    2  A    between atoms: S_2  and  C_3
REMARK    3  A    between atoms: C_6  and  C_7
REMARK    4  A    between atoms: C_8  and  C_9
REMARK    5  A    between atoms: C_8  and  N_18
REMARK    6  A    between atoms: C_9  and  C_10
REMARK    7  A    between atoms: C_13  and  S_14
REMARK    8  A    between atoms: S_14  and  C_15
REMARK                            x       y       z     vdW  Elec       q    Type
REMARK                         _______ _______ _______ _____ _____    ______ ____
ROOT
ATOM      1  C   UNL     1       3.473   6.254  18.587  0.00  0.00    +0.000 C 
ATOM      2  C   UNL     1       3.213   4.967  18.290  0.00  0.00    +0.000 C 
ENDROOT
BRANCH   1   6
ATOM      3  C   UNL     1       0.732   9.464  19.388  0.00  0.00    +0.000 A 
ATOM      4  C   UNL     1       1.321   9.310  18.134  0.00  0.00    +0.000 A 
ATOM      5  C   UNL     1       2.243   8.281  17.908  0.00  0.00    +0.000 A 
ATOM      6  C   UNL     1       2.597   7.389  18.933  0.00  0.00    +0.000 A 
ATOM      7  C   UNL     1       1.997   7.550  20.186  0.00  0.00    +0.000 A 
ATOM      8  C   UNL     1       1.083   8.587  20.415  0.00  0.00    +0.000 A 
BRANCH   3  10
ATOM      9  C   UNL     1       0.645  12.001  20.389  0.00  0.00    +0.000 C 
ATOM     10  S   UNL     1      -0.460  10.756  19.672  0.00  0.00    +0.000 S 
ENDBRANCH   3  10
ENDBRANCH   1   6
BRANCH   2  11
ATOM     11  N   UNL     1       1.869   4.462  18.416  0.00  0.00    +0.000 N 
ATOM     12  O   UNL     1       1.185   4.439  17.386  0.00  0.00    +0.000 OA
ATOM     13  O   UNL     1       1.479   4.171  19.553  0.00  0.00    +0.000 OA
ENDBRANCH   2  11
BRANCH   2  14
ATOM     14  C   UNL     1       4.207   3.892  17.974  0.00  0.00    +0.000 C 
BRANCH  14  15
ATOM     15  C   UNL     1       5.104   4.255  16.811  0.00  0.00    +0.000 A 
ATOM     16  C   UNL     1       4.603   4.270  15.504  0.00  0.00    +0.000 A 
ATOM     17  C   UNL     1       5.454   4.519  14.422  0.00  0.00    +0.000 A 
ATOM     18  C   UNL     1       6.817   4.761  14.620  0.00  0.00    +0.000 A 
ATOM     19  C   UNL     1       7.315   4.757  15.925  0.00  0.00    +0.000 A 
ATOM     20  C   UNL     1       6.466   4.510  17.011  0.00  0.00    +0.000 A 
BRANCH  18  21
ATOM     21  S   UNL     1       7.830   4.974  13.161  0.00  0.00    +0.000 S 
ATOM     22  C   UNL     1       7.057   3.847  11.972  0.00  0.00    +0.000 C 
ENDBRANCH  18  21
ENDBRANCH  14  15
ENDBRANCH   2  14
TORSDOF 6
ENDMDL
MODEL 9
REMARK VINA RESULT:      -6.4      0.752      1.334
REMARK  Name = 
REMARK  8 active torsions:
REMARK  status: ('A' for Active; 'I' for Inactive)
REMARK    1  A    between atoms: C_1  and  S_2
REMARK    2  A    between atoms: S_2  and  C_3
REMARK    3  A    between atoms: C_6  and  C_7
REMARK    4  A    between atoms: C_8  and  C_9
REMARK    5  A    between atoms: C_8  and  N_18
REMARK    6  A    between atoms: C_9  and  C_10
REMARK    7  A    between atoms: C_13  and  S_14
REMARK    8  A    between atoms: S_14  and  C_15
REMARK                            x       y       z     vdW  Elec       q    Type
REMARK                         _______ _______ _______ _____ _____    ______ ____
ROOT
ATOM      1  C   UNL     1       3.350   6.403  18.769  0.00  0.00    +0.000 C 
ATOM      2  C   UNL     1       3.277   5.102  19.109  0.00  0.00    +0.000 C 
ENDROOT
BRANCH   1   6
ATOM      3  C   UNL     1       0.530   9.603  19.284  0.00  0.00    +0.000 A 
ATOM      4  C   UNL     1       1.096   9.330  18.039  0.00  0.00    +0.000 A 
ATOM      5  C   UNL     1       2.044   8.309  17.904  0.00  0.00    +0.000 A 
ATOM      6  C   UNL     1       2.447   7.544  19.011  0.00  0.00    +0.000 A 
ATOM      7  C   UNL     1       1.870   7.824  20.254  0.00  0.00    +0.000 A 
ATOM      8  C   UNL     1       0.929   8.854  20.392  0.00  0.00    +0.000 A 
BRANCH   3  10
ATOM      9  C   UNL     1      -1.889  10.295  18.226  0.00  0.00    +0.000 C 
ATOM     10  S   UNL     1      -0.695  10.884  19.456  0.00  0.00    +0.000 S 
ENDBRANCH   3  10
ENDBRANCH   1   6
BRANCH   2  11
ATOM     11  N   UNL     1       2.217   4.648  19.973  0.00  0.00    +0.000 N 
ATOM     12  O   UNL     1       1.144   4.356  19.431  0.00  0.00    +0.000 OA
ATOM     13  O   UNL     1       2.434   4.666  21.191  0.00  0.00    +0.000 OA
ENDBRANCH   2  11
BRANCH   2  14
ATOM     14  C   UNL     1       4.285   4.033  18.819  0.00  0.00    +0.000 C 
BRANCH  14  15
ATOM     15  C   UNL     1       5.059   4.296  17.546  0.00  0.00    +0.000 A 
ATOM     16  C   UNL     1       4.445   4.152  16.296  0.00  0.00    +0.000 A 
ATOM     17  C   UNL     1       5.185   4.309  15.120  0.00  0.00    +0.000 A 
ATOM     18  C   UNL     1       6.549   4.614  15.164  0.00  0.00    +0.000 A 
ATOM     19  C   UNL     1       7.160   4.768  16.411  0.00  0.00    +0.000 A 
ATOM     20  C   UNL     1       6.422   4.614  17.591  0.00  0.00    +0.000 A 
BRANCH  18  21
ATOM     21  S   UNL     1       7.419   4.700  13.604  0.00  0.00    +0.000 S 
ATOM     22  C   UNL     1       6.430   3.619  12.538  0.00  0.00    +0.000 C 
ENDBRANCH  18  21
ENDBRANCH  14  15
ENDBRANCH   2  14
TORSDOF 6
ENDMDL
