MODEL 1
REMARK VINA RESULT:      -6.6      0.000      0.000
REMARK  Name = 
REMARK  6 active torsions:
REMARK  status: ('A' for Active; 'I' for Inactive)
REMARK    1  A    between atoms: C_1  and  O_2
REMARK    2  A    between atoms: O_2  and  C_3
REMARK    3  A    between atoms: C_3  and  C_4
REMARK    4  A    between atoms: C_4  and  N_5
REMARK    5  A    between atoms: C_12  and  C_14
REMARK    6  A    between atoms: C_20  and  C_21
REMARK                            x       y       z     vdW  Elec       q    Type
REMARK                         _______ _______ _______ _____ _____    ______ ____
ROOT
ATOM      1  N   UNL     1       4.435   5.289  17.333  0.00  0.00    +0.000 N 
ATOM      2  C   UNL     1       3.401   4.784  18.083  0.00  0.00    +0.000 C 
ATOM      3  O   UNL     1       3.240   3.574  18.232  0.00  0.00    +0.000 OA
ATOM      4  N   UNL     1       2.582   5.727  18.662  0.00  0.00    +0.000 N 
ATOM      5  C   UNL     1       1.531   5.305  19.599  0.00  0.00    +0.000 C 
ATOM      6  C   UNL     1       1.489   6.225  20.839  0.00  0.00    +0.000 C 
ATOM      7  N   UNL     1       1.450   7.644  20.455  0.00  0.00    +0.000 N 
ATOM      8  C   UNL     1       0.542   8.508  21.090  0.00  0.00    +0.000 C 
ATOM      9  O   UNL     1      -0.168   8.099  22.015  0.00  0.00    +0.000 OA
ATOM     10  C   UNL     1       2.528   8.027  19.529  0.00  0.00    +0.000 C 
ATOM     11  C   UNL     1       2.505   7.138  18.276  0.00  0.00    +0.000 C 
ATOM     12  H   UNL     1       4.852   6.123  17.725  0.00  0.00    +0.000 HD
ENDROOT
BRANCH   8  13
ATOM     13  C   UNL     1       0.441   9.923  20.648  0.00  0.00    +0.000 A 
ATOM     14  N   UNL     1       1.192  10.866  21.237  0.00  0.00    +0.000 NA
ATOM     15  S   UNL     1       0.812  12.345  20.636  0.00  0.00    +0.000 S 
ATOM     16  C   UNL     1      -0.274  11.794  19.435  0.00  0.00    +0.000 A 
ATOM     17  C   UNL     1      -0.974  12.543  18.478  0.00  0.00    +0.000 A 
ATOM     18  C   UNL     1      -1.782  11.867  17.565  0.00  0.00    +0.000 A 
ATOM     19  C   UNL     1      -1.906  10.479  17.607  0.00  0.00    +0.000 A 
ATOM     20  C   UNL     1      -2.766   9.768  16.602  0.00  0.00    +0.000 C 
ATOM     21  C   UNL     1      -1.214   9.747  18.592  0.00  0.00    +0.000 A 
ATOM     22  C   UNL     1      -0.372  10.403  19.533  0.00  0.00    +0.000 A 
ENDBRANCH   8  13
BRANCH   1  23
ATOM     23  C   UNL     1       5.418   4.380  16.760  0.00  0.00    +0.000 C 
BRANCH  23  24
ATOM     24  C   UNL     1       6.843   4.719  17.194  0.00  0.00    +0.000 C 
BRANCH  24  26
ATOM     25  C   UNL     1       7.057   4.756  14.844  0.00  0.00    +0.000 C 
ATOM     26  O   UNL     1       7.736   4.567  16.081  0.00  0.00    +0.000 OA
ENDBRANCH  24  26
ENDBRANCH  23  24
ENDBRANCH   1  23
TORSDOF 4
ENDMDL
MODEL 2
REMARK VINA RESULT:      -6.4      3.040      4.543
REMARK  Name = 
REMARK  6 active torsions:
REMARK  status: ('A' for Active; 'I' for Inactive)
REMARK    1  A    between atoms: C_1  and  O_2
REMARK    2  A    between atoms: O_2  and  C_3
REMARK    3  A    between atoms: C_3  and  C_4
REMARK    4  A    between atoms: C_4  and  N_5
REMARK    5  A    between atoms: C_12  and  C_14
REMARK    6  A    between atoms: C_20  and  C_21
REMARK                            x       y       z     vdW  Elec       q    Type
REMARK                         _______ _______ _______ _____ _____    ______ ____
ROOT
ATOM      1  N   UNL     1       1.896   6.187  20.779  0.00  0.00    +0.000 N 
ATOM      2  C   UNL     1       2.215   6.995  19.714  0.00  0.00    +0.000 C 
ATOM      3  O   UNL     1       2.916   6.597  18.786  0.00  0.00    +0.000 OA
ATOM      4  N   UNL     1       1.676   8.261  19.758  0.00  0.00    +0.000 N 
ATOM      5  C   UNL     1       1.833   9.162  18.608  0.00  0.00    +0.000 C 
ATOM      6  C   UNL     1       0.509   9.890  18.287  0.00  0.00    +0.000 C 
ATOM      7  N   UNL     1      -0.070  10.508  19.490  0.00  0.00    +0.000 N 
ATOM      8  C   UNL     1      -0.554  11.825  19.426  0.00  0.00    +0.000 C 
ATOM      9  O   UNL     1      -0.562  12.437  18.353  0.00  0.00    +0.000 OA
ATOM     10  C   UNL     1      -0.223   9.568  20.612  0.00  0.00    +0.000 C 
ATOM     11  C   UNL     1       1.122   8.908  20.951  0.00  0.00    +0.000 C 
ATOM     12  H   UNL     1       0.947   6.302  21.108  0.00  0.00    +0.000 HD
ENDROOT
BRANCH   8  13
ATOM     13  C   UNL     1      -1.063  12.482  20.657  0.00  0.00    +0.000 A 
ATOM     14  N   UNL     1      -0.204  12.996  21.550  0.00  0.00    +0.000 NA
ATOM     15  S   UNL     1      -1.020  13.564  22.855  0.00  0.00    +0.000 S 
ATOM     16  C   UNL     1      -2.591  13.299  22.233  0.00  0.00    +0.000 A 
ATOM     17  C   UNL     1      -3.828  13.602  22.821  0.00  0.00    +0.000 A 
ATOM     18  C   UNL     1      -4.991  13.328  22.103  0.00  0.00    +0.000 A 
ATOM     19  C   UNL     1      -4.931  12.752  20.835  0.00  0.00    +0.000 A 
ATOM     20  C   UNL     1      -6.196  12.483  20.069  0.00  0.00    +0.000 C 
ATOM     21  C   UNL     1      -3.681  12.432  20.272  0.00  0.00    +0.000 A 
ATOM     22  C   UNL     1      -2.473  12.708  20.973  0.00  0.00    +0.000 A 
ENDBRANCH   8  13
BRANCH   1  23
ATOM     23  C   UNL     1       2.331   4.796  20.780  0.00  0.00    +0.000 C 
BRANCH  23  24
ATOM     24  C   UNL     1       1.172   3.827  20.558  0.00  0.00    +0.000 C 
BRANCH  24  26
ATOM     25  C   UNL     1       2.256   3.095  18.595  0.00  0.00    +0.000 C 
ATOM     26  O   UNL     1       1.032   3.553  19.157  0.00  0.00    +0.000 OA
ENDBRANCH  24  26
ENDBRANCH  23  24
ENDBRANCH   1  23
TORSDOF 4
ENDMDL
MODEL 3
REMARK VINA RESULT:      -6.4      0.736      1.040
REMARK  Name = 
REMARK  6 active torsions:
REMARK  status: ('A' for Active; 'I' for Inactive)
REMARK    1  A    between atoms: C_1  and  O_2
REMARK    2  A    between atoms: O_2  and  C_3
REMARK    3  A    between atoms: C_3  and  C_4
REMARK    4  A    between atoms: C_4  and  N_5
REMARK    5  A    between atoms: C_12  and  C_14
REMARK    6  A    between atoms: C_20  and  C_21
REMARK                            x       y       z     vdW  Elec       q    Type
REMARK                         _______ _______ _______ _____ _____    ______ ____
ROOT
ATOM      1  N   UNL     1       4.327   5.341  17.243  0.00  0.00    +0.000 N 
ATOM      2  C   UNL     1       3.320   4.853  18.041  0.00  0.00    +0.000 C 
ATOM      3  O   UNL     1       3.165   3.647  18.223  0.00  0.00    +0.000 OA
ATOM      4  N   UNL     1       2.524   5.810  18.630  0.00  0.00    +0.000 N 
ATOM      5  C   UNL     1       1.507   5.409  19.613  0.00  0.00    +0.000 C 
ATOM      6  C   UNL     1       1.511   6.356  20.833  0.00  0.00    +0.000 C 
ATOM      7  N   UNL     1       1.459   7.767  20.420  0.00  0.00    +0.000 N 
ATOM      8  C   UNL     1       0.575   8.645  21.069  0.00  0.00    +0.000 C 
ATOM      9  O   UNL     1      -0.101   8.258  22.028  0.00  0.00    +0.000 OA
ATOM     10  C   UNL     1       2.503   8.128  19.447  0.00  0.00    +0.000 C 
ATOM     11  C   UNL     1       2.433   7.213  18.216  0.00  0.00    +0.000 C 
ATOM     12  H   UNL     1       4.758   6.183  17.601  0.00  0.00    +0.000 HD
ENDROOT
BRANCH   8  13
ATOM     13  C   UNL     1       0.459  10.050  20.601  0.00  0.00    +0.000 A 
ATOM     14  N   UNL     1       1.197  11.014  21.174  0.00  0.00    +0.000 NA
ATOM     15  S   UNL     1       0.801  12.476  20.544  0.00  0.00    +0.000 S 
ATOM     16  C   UNL     1      -0.275  11.890  19.351  0.00  0.00    +0.000 A 
ATOM     17  C   UNL     1      -0.982  12.613  18.378  0.00  0.00    +0.000 A 
ATOM     18  C   UNL     1      -1.779  11.911  17.476  0.00  0.00    +0.000 A 
ATOM     19  C   UNL     1      -1.887  10.522  17.544  0.00  0.00    +0.000 A 
ATOM     20  C   UNL     1      -2.737   9.782  16.550  0.00  0.00    +0.000 C 
ATOM     21  C   UNL     1      -1.190   9.817  18.544  0.00  0.00    +0.000 A 
ATOM     22  C   UNL     1      -0.357  10.501  19.475  0.00  0.00    +0.000 A 
ENDBRANCH   8  13
BRANCH   1  23
ATOM     23  C   UNL     1       5.288   4.418  16.655  0.00  0.00    +0.000 C 
BRANCH  23  24
ATOM     24  C   UNL     1       6.704   4.644  17.181  0.00  0.00    +0.000 C 
BRANCH  24  26
ATOM     25  C   UNL     1       7.726   5.606  19.077  0.00  0.00    +0.000 C 
ATOM     26  O   UNL     1       6.676   4.767  18.610  0.00  0.00    +0.000 OA
ENDBRANCH  24  26
ENDBRANCH  23  24
ENDBRANCH   1  23
TORSDOF 4
ENDMDL
MODEL 4
REMARK VINA RESULT:      -6.3      1.787      2.689
REMARK  Name = 
REMARK  6 active torsions:
REMARK  status: ('A' for Active; 'I' for Inactive)
REMARK    1  A    between atoms: C_1  and  O_2
REMARK    2  A    between atoms: O_2  and  C_3
REMARK    3  A    between atoms: C_3  and  C_4
REMARK    4  A    between atoms: C_4  and  N_5
REMARK    5  A    between atoms: C_12  and  C_14
REMARK    6  A    between atoms: C_20  and  C_21
REMARK                            x       y       z     vdW  Elec       q    Type
REMARK                         _______ _______ _______ _____ _____    ______ ____
ROOT
ATOM      1  N   UNL     1       4.479   5.910  17.301  0.00  0.00    +0.000 N 
ATOM      2  C   UNL     1       3.729   5.498  18.376  0.00  0.00    +0.000 C 
ATOM      3  O   UNL     1       3.941   4.427  18.941  0.00  0.00    +0.000 OA
ATOM      4  N   UNL     1       2.749   6.378  18.778  0.00  0.00    +0.000 N 
ATOM      5  C   UNL     1       1.982   6.107  20.001  0.00  0.00    +0.000 C 
ATOM      6  C   UNL     1       1.825   7.386  20.854  0.00  0.00    +0.000 C 
ATOM      7  N   UNL     1       1.336   8.514  20.047  0.00  0.00    +0.000 N 
ATOM      8  C   UNL     1       0.301   9.323  20.545  0.00  0.00    +0.000 C 
ATOM      9  O   UNL     1      -0.148   9.137  21.680  0.00  0.00    +0.000 OA
ATOM     10  C   UNL     1       2.142   8.759  18.840  0.00  0.00    +0.000 C 
ATOM     11  C   UNL     1       2.226   7.490  17.979  0.00  0.00    +0.000 C 
ATOM     12  H   UNL     1       4.683   6.900  17.303  0.00  0.00    +0.000 HD
ENDROOT
BRANCH   8  13
ATOM     13  C   UNL     1      -0.252  10.412  19.699  0.00  0.00    +0.000 A 
ATOM     14  N   UNL     1      -1.316  10.180  18.914  0.00  0.00    +0.000 NA
ATOM     15  S   UNL     1      -1.654  11.511  18.016  0.00  0.00    +0.000 S 
ATOM     16  C   UNL     1      -0.491  12.535  18.740  0.00  0.00    +0.000 A 
ATOM     17  C   UNL     1      -0.235  13.890  18.481  0.00  0.00    +0.000 A 
ATOM     18  C   UNL     1       0.747  14.537  19.229  0.00  0.00    +0.000 A 
ATOM     19  C   UNL     1       1.472  13.853  20.203  0.00  0.00    +0.000 A 
ATOM     20  C   UNL     1       2.513  14.573  21.013  0.00  0.00    +0.000 C 
ATOM     21  C   UNL     1       1.219  12.486  20.431  0.00  0.00    +0.000 A 
ATOM     22  C   UNL     1       0.215  11.797  19.693  0.00  0.00    +0.000 A 
ENDBRANCH   8  13
BRANCH   1  23
ATOM     23  C   UNL     1       5.607   5.099  16.860  0.00  0.00    +0.000 C 
BRANCH  23  24
ATOM     24  C   UNL     1       6.861   5.936  16.617  0.00  0.00    +0.000 C 
BRANCH  24  26
ATOM     25  C   UNL     1       6.691   4.558  14.710  0.00  0.00    +0.000 C 
ATOM     26  O   UNL     1       7.429   5.597  15.344  0.00  0.00    +0.000 OA
ENDBRANCH  24  26
ENDBRANCH  23  24
ENDBRANCH   1  23
TORSDOF 4
ENDMDL
MODEL 5
REMARK VINA RESULT:      -6.3      2.123      3.011
REMARK  Name = 
REMARK  6 active torsions:
REMARK  status: ('A' for Active; 'I' for Inactive)
REMARK    1  A    between atoms: C_1  and  O_2
REMARK    2  A    between atoms: O_2  and  C_3
REMARK    3  A    between atoms: C_3  and  C_4
REMARK    4  A    between atoms: C_4  and  N_5
REMARK    5  A    between atoms: C_12  and  C_14
REMARK    6  A    between atoms: C_20  and  C_21
REMARK                            x       y       z     vdW  Elec       q    Type
REMARK                         _______ _______ _______ _____ _____    ______ ____
ROOT
ATOM      1  N   UNL     1       4.597   6.507  16.978  0.00  0.00    +0.000 N 
ATOM      2  C   UNL     1       3.838   5.972  17.992  0.00  0.00    +0.000 C 
ATOM      3  O   UNL     1       4.072   4.859  18.458  0.00  0.00    +0.000 OA
ATOM      4  N   UNL     1       2.822   6.781  18.451  0.00  0.00    +0.000 N 
ATOM      5  C   UNL     1       2.038   6.371  19.625  0.00  0.00    +0.000 C 
ATOM      6  C   UNL     1       1.823   7.557  20.591  0.00  0.00    +0.000 C 
ATOM      7  N   UNL     1       1.315   8.743  19.883  0.00  0.00    +0.000 N 
ATOM      8  C   UNL     1       0.245   9.469  20.430  0.00  0.00    +0.000 C 
ATOM      9  O   UNL     1      -0.222   9.162  21.533  0.00  0.00    +0.000 OA
ATOM     10  C   UNL     1       2.138   9.126  18.725  0.00  0.00    +0.000 C 
ATOM     11  C   UNL     1       2.280   7.947  17.749  0.00  0.00    +0.000 C 
ATOM     12  H   UNL     1       4.769   7.499  17.079  0.00  0.00    +0.000 HD
ENDROOT
BRANCH   8  13
ATOM     13  C   UNL     1      -0.325  10.617  19.679  0.00  0.00    +0.000 A 
ATOM     14  N   UNL     1      -1.396  10.439  18.890  0.00  0.00    +0.000 NA
ATOM     15  S   UNL     1      -1.754  11.834  18.103  0.00  0.00    +0.000 S 
ATOM     16  C   UNL     1      -0.588  12.807  18.892  0.00  0.00    +0.000 A 
ATOM     17  C   UNL     1      -0.345  14.180  18.737  0.00  0.00    +0.000 A 
ATOM     18  C   UNL     1       0.642  14.773  19.523  0.00  0.00    +0.000 A 
ATOM     19  C   UNL     1       1.382  14.020  20.433  0.00  0.00    +0.000 A 
ATOM     20  C   UNL     1       2.428  14.683  21.285  0.00  0.00    +0.000 C 
ATOM     21  C   UNL     1       1.141  12.638  20.555  0.00  0.00    +0.000 A 
ATOM     22  C   UNL     1       0.133  12.001  19.777  0.00  0.00    +0.000 A 
ENDBRANCH   8  13
BRANCH   1  23
ATOM     23  C   UNL     1       5.758   5.777  16.490  0.00  0.00    +0.000 C 
BRANCH  23  24
ATOM     24  C   UNL     1       7.034   6.143  17.246  0.00  0.00    +0.000 C 
BRANCH  24  26
ATOM     25  C   UNL     1       7.893   8.293  17.702  0.00  0.00    +0.000 C 
ATOM     26  O   UNL     1       7.600   7.338  16.688  0.00  0.00    +0.000 OA
ENDBRANCH  24  26
ENDBRANCH  23  24
ENDBRANCH   1  23
TORSDOF 4
ENDMDL
MODEL 6
REMARK VINA RESULT:      -6.2      3.093      8.087
REMARK  Name = 
REMARK  6 active torsions:
REMARK  status: ('A' for Active; 'I' for Inactive)
REMARK    1  A    between atoms: C_1  and  O_2
REMARK    2  A    between atoms: O_2  and  C_3
REMARK    3  A    between atoms: C_3  and  C_4
REMARK    4  A    between atoms: C_4  and  N_5
REMARK    5  A    between atoms: C_12  and  C_14
REMARK    6  A    between atoms: C_20  and  C_21
REMARK                            x       y       z     vdW  Elec       q    Type
REMARK                         _______ _______ _______ _____ _____    ______ ____
ROOT
ATOM      1  N   UNL     1      -0.130  10.556  18.079  0.00  0.00    +0.000 N 
ATOM      2  C   UNL     1       0.352  10.193  19.314  0.00  0.00    +0.000 C 
ATOM      3  O   UNL     1       0.022  10.788  20.338  0.00  0.00    +0.000 OA
ATOM      4  N   UNL     1       1.205   9.113  19.316  0.00  0.00    +0.000 N 
ATOM      5  C   UNL     1       1.668   8.550  20.592  0.00  0.00    +0.000 C 
ATOM      6  C   UNL     1       1.613   7.006  20.571  0.00  0.00    +0.000 C 
ATOM      7  N   UNL     1       2.269   6.460  19.374  0.00  0.00    +0.000 N 
ATOM      8  C   UNL     1       3.154   5.377  19.503  0.00  0.00    +0.000 C 
ATOM      9  O   UNL     1       3.327   4.837  20.601  0.00  0.00    +0.000 OA
ATOM     10  C   UNL     1       1.764   7.040  18.118  0.00  0.00    +0.000 C 
ATOM     11  C   UNL     1       1.893   8.571  18.140  0.00  0.00    +0.000 C 
ATOM     12  H   UNL     1      -0.336   9.771  17.476  0.00  0.00    +0.000 HD
ENDROOT
BRANCH   8  13
ATOM     13  C   UNL     1       3.881   4.875  18.309  0.00  0.00    +0.000 A 
ATOM     14  N   UNL     1       3.391   3.842  17.607  0.00  0.00    +0.000 NA
ATOM     15  S   UNL     1       4.434   3.427  16.411  0.00  0.00    +0.000 S 
ATOM     16  C   UNL     1       5.538   4.710  16.661  0.00  0.00    +0.000 A 
ATOM     17  C   UNL     1       6.702   5.017  15.941  0.00  0.00    +0.000 A 
ATOM     18  C   UNL     1       7.432   6.146  16.306  0.00  0.00    +0.000 A 
ATOM     19  C   UNL     1       7.026   6.948  17.371  0.00  0.00    +0.000 A 
ATOM     20  C   UNL     1       7.816   8.173  17.736  0.00  0.00    +0.000 C 
ATOM     21  C   UNL     1       5.869   6.609  18.099  0.00  0.00    +0.000 A 
ATOM     22  C   UNL     1       5.093   5.469  17.747  0.00  0.00    +0.000 A 
ENDBRANCH   8  13
BRANCH   1  23
ATOM     23  C   UNL     1      -1.118  11.622  17.979  0.00  0.00    +0.000 C 
BRANCH  23  24
ATOM     24  C   UNL     1      -2.539  11.082  17.831  0.00  0.00    +0.000 C 
BRANCH  24  26
ATOM     25  C   UNL     1      -2.825  10.447  15.577  0.00  0.00    +0.000 C 
ATOM     26  O   UNL     1      -3.067  11.457  16.550  0.00  0.00    +0.000 OA
ENDBRANCH  24  26
ENDBRANCH  23  24
ENDBRANCH   1  23
TORSDOF 4
ENDMDL
MODEL 7
REMARK VINA RESULT:      -6.1      2.589      8.178
REMARK  Name = 
REMARK  6 active torsions:
REMARK  status: ('A' for Active; 'I' for Inactive)
REMARK    1  A    between atoms: C_1  and  O_2
REMARK    2  A    between atoms: O_2  and  C_3
REMARK    3  A    between atoms: C_3  and  C_4
REMARK    4  A    between atoms: C_4  and  N_5
REMARK    5  A    between atoms: C_12  and  C_14
REMARK    6  A    between atoms: C_20  and  C_21
REMARK                            x       y       z     vdW  Elec       q    Type
REMARK                         _______ _______ _______ _____ _____    ______ ____
ROOT
ATOM      1  N   UNL     1       0.657   9.247  20.279  0.00  0.00    +0.000 N 
ATOM      2  C   UNL     1       0.500   7.986  20.802  0.00  0.00    +0.000 C 
ATOM      3  O   UNL     1      -0.457   7.696  21.517  0.00  0.00    +0.000 OA
ATOM      4  N   UNL     1       1.475   7.081  20.450  0.00  0.00    +0.000 N 
ATOM      5  C   UNL     1       1.334   5.669  20.835  0.00  0.00    +0.000 C 
ATOM      6  C   UNL     1       1.704   4.734  19.663  0.00  0.00    +0.000 C 
ATOM      7  N   UNL     1       3.004   5.094  19.076  0.00  0.00    +0.000 N 
ATOM      8  C   UNL     1       3.940   4.084  18.795  0.00  0.00    +0.000 C 
ATOM      9  O   UNL     1       3.649   2.896  18.968  0.00  0.00    +0.000 OA
ATOM     10  C   UNL     1       3.096   6.512  18.692  0.00  0.00    +0.000 C 
ATOM     11  C   UNL     1       2.788   7.418  19.893  0.00  0.00    +0.000 C 
ATOM     12  H   UNL     1       1.010   9.253  19.331  0.00  0.00    +0.000 HD
ENDROOT
BRANCH   8  13
ATOM     13  C   UNL     1       5.284   4.450  18.280  0.00  0.00    +0.000 A 
ATOM     14  N   UNL     1       6.272   4.755  19.135  0.00  0.00    +0.000 NA
ATOM     15  S   UNL     1       7.610   5.220  18.308  0.00  0.00    +0.000 S 
ATOM     16  C   UNL     1       6.998   4.890  16.745  0.00  0.00    +0.000 A 
ATOM     17  C   UNL     1       7.643   5.020  15.506  0.00  0.00    +0.000 A 
ATOM     18  C   UNL     1       6.952   4.651  14.354  0.00  0.00    +0.000 A 
ATOM     19  C   UNL     1       5.642   4.177  14.424  0.00  0.00    +0.000 A 
ATOM     20  C   UNL     1       4.921   3.766  13.172  0.00  0.00    +0.000 C 
ATOM     21  C   UNL     1       5.003   4.078  15.675  0.00  0.00    +0.000 A 
ATOM     22  C   UNL     1       5.683   4.436  16.873  0.00  0.00    +0.000 A 
ENDBRANCH   8  13
BRANCH   1  23
ATOM     23  C   UNL     1      -0.372  10.252  20.507  0.00  0.00    +0.000 C 
BRANCH  23  24
ATOM     24  C   UNL     1      -0.282  11.409  19.514  0.00  0.00    +0.000 C 
BRANCH  24  26
ATOM     25  C   UNL     1      -2.460  11.622  18.632  0.00  0.00    +0.000 C 
ATOM     26  O   UNL     1      -1.139  11.151  18.392  0.00  0.00    +0.000 OA
ENDBRANCH  24  26
ENDBRANCH  23  24
ENDBRANCH   1  23
TORSDOF 4
ENDMDL
MODEL 8
REMARK VINA RESULT:      -6.1      3.334      8.996
REMARK  Name = 
REMARK  6 active torsions:
REMARK  status: ('A' for Active; 'I' for Inactive)
REMARK    1  A    between atoms: C_1  and  O_2
REMARK    2  A    between atoms: O_2  and  C_3
REMARK    3  A    between atoms: C_3  and  C_4
REMARK    4  A    between atoms: C_4  and  N_5
REMARK    5  A    between atoms: C_12  and  C_14
REMARK    6  A    between atoms: C_20  and  C_21
REMARK                            x       y       z     vdW  Elec       q    Type
REMARK                         _______ _______ _______ _____ _____    ______ ____
ROOT
ATOM      1  N   UNL     1      -1.297  11.455  22.396  0.00  0.00    +0.000 N 
ATOM      2  C   UNL     1      -1.214  11.649  21.038  0.00  0.00    +0.000 C 
ATOM      3  O   UNL     1      -1.722  12.626  20.491  0.00  0.00    +0.000 OA
ATOM      4  N   UNL     1      -0.507  10.688  20.352  0.00  0.00    +0.000 N 
ATOM      5  C   UNL     1      -0.233  10.866  18.919  0.00  0.00    +0.000 C 
ATOM      6  C   UNL     1       1.227  10.495  18.582  0.00  0.00    +0.000 C 
ATOM      7  N   UNL     1       1.588   9.177  19.126  0.00  0.00    +0.000 N 
ATOM      8  C   UNL     1       2.276   8.258  18.317  0.00  0.00    +0.000 C 
ATOM      9  O   UNL     1       2.643   8.578  17.181  0.00  0.00    +0.000 OA
ATOM     10  C   UNL     1       1.311   9.047  20.566  0.00  0.00    +0.000 C 
ATOM     11  C   UNL     1      -0.164   9.357  20.863  0.00  0.00    +0.000 C 
ATOM     12  H   UNL     1      -0.450  11.085  22.807  0.00  0.00    +0.000 HD
ENDROOT
BRANCH   8  13
ATOM     13  C   UNL     1       2.569   6.897  18.834  0.00  0.00    +0.000 A 
ATOM     14  N   UNL     1       1.929   6.438  19.920  0.00  0.00    +0.000 NA
ATOM     15  S   UNL     1       2.510   4.962  20.336  0.00  0.00    +0.000 S 
ATOM     16  C   UNL     1       3.550   4.776  18.990  0.00  0.00    +0.000 A 
ATOM     17  C   UNL     1       4.367   3.685  18.659  0.00  0.00    +0.000 A 
ATOM     18  C   UNL     1       5.108   3.742  17.479  0.00  0.00    +0.000 A 
ATOM     19  C   UNL     1       5.052   4.863  16.652  0.00  0.00    +0.000 A 
ATOM     20  C   UNL     1       5.843   4.897  15.375  0.00  0.00    +0.000 C 
ATOM     21  C   UNL     1       4.246   5.959  17.015  0.00  0.00    +0.000 A 
ATOM     22  C   UNL     1       3.468   5.930  18.207  0.00  0.00    +0.000 A 
ENDBRANCH   8  13
BRANCH   1  23
ATOM     23  C   UNL     1      -1.935  12.467  23.228  0.00  0.00    +0.000 C 
BRANCH  23  24
ATOM     24  C   UNL     1      -3.458  12.433  23.115  0.00  0.00    +0.000 C 
BRANCH  24  26
ATOM     25  C   UNL     1      -5.327  12.461  24.555  0.00  0.00    +0.000 C 
ATOM     26  O   UNL     1      -4.022  11.936  24.337  0.00  0.00    +0.000 OA
ENDBRANCH  24  26
ENDBRANCH  23  24
ENDBRANCH   1  23
TORSDOF 4
ENDMDL
MODEL 9
REMARK VINA RESULT:      -6.0      2.907      8.118
REMARK  Name = 
REMARK  6 active torsions:
REMARK  status: ('A' for Active; 'I' for Inactive)
REMARK    1  A    between atoms: C_1  and  O_2
REMARK    2  A    between atoms: O_2  and  C_3
REMARK    3  A    between atoms: C_3  and  C_4
REMARK    4  A    between atoms: C_4  and  N_5
REMARK    5  A    between atoms: C_12  and  C_14
REMARK    6  A    between atoms: C_20  and  C_21
REMARK                            x       y       z     vdW  Elec       q    Type
REMARK                         _______ _______ _______ _____ _____    ______ ____
ROOT
ATOM      1  N   UNL     1       0.687   9.265  20.303  0.00  0.00    +0.000 N 
ATOM      2  C   UNL     1       0.529   8.003  20.823  0.00  0.00    +0.000 C 
ATOM      3  O   UNL     1      -0.426   7.715  21.543  0.00  0.00    +0.000 OA
ATOM      4  N   UNL     1       1.499   7.096  20.463  0.00  0.00    +0.000 N 
ATOM      5  C   UNL     1       1.356   5.684  20.845  0.00  0.00    +0.000 C 
ATOM      6  C   UNL     1       1.716   4.750  19.668  0.00  0.00    +0.000 C 
ATOM      7  N   UNL     1       3.014   5.108  19.075  0.00  0.00    +0.000 N 
ATOM      8  C   UNL     1       3.944   4.096  18.785  0.00  0.00    +0.000 C 
ATOM      9  O   UNL     1       3.651   2.909  18.957  0.00  0.00    +0.000 OA
ATOM     10  C   UNL     1       3.108   6.527  18.694  0.00  0.00    +0.000 C 
ATOM     11  C   UNL     1       2.810   7.431  19.899  0.00  0.00    +0.000 C 
ATOM     12  H   UNL     1       1.034   9.273  19.353  0.00  0.00    +0.000 HD
ENDROOT
BRANCH   8  13
ATOM     13  C   UNL     1       5.287   4.460  18.263  0.00  0.00    +0.000 A 
ATOM     14  N   UNL     1       6.279   4.763  19.114  0.00  0.00    +0.000 NA
ATOM     15  S   UNL     1       7.615   5.225  18.280  0.00  0.00    +0.000 S 
ATOM     16  C   UNL     1       6.994   4.895  16.720  0.00  0.00    +0.000 A 
ATOM     17  C   UNL     1       7.634   5.024  15.478  0.00  0.00    +0.000 A 
ATOM     18  C   UNL     1       6.936   4.656  14.329  0.00  0.00    +0.000 A 
ATOM     19  C   UNL     1       5.626   4.185  14.406  0.00  0.00    +0.000 A 
ATOM     20  C   UNL     1       4.898   3.775  13.158  0.00  0.00    +0.000 C 
ATOM     21  C   UNL     1       4.992   4.087  15.660  0.00  0.00    +0.000 A 
ATOM     22  C   UNL     1       5.679   4.444  16.855  0.00  0.00    +0.000 A 
ENDBRANCH   8  13
BRANCH   1  23
ATOM     23  C   UNL     1      -0.338  10.273  20.539  0.00  0.00    +0.000 C 
BRANCH  23  24
ATOM     24  C   UNL     1       0.243  11.570  21.100  0.00  0.00    +0.000 C 
BRANCH  24  26
ATOM     25  C   UNL     1       1.851  12.894  19.993  0.00  0.00    +0.000 C 
ATOM     26  O   UNL     1       0.486  12.493  20.029  0.00  0.00    +0.000 OA
ENDBRANCH  24  26
ENDBRANCH  23  24
ENDBRANCH   1  23
TORSDOF 4
ENDMDL
