MODEL 1
REMARK VINA RESULT:      -7.7      0.000      0.000
REMARK  Name = 
REMARK  9 active torsions:
REMARK  status: ('A' for Active; 'I' for Inactive)
REMARK    1  A    between atoms: C_1  and  C_2
REMARK    2  A    between atoms: C_2  and  O_3
REMARK    3  A    between atoms: O_3  and  C_4
REMARK    4  A    between atoms: C_6  and  C_7
REMARK    5  A    between atoms: C_7  and  N_8
REMARK    6  A    between atoms: N_8  and  C_9
REMARK    7  A    between atoms: C_16  and  O_17
REMARK    8  A    between atoms: O_17  and  C_18
REMARK    9  A    between atoms: C_18  and  C_19
REMARK                            x       y       z     vdW  Elec       q    Type
REMARK                         _______ _______ _______ _____ _____    ______ ____
ROOT
ATOM      1  C   UNL     1       6.323   6.417  17.185  0.00  0.00    +0.000 A 
ATOM      2  C   UNL     1       6.920   7.687  17.070  0.00  0.00    +0.000 A 
ATOM      3  C   UNL     1       7.902   8.118  17.938  0.00  0.00    +0.000 A 
ATOM      4  C   UNL     1       8.381   7.267  18.928  0.00  0.00    +0.000 A 
ATOM      5  C   UNL     1       7.848   6.001  19.051  0.00  0.00    +0.000 A 
ATOM      6  C   UNL     1       6.785   5.550  18.215  0.00  0.00    +0.000 A 
ENDROOT
BRANCH   1   7
ATOM      7  O   UNL     1       5.329   6.034  16.324  0.00  0.00    +0.000 OA
BRANCH   7   9
ATOM      8  C   UNL     1       5.891   3.976  14.978  0.00  0.00    +0.000 C 
ATOM      9  C   UNL     1       5.499   5.478  15.051  0.00  0.00    +0.000 C 
ENDBRANCH   7   9
ENDBRANCH   1   7
BRANCH   3  10
ATOM     10  C   UNL     1       8.451   9.502  17.837  0.00  0.00    +0.000 C 
BRANCH  10  11
ATOM     11  N   UNL     1       8.990   9.879  19.140  0.00  0.00    +0.000 NA
ATOM     12  H   UNL     1       9.740   9.194  19.396  0.00  0.00    +0.000 HD
BRANCH  11  13
ATOM     13  C   UNL     1       9.589  11.213  19.105  0.00  0.00    +0.000 C 
ATOM     14  C   UNL     1      10.688  11.428  20.154  0.00  0.00    +0.000 C 
ATOM     15  C   UNL     1      11.320  12.711  19.647  0.00  0.00    +0.000 C 
ATOM     16  C   UNL     1      11.304  12.582  18.115  0.00  0.00    +0.000 C 
ATOM     17  C   UNL     1      10.391  11.387  17.826  0.00  0.00    +0.000 C 
ENDBRANCH  11  13
ENDBRANCH  10  11
ENDBRANCH   3  10
BRANCH   6  18
ATOM     18  O   UNL     1       6.238   4.303  18.413  0.00  0.00    +0.000 OA
BRANCH  18  19
ATOM     19  C   UNL     1       5.334   4.101  19.451  0.00  0.00    +0.000 C 
BRANCH  19  20
ATOM     20  C   UNL     1       3.937   3.699  19.086  0.00  0.00    +0.000 A 
ATOM     21  C   UNL     1       3.000   4.536  18.464  0.00  0.00    +0.000 A 
ATOM     22  C   UNL     1       1.702   4.055  18.214  0.00  0.00    +0.000 A 
ATOM     23  C   UNL     1       1.343   2.756  18.599  0.00  0.00    +0.000 A 
ATOM     24  F   UNL     1       0.084   2.303  18.384  0.00  0.00    +0.000 F 
ATOM     25  C   UNL     1       2.277   1.925  19.207  0.00  0.00    +0.000 A 
ATOM     26  C   UNL     1       3.566   2.387  19.439  0.00  0.00    +0.000 A 
ENDBRANCH  19  20
ENDBRANCH  18  19
ENDBRANCH   6  18
TORSDOF 8
ENDMDL
MODEL 2
REMARK VINA RESULT:      -7.5      4.711      7.598
REMARK  Name = 
REMARK  9 active torsions:
REMARK  status: ('A' for Active; 'I' for Inactive)
REMARK    1  A    between atoms: C_1  and  C_2
REMARK    2  A    between atoms: C_2  and  O_3
REMARK    3  A    between atoms: O_3  and  C_4
REMARK    4  A    between atoms: C_6  and  C_7
REMARK    5  A    between atoms: C_7  and  N_8
REMARK    6  A    between atoms: N_8  and  C_9
REMARK    7  A    between atoms: C_16  and  O_17
REMARK    8  A    between atoms: O_17  and  C_18
REMARK    9  A    between atoms: C_18  and  C_19
REMARK                            x       y       z     vdW  Elec       q    Type
REMARK                         _______ _______ _______ _____ _____    ______ ____
ROOT
ATOM      1  C   UNL     1       2.795   4.809  19.614  0.00  0.00    +0.000 A 
ATOM      2  C   UNL     1       2.240   5.906  20.300  0.00  0.00    +0.000 A 
ATOM      3  C   UNL     1       2.144   7.158  19.727  0.00  0.00    +0.000 A 
ATOM      4  C   UNL     1       2.541   7.354  18.410  0.00  0.00    +0.000 A 
ATOM      5  C   UNL     1       3.057   6.297  17.691  0.00  0.00    +0.000 A 
ATOM      6  C   UNL     1       3.235   5.008  18.275  0.00  0.00    +0.000 A 
ENDROOT
BRANCH   1   7
ATOM      7  O   UNL     1       2.903   3.588  20.225  0.00  0.00    +0.000 OA
BRANCH   7   9
ATOM      8  C   UNL     1       0.825   2.612  19.179  0.00  0.00    +0.000 C 
ATOM      9  C   UNL     1       1.918   2.596  20.284  0.00  0.00    +0.000 C 
ENDBRANCH   7   9
ENDBRANCH   1   7
BRANCH   3  10
ATOM     10  C   UNL     1       1.627   8.315  20.515  0.00  0.00    +0.000 C 
BRANCH  10  11
ATOM     11  N   UNL     1       0.627   7.819  21.456  0.00  0.00    +0.000 NA
ATOM     12  H   UNL     1       1.118   7.528  22.334  0.00  0.00    +0.000 HD
BRANCH  11  13
ATOM     13  C   UNL     1      -0.342   8.859  21.804  0.00  0.00    +0.000 C 
ATOM     14  C   UNL     1      -0.092   9.509  23.172  0.00  0.00    +0.000 C 
ATOM     15  C   UNL     1      -0.998  10.723  23.080  0.00  0.00    +0.000 C 
ATOM     16  C   UNL     1      -0.876  11.199  21.623  0.00  0.00    +0.000 C 
ATOM     17  C   UNL     1      -0.161  10.060  20.891  0.00  0.00    +0.000 C 
ENDBRANCH  11  13
ENDBRANCH  10  11
ENDBRANCH   3  10
BRANCH   6  18
ATOM     18  O   UNL     1       3.812   3.996  17.542  0.00  0.00    +0.000 OA
BRANCH  18  19
ATOM     19  C   UNL     1       4.954   4.253  16.790  0.00  0.00    +0.000 C 
BRANCH  19  20
ATOM     20  C   UNL     1       6.022   5.098  17.417  0.00  0.00    +0.000 A 
ATOM     21  C   UNL     1       6.625   4.836  18.655  0.00  0.00    +0.000 A 
ATOM     22  C   UNL     1       7.585   5.732  19.159  0.00  0.00    +0.000 A 
ATOM     23  C   UNL     1       7.924   6.885  18.438  0.00  0.00    +0.000 A 
ATOM     24  F   UNL     1       8.828   7.763  18.937  0.00  0.00    +0.000 F 
ATOM     25  C   UNL     1       7.331   7.137  17.205  0.00  0.00    +0.000 A 
ATOM     26  C   UNL     1       6.397   6.246  16.693  0.00  0.00    +0.000 A 
ENDBRANCH  19  20
ENDBRANCH  18  19
ENDBRANCH   6  18
TORSDOF 8
ENDMDL
MODEL 3
REMARK VINA RESULT:      -7.5      1.798      2.877
REMARK  Name = 
REMARK  9 active torsions:
REMARK  status: ('A' for Active; 'I' for Inactive)
REMARK    1  A    between atoms: C_1  and  C_2
REMARK    2  A    between atoms: C_2  and  O_3
REMARK    3  A    between atoms: O_3  and  C_4
REMARK    4  A    between atoms: C_6  and  C_7
REMARK    5  A    between atoms: C_7  and  N_8
REMARK    6  A    between atoms: N_8  and  C_9
REMARK    7  A    between atoms: C_16  and  O_17
REMARK    8  A    between atoms: O_17  and  C_18
REMARK    9  A    between atoms: C_18  and  C_19
REMARK                            x       y       z     vdW  Elec       q    Type
REMARK                         _______ _______ _______ _____ _____    ______ ____
ROOT
ATOM      1  C   UNL     1       4.587   6.185  17.357  0.00  0.00    +0.000 A 
ATOM      2  C   UNL     1       5.655   7.050  17.662  0.00  0.00    +0.000 A 
ATOM      3  C   UNL     1       6.970   6.629  17.642  0.00  0.00    +0.000 A 
ATOM      4  C   UNL     1       7.281   5.333  17.250  0.00  0.00    +0.000 A 
ATOM      5  C   UNL     1       6.266   4.463  16.909  0.00  0.00    +0.000 A 
ATOM      6  C   UNL     1       4.895   4.845  16.986  0.00  0.00    +0.000 A 
ENDROOT
BRANCH   1   7
ATOM      7  O   UNL     1       3.293   6.628  17.417  0.00  0.00    +0.000 OA
BRANCH   7   9
ATOM      8  C   UNL     1       2.371   6.356  19.749  0.00  0.00    +0.000 C 
ATOM      9  C   UNL     1       2.673   7.243  18.510  0.00  0.00    +0.000 C 
ENDBRANCH   7   9
ENDBRANCH   1   7
BRANCH   3  10
ATOM     10  C   UNL     1       8.068   7.553  18.053  0.00  0.00    +0.000 C 
BRANCH  10  11
ATOM     11  N   UNL     1       7.625   8.924  17.820  0.00  0.00    +0.000 NA
ATOM     12  H   UNL     1       6.910   9.166  18.545  0.00  0.00    +0.000 HD
BRANCH  11  13
ATOM     13  C   UNL     1       8.733   9.871  17.944  0.00  0.00    +0.000 C 
ATOM     14  C   UNL     1       8.327  11.334  17.719  0.00  0.00    +0.000 C 
ATOM     15  C   UNL     1       9.555  12.055  18.245  0.00  0.00    +0.000 C 
ATOM     16  C   UNL     1      10.002  11.237  19.467  0.00  0.00    +0.000 C 
ATOM     17  C   UNL     1       9.201   9.934  19.388  0.00  0.00    +0.000 C 
ENDBRANCH  11  13
ENDBRANCH  10  11
ENDBRANCH   3  10
BRANCH   6  18
ATOM     18  O   UNL     1       3.910   3.928  16.697  0.00  0.00    +0.000 OA
BRANCH  18  19
ATOM     19  C   UNL     1       3.841   2.739  17.417  0.00  0.00    +0.000 C 
BRANCH  19  20
ATOM     20  C   UNL     1       3.129   2.768  18.736  0.00  0.00    +0.000 A 
ATOM     21  C   UNL     1       3.759   2.707  19.987  0.00  0.00    +0.000 A 
ATOM     22  C   UNL     1       2.977   2.695  21.156  0.00  0.00    +0.000 A 
ATOM     23  C   UNL     1       1.578   2.728  21.070  0.00  0.00    +0.000 A 
ATOM     24  F   UNL     1       0.823   2.688  22.195  0.00  0.00    +0.000 F 
ATOM     25  C   UNL     1       0.956   2.798  19.828  0.00  0.00    +0.000 A 
ATOM     26  C   UNL     1       1.723   2.830  18.671  0.00  0.00    +0.000 A 
ENDBRANCH  19  20
ENDBRANCH  18  19
ENDBRANCH   6  18
TORSDOF 8
ENDMDL
MODEL 4
REMARK VINA RESULT:      -7.5      4.765      7.484
REMARK  Name = 
REMARK  9 active torsions:
REMARK  status: ('A' for Active; 'I' for Inactive)
REMARK    1  A    between atoms: C_1  and  C_2
REMARK    2  A    between atoms: C_2  and  O_3
REMARK    3  A    between atoms: O_3  and  C_4
REMARK    4  A    between atoms: C_6  and  C_7
REMARK    5  A    between atoms: C_7  and  N_8
REMARK    6  A    between atoms: N_8  and  C_9
REMARK    7  A    between atoms: C_16  and  O_17
REMARK    8  A    between atoms: O_17  and  C_18
REMARK    9  A    between atoms: C_18  and  C_19
REMARK                            x       y       z     vdW  Elec       q    Type
REMARK                         _______ _______ _______ _____ _____    ______ ____
ROOT
ATOM      1  C   UNL     1       2.325   4.745  19.352  0.00  0.00    +0.000 A 
ATOM      2  C   UNL     1       1.849   5.684  20.288  0.00  0.00    +0.000 A 
ATOM      3  C   UNL     1       1.897   7.043  20.055  0.00  0.00    +0.000 A 
ATOM      4  C   UNL     1       2.367   7.526  18.839  0.00  0.00    +0.000 A 
ATOM      5  C   UNL     1       2.810   6.638  17.882  0.00  0.00    +0.000 A 
ATOM      6  C   UNL     1       2.838   5.233  18.117  0.00  0.00    +0.000 A 
ENDROOT
BRANCH   1   7
ATOM      7  O   UNL     1       2.290   3.405  19.630  0.00  0.00    +0.000 OA
BRANCH   7   9
ATOM      8  C   UNL     1       4.377   2.161  20.308  0.00  0.00    +0.000 C 
ATOM      9  C   UNL     1       2.981   2.748  20.654  0.00  0.00    +0.000 C 
ENDBRANCH   7   9
ENDBRANCH   1   7
BRANCH   3  10
ATOM     10  C   UNL     1       1.460   8.009  21.106  0.00  0.00    +0.000 C 
BRANCH  10  11
ATOM     11  N   UNL     1       1.227   9.302  20.471  0.00  0.00    +0.000 NA
ATOM     12  H   UNL     1       0.572   9.160  19.666  0.00  0.00    +0.000 HD
BRANCH  11  13
ATOM     13  C   UNL     1       0.604  10.248  21.398  0.00  0.00    +0.000 C 
ATOM     14  C   UNL     1      -0.645  10.939  20.834  0.00  0.00    +0.000 C 
ATOM     15  C   UNL     1      -1.227  11.548  22.096  0.00  0.00    +0.000 C 
ATOM     16  C   UNL     1      -0.980  10.500  23.193  0.00  0.00    +0.000 C 
ATOM     17  C   UNL     1      -0.002   9.497  22.572  0.00  0.00    +0.000 C 
ENDBRANCH  11  13
ENDBRANCH  10  11
ENDBRANCH   3  10
BRANCH   6  18
ATOM     18  O   UNL     1       3.347   4.386  17.158  0.00  0.00    +0.000 OA
BRANCH  18  19
ATOM     19  C   UNL     1       4.666   3.952  17.250  0.00  0.00    +0.000 C 
BRANCH  19  20
ATOM     20  C   UNL     1       5.710   4.973  17.586  0.00  0.00    +0.000 A 
ATOM     21  C   UNL     1       6.186   5.952  16.703  0.00  0.00    +0.000 A 
ATOM     22  C   UNL     1       7.205   6.826  17.124  0.00  0.00    +0.000 A 
ATOM     23  C   UNL     1       7.751   6.708  18.409  0.00  0.00    +0.000 A 
ATOM     24  F   UNL     1       8.752   7.532  18.805  0.00  0.00    +0.000 F 
ATOM     25  C   UNL     1       7.270   5.742  19.287  0.00  0.00    +0.000 A 
ATOM     26  C   UNL     1       6.251   4.889  18.884  0.00  0.00    +0.000 A 
ENDBRANCH  19  20
ENDBRANCH  18  19
ENDBRANCH   6  18
TORSDOF 8
ENDMDL
MODEL 5
REMARK VINA RESULT:      -7.4      4.679      7.071
REMARK  Name = 
REMARK  9 active torsions:
REMARK  status: ('A' for Active; 'I' for Inactive)
REMARK    1  A    between atoms: C_1  and  C_2
REMARK    2  A    between atoms: C_2  and  O_3
REMARK    3  A    between atoms: O_3  and  C_4
REMARK    4  A    between atoms: C_6  and  C_7
REMARK    5  A    between atoms: C_7  and  N_8
REMARK    6  A    between atoms: N_8  and  C_9
REMARK    7  A    between atoms: C_16  and  O_17
REMARK    8  A    between atoms: O_17  and  C_18
REMARK    9  A    between atoms: C_18  and  C_19
REMARK                            x       y       z     vdW  Elec       q    Type
REMARK                         _______ _______ _______ _____ _____    ______ ____
ROOT
ATOM      1  C   UNL     1       4.000   4.831  18.804  0.00  0.00    +0.000 A 
ATOM      2  C   UNL     1       5.236   4.469  18.235  0.00  0.00    +0.000 A 
ATOM      3  C   UNL     1       5.875   5.261  17.302  0.00  0.00    +0.000 A 
ATOM      4  C   UNL     1       5.334   6.490  16.943  0.00  0.00    +0.000 A 
ATOM      5  C   UNL     1       4.142   6.898  17.503  0.00  0.00    +0.000 A 
ATOM      6  C   UNL     1       3.422   6.073  18.417  0.00  0.00    +0.000 A 
ENDROOT
BRANCH   1   7
ATOM      7  O   UNL     1       3.379   4.006  19.703  0.00  0.00    +0.000 OA
BRANCH   7   9
ATOM      8  C   UNL     1       1.040   3.222  20.230  0.00  0.00    +0.000 C 
ATOM      9  C   UNL     1       2.362   3.086  19.426  0.00  0.00    +0.000 C 
ENDBRANCH   7   9
ENDBRANCH   1   7
BRANCH   3  10
ATOM     10  C   UNL     1       7.142   4.803  16.660  0.00  0.00    +0.000 C 
BRANCH  10  11
ATOM     11  N   UNL     1       7.249   5.440  15.351  0.00  0.00    +0.000 NA
ATOM     12  H   UNL     1       8.189   5.895  15.282  0.00  0.00    +0.000 HD
BRANCH  11  13
ATOM     13  C   UNL     1       7.139   4.461  14.270  0.00  0.00    +0.000 C 
ATOM     14  C   UNL     1       5.693   4.138  13.868  0.00  0.00    +0.000 C 
ATOM     15  C   UNL     1       5.918   3.409  12.556  0.00  0.00    +0.000 C 
ATOM     16  C   UNL     1       7.083   4.154  11.883  0.00  0.00    +0.000 C 
ATOM     17  C   UNL     1       7.658   5.061  12.974  0.00  0.00    +0.000 C 
ENDBRANCH  11  13
ENDBRANCH  10  11
ENDBRANCH   3  10
BRANCH   6  18
ATOM     18  O   UNL     1       2.205   6.491  18.905  0.00  0.00    +0.000 OA
BRANCH  18  19
ATOM     19  C   UNL     1       2.154   7.273  20.055  0.00  0.00    +0.000 C 
BRANCH  19  20
ATOM     20  C   UNL     1       1.329   8.524  20.008  0.00  0.00    +0.000 A 
ATOM     21  C   UNL     1       0.514   8.985  21.051  0.00  0.00    +0.000 A 
ATOM     22  C   UNL     1      -0.250  10.151  20.867  0.00  0.00    +0.000 A 
ATOM     23  C   UNL     1      -0.210  10.838  19.646  0.00  0.00    +0.000 A 
ATOM     24  F   UNL     1      -0.969  11.946  19.459  0.00  0.00    +0.000 F 
ATOM     25  C   UNL     1       0.607  10.384  18.616  0.00  0.00    +0.000 A 
ATOM     26  C   UNL     1       1.379   9.243  18.798  0.00  0.00    +0.000 A 
ENDBRANCH  19  20
ENDBRANCH  18  19
ENDBRANCH   6  18
TORSDOF 8
ENDMDL
MODEL 6
REMARK VINA RESULT:      -7.4      3.925      8.893
REMARK  Name = 
REMARK  9 active torsions:
REMARK  status: ('A' for Active; 'I' for Inactive)
REMARK    1  A    between atoms: C_1  and  C_2
REMARK    2  A    between atoms: C_2  and  O_3
REMARK    3  A    between atoms: O_3  and  C_4
REMARK    4  A    between atoms: C_6  and  C_7
REMARK    5  A    between atoms: C_7  and  N_8
REMARK    6  A    between atoms: N_8  and  C_9
REMARK    7  A    between atoms: C_16  and  O_17
REMARK    8  A    between atoms: O_17  and  C_18
REMARK    9  A    between atoms: C_18  and  C_19
REMARK                            x       y       z     vdW  Elec       q    Type
REMARK                         _______ _______ _______ _____ _____    ______ ____
ROOT
ATOM      1  C   UNL     1       4.725   6.826  17.408  0.00  0.00    +0.000 A 
ATOM      2  C   UNL     1       4.116   5.558  17.458  0.00  0.00    +0.000 A 
ATOM      3  C   UNL     1       4.842   4.390  17.350  0.00  0.00    +0.000 A 
ATOM      4  C   UNL     1       6.228   4.436  17.251  0.00  0.00    +0.000 A 
ATOM      5  C   UNL     1       6.866   5.659  17.233  0.00  0.00    +0.000 A 
ATOM      6  C   UNL     1       6.141   6.885  17.273  0.00  0.00    +0.000 A 
ENDROOT
BRANCH   1   7
ATOM      7  O   UNL     1       3.969   7.966  17.487  0.00  0.00    +0.000 OA
BRANCH   7   9
ATOM      8  C   UNL     1       1.958   9.448  17.838  0.00  0.00    +0.000 C 
ATOM      9  C   UNL     1       2.645   8.057  17.930  0.00  0.00    +0.000 C 
ENDBRANCH   7   9
ENDBRANCH   1   7
BRANCH   3  10
ATOM     10  C   UNL     1       4.152   3.066  17.325  0.00  0.00    +0.000 C 
BRANCH  10  11
ATOM     11  N   UNL     1       4.309   2.442  18.634  0.00  0.00    +0.000 NA
ATOM     12  H   UNL     1       4.902   3.068  19.228  0.00  0.00    +0.000 HD
BRANCH  11  13
ATOM     13  C   UNL     1       3.019   2.273  19.304  0.00  0.00    +0.000 C 
ATOM     14  C   UNL     1       2.644   3.436  20.233  0.00  0.00    +0.000 C 
ATOM     15  C   UNL     1       1.176   3.143  20.478  0.00  0.00    +0.000 C 
ATOM     16  C   UNL     1       0.644   2.626  19.131  0.00  0.00    +0.000 C 
ATOM     17  C   UNL     1       1.894   2.359  18.287  0.00  0.00    +0.000 C 
ENDBRANCH  11  13
ENDBRANCH  10  11
ENDBRANCH   3  10
BRANCH   6  18
ATOM     18  O   UNL     1       6.813   8.083  17.190  0.00  0.00    +0.000 OA
BRANCH  18  19
ATOM     19  C   UNL     1       8.015   8.249  17.872  0.00  0.00    +0.000 C 
BRANCH  19  20
ATOM     20  C   UNL     1       8.444   9.650  18.191  0.00  0.00    +0.000 A 
ATOM     21  C   UNL     1       8.101  10.782  17.439  0.00  0.00    +0.000 A 
ATOM     22  C   UNL     1       8.605  12.040  17.816  0.00  0.00    +0.000 A 
ATOM     23  C   UNL     1       9.456  12.158  18.923  0.00  0.00    +0.000 A 
ATOM     24  F   UNL     1       9.965  13.366  19.269  0.00  0.00    +0.000 F 
ATOM     25  C   UNL     1       9.787  11.035  19.673  0.00  0.00    +0.000 A 
ATOM     26  C   UNL     1       9.276   9.792  19.318  0.00  0.00    +0.000 A 
ENDBRANCH  19  20
ENDBRANCH  18  19
ENDBRANCH   6  18
TORSDOF 8
ENDMDL
MODEL 7
REMARK VINA RESULT:      -7.4      3.816      8.641
REMARK  Name = 
REMARK  9 active torsions:
REMARK  status: ('A' for Active; 'I' for Inactive)
REMARK    1  A    between atoms: C_1  and  C_2
REMARK    2  A    between atoms: C_2  and  O_3
REMARK    3  A    between atoms: O_3  and  C_4
REMARK    4  A    between atoms: C_6  and  C_7
REMARK    5  A    between atoms: C_7  and  N_8
REMARK    6  A    between atoms: N_8  and  C_9
REMARK    7  A    between atoms: C_16  and  O_17
REMARK    8  A    between atoms: O_17  and  C_18
REMARK    9  A    between atoms: C_18  and  C_19
REMARK                            x       y       z     vdW  Elec       q    Type
REMARK                         _______ _______ _______ _____ _____    ______ ____
ROOT
ATOM      1  C   UNL     1       6.607   5.498  16.109  0.00  0.00    +0.000 A 
ATOM      2  C   UNL     1       5.689   4.441  16.260  0.00  0.00    +0.000 A 
ATOM      3  C   UNL     1       4.960   4.260  17.417  0.00  0.00    +0.000 A 
ATOM      4  C   UNL     1       5.070   5.173  18.460  0.00  0.00    +0.000 A 
ATOM      5  C   UNL     1       5.932   6.243  18.339  0.00  0.00    +0.000 A 
ATOM      6  C   UNL     1       6.750   6.420  17.185  0.00  0.00    +0.000 A 
ENDROOT
BRANCH   1   7
ATOM      7  O   UNL     1       7.336   5.630  14.957  0.00  0.00    +0.000 OA
BRANCH   7   9
ATOM      8  C   UNL     1       7.904   5.367  12.513  0.00  0.00    +0.000 C 
ATOM      9  C   UNL     1       7.226   4.839  13.808  0.00  0.00    +0.000 C 
ENDBRANCH   7   9
ENDBRANCH   1   7
BRANCH   3  10
ATOM     10  C   UNL     1       4.059   3.080  17.571  0.00  0.00    +0.000 C 
BRANCH  10  11
ATOM     11  N   UNL     1       2.700   3.494  17.237  0.00  0.00    +0.000 NA
ATOM     12  H   UNL     1       2.366   2.910  16.434  0.00  0.00    +0.000 HD
BRANCH  11  13
ATOM     13  C   UNL     1       1.787   3.285  18.360  0.00  0.00    +0.000 C 
ATOM     14  C   UNL     1       2.362   2.395  19.471  0.00  0.00    +0.000 C 
ATOM     15  C   UNL     1       1.368   2.656  20.587  0.00  0.00    +0.000 C 
ATOM     16  C   UNL     1       1.025   4.150  20.473  0.00  0.00    +0.000 C 
ATOM     17  C   UNL     1       1.595   4.586  19.120  0.00  0.00    +0.000 C 
ENDBRANCH  11  13
ENDBRANCH  10  11
ENDBRANCH   3  10
BRANCH   6  18
ATOM     18  O   UNL     1       7.642   7.466  17.130  0.00  0.00    +0.000 OA
BRANCH  18  19
ATOM     19  C   UNL     1       8.210   7.951  18.305  0.00  0.00    +0.000 C 
BRANCH  19  20
ATOM     20  C   UNL     1       8.520   9.416  18.372  0.00  0.00    +0.000 A 
ATOM     21  C   UNL     1       8.015  10.382  17.490  0.00  0.00    +0.000 A 
ATOM     22  C   UNL     1       8.418  11.722  17.629  0.00  0.00    +0.000 A 
ATOM     23  C   UNL     1       9.329  12.087  18.630  0.00  0.00    +0.000 A 
ATOM     24  F   UNL     1       9.740  13.374  18.746  0.00  0.00    +0.000 F 
ATOM     25  C   UNL     1       9.821  11.128  19.510  0.00  0.00    +0.000 A 
ATOM     26  C   UNL     1       9.412   9.806  19.390  0.00  0.00    +0.000 A 
ENDBRANCH  19  20
ENDBRANCH  18  19
ENDBRANCH   6  18
TORSDOF 8
ENDMDL
MODEL 8
REMARK VINA RESULT:      -7.2      5.221      7.461
REMARK  Name = 
REMARK  9 active torsions:
REMARK  status: ('A' for Active; 'I' for Inactive)
REMARK    1  A    between atoms: C_1  and  C_2
REMARK    2  A    between atoms: C_2  and  O_3
REMARK    3  A    between atoms: O_3  and  C_4
REMARK    4  A    between atoms: C_6  and  C_7
REMARK    5  A    between atoms: C_7  and  N_8
REMARK    6  A    between atoms: N_8  and  C_9
REMARK    7  A    between atoms: C_16  and  O_17
REMARK    8  A    between atoms: O_17  and  C_18
REMARK    9  A    between atoms: C_18  and  C_19
REMARK                            x       y       z     vdW  Elec       q    Type
REMARK                         _______ _______ _______ _____ _____    ______ ____
ROOT
ATOM      1  C   UNL     1       3.434   5.343  19.534  0.00  0.00    +0.000 A 
ATOM      2  C   UNL     1       4.462   4.731  18.792  0.00  0.00    +0.000 A 
ATOM      3  C   UNL     1       4.932   5.265  17.610  0.00  0.00    +0.000 A 
ATOM      4  C   UNL     1       4.438   6.479  17.147  0.00  0.00    +0.000 A 
ATOM      5  C   UNL     1       3.455   7.129  17.863  0.00  0.00    +0.000 A 
ATOM      6  C   UNL     1       2.898   6.570  19.051  0.00  0.00    +0.000 A 
ENDROOT
BRANCH   1   7
ATOM      7  O   UNL     1       2.970   4.768  20.688  0.00  0.00    +0.000 OA
BRANCH   7   9
ATOM      8  C   UNL     1       0.886   3.463  20.126  0.00  0.00    +0.000 C 
ATOM      9  C   UNL     1       2.285   3.553  20.796  0.00  0.00    +0.000 C 
ENDBRANCH   7   9
ENDBRANCH   1   7
BRANCH   3  10
ATOM     10  C   UNL     1       5.964   4.543  16.809  0.00  0.00    +0.000 C 
BRANCH  10  11
ATOM     11  N   UNL     1       5.322   4.001  15.616  0.00  0.00    +0.000 NA
ATOM     12  H   UNL     1       4.584   4.676  15.304  0.00  0.00    +0.000 HD
BRANCH  11  13
ATOM     13  C   UNL     1       6.278   3.840  14.520  0.00  0.00    +0.000 C 
ATOM     14  C   UNL     1       5.623   3.692  13.140  0.00  0.00    +0.000 C 
ATOM     15  C   UNL     1       6.821   3.896  12.232  0.00  0.00    +0.000 C 
ATOM     16  C   UNL     1       7.655   4.992  12.917  0.00  0.00    +0.000 C 
ATOM     17  C   UNL     1       7.056   5.130  14.319  0.00  0.00    +0.000 C 
ENDBRANCH  11  13
ENDBRANCH  10  11
ENDBRANCH   3  10
BRANCH   6  18
ATOM     18  O   UNL     1       1.875   7.221  19.702  0.00  0.00    +0.000 OA
BRANCH  18  19
ATOM     19  C   UNL     1       1.740   8.600  19.570  0.00  0.00    +0.000 C 
BRANCH  19  20
ATOM     20  C   UNL     1       0.839   9.305  20.540  0.00  0.00    +0.000 A 
ATOM     21  C   UNL     1      -0.021  10.361  20.210  0.00  0.00    +0.000 A 
ATOM     22  C   UNL     1      -0.785  10.972  21.221  0.00  0.00    +0.000 A 
ATOM     23  C   UNL     1      -0.674  10.539  22.550  0.00  0.00    +0.000 A 
ATOM     24  F   UNL     1      -1.388  11.147  23.529  0.00  0.00    +0.000 F 
ATOM     25  C   UNL     1       0.174   9.485  22.873  0.00  0.00    +0.000 A 
ATOM     26  C   UNL     1       0.916   8.864  21.876  0.00  0.00    +0.000 A 
ENDBRANCH  19  20
ENDBRANCH  18  19
ENDBRANCH   6  18
TORSDOF 8
ENDMDL
MODEL 9
REMARK VINA RESULT:      -7.2      4.844      7.664
REMARK  Name = 
REMARK  9 active torsions:
REMARK  status: ('A' for Active; 'I' for Inactive)
REMARK    1  A    between atoms: C_1  and  C_2
REMARK    2  A    between atoms: C_2  and  O_3
REMARK    3  A    between atoms: O_3  and  C_4
REMARK    4  A    between atoms: C_6  and  C_7
REMARK    5  A    between atoms: C_7  and  N_8
REMARK    6  A    between atoms: N_8  and  C_9
REMARK    7  A    between atoms: C_16  and  O_17
REMARK    8  A    between atoms: O_17  and  C_18
REMARK    9  A    between atoms: C_18  and  C_19
REMARK                            x       y       z     vdW  Elec       q    Type
REMARK                         _______ _______ _______ _____ _____    ______ ____
ROOT
ATOM      1  C   UNL     1       2.757   5.257  19.425  0.00  0.00    +0.000 A 
ATOM      2  C   UNL     1       2.148   6.428  19.916  0.00  0.00    +0.000 A 
ATOM      3  C   UNL     1       2.150   7.610  19.204  0.00  0.00    +0.000 A 
ATOM      4  C   UNL     1       2.708   7.658  17.932  0.00  0.00    +0.000 A 
ATOM      5  C   UNL     1       3.283   6.523  17.400  0.00  0.00    +0.000 A 
ATOM      6  C   UNL     1       3.359   5.305  18.136  0.00  0.00    +0.000 A 
ENDROOT
BRANCH   1   7
ATOM      7  O   UNL     1       2.762   4.109  20.172  0.00  0.00    +0.000 OA
BRANCH   7   9
ATOM      8  C   UNL     1       1.458   2.560  21.676  0.00  0.00    +0.000 C 
ATOM      9  C   UNL     1       2.155   3.924  21.419  0.00  0.00    +0.000 C 
ENDBRANCH   7   9
ENDBRANCH   1   7
BRANCH   3  10
ATOM     10  C   UNL     1       1.568   8.852  19.794  0.00  0.00    +0.000 C 
BRANCH  10  11
ATOM     11  N   UNL     1       1.073   8.536  21.130  0.00  0.00    +0.000 NA
ATOM     12  H   UNL     1       1.864   8.138  21.688  0.00  0.00    +0.000 HD
BRANCH  11  13
ATOM     13  C   UNL     1       0.592   9.734  21.818  0.00  0.00    +0.000 C 
ATOM     14  C   UNL     1      -0.283  10.644  20.944  0.00  0.00    +0.000 C 
ATOM     15  C   UNL     1      -0.884  11.557  21.996  0.00  0.00    +0.000 C 
ATOM     16  C   UNL     1      -1.150  10.647  23.207  0.00  0.00    +0.000 C 
ATOM     17  C   UNL     1      -0.406   9.345  22.896  0.00  0.00    +0.000 C 
ENDBRANCH  11  13
ENDBRANCH  10  11
ENDBRANCH   3  10
BRANCH   6  18
ATOM     18  O   UNL     1       3.998   4.213  17.592  0.00  0.00    +0.000 OA
BRANCH  18  19
ATOM     19  C   UNL     1       5.193   4.386  16.900  0.00  0.00    +0.000 C 
BRANCH  19  20
ATOM     20  C   UNL     1       6.234   5.267  17.522  0.00  0.00    +0.000 A 
ATOM     21  C   UNL     1       6.854   5.024  18.756  0.00  0.00    +0.000 A 
ATOM     22  C   UNL     1       7.784   5.952  19.256  0.00  0.00    +0.000 A 
ATOM     23  C   UNL     1       8.078   7.118  18.535  0.00  0.00    +0.000 A 
ATOM     24  F   UNL     1       8.953   8.027  19.031  0.00  0.00    +0.000 F 
ATOM     25  C   UNL     1       7.469   7.351  17.307  0.00  0.00    +0.000 A 
ATOM     26  C   UNL     1       6.563   6.429  16.798  0.00  0.00    +0.000 A 
ENDBRANCH  19  20
ENDBRANCH  18  19
ENDBRANCH   6  18
TORSDOF 8
ENDMDL
