MODEL 1
REMARK VINA RESULT:      -7.2      0.000      0.000
REMARK  Name = 
REMARK  3 active torsions:
REMARK  status: ('A' for Active; 'I' for Inactive)
REMARK    1  A    between atoms: N_3  and  C_4
REMARK    2  A    between atoms: N_13  and  C_14
REMARK    3  A    between atoms: C_14  and  C_15
REMARK                            x       y       z     vdW  Elec       q    Type
REMARK                         _______ _______ _______ _____ _____    ______ ____
ROOT
ATOM      1  O   UNL     1       1.965   9.001  17.449  0.00  0.00    +0.000 OA
ATOM      2  C   UNL     1       1.862   8.419  18.528  0.00  0.00    +0.000 C 
ATOM      3  N   UNL     1       2.473   7.222  18.813  0.00  0.00    +0.000 N 
ATOM      4  N   UNL     1       1.108   8.970  19.553  0.00  0.00    +0.000 N 
ATOM      5  C   UNL     1       0.905   8.439  20.908  0.00  0.00    +0.000 C 
ATOM      6  C   UNL     1       1.271   9.481  21.993  0.00  0.00    +0.000 C 
ATOM      7  N   UNL     1       0.664  10.821  21.802  0.00  0.00    +0.000 NA
ATOM      8  C   UNL     1       0.990  11.277  20.429  0.00  0.00    +0.000 C 
ATOM      9  C   UNL     1       0.535  10.303  19.328  0.00  0.00    +0.000 C 
ATOM     10  H   UNL     1       2.069   6.670  19.547  0.00  0.00    +0.000 HD
ENDROOT
BRANCH   3  11
ATOM     11  C   UNL     1       3.428   6.559  18.013  0.00  0.00    +0.000 A 
ATOM     12  C   UNL     1       4.478   7.211  17.364  0.00  0.00    +0.000 A 
ATOM     13  C   UNL     1       5.358   6.501  16.545  0.00  0.00    +0.000 A 
ATOM     14  C   UNL     1       5.209   5.127  16.388  0.00  0.00    +0.000 A 
ATOM     15  C   UNL     1       4.193   4.459  17.070  0.00  0.00    +0.000 A 
ATOM     16  C   UNL     1       3.309   5.172  17.883  0.00  0.00    +0.000 A 
ENDBRANCH   3  11
BRANCH   7  17
ATOM     17  C   UNL     1      -0.786  10.765  22.062  0.00  0.00    +0.000 C 
BRANCH  17  18
ATOM     18  C   UNL     1      -1.360  11.996  22.730  0.00  0.00    +0.000 A 
ATOM     19  C   UNL     1      -0.635  13.198  22.746  0.00  0.00    +0.000 A 
ATOM     20  C   UNL     1      -1.172  14.347  23.326  0.00  0.00    +0.000 A 
ATOM     21  C   UNL     1      -2.440  14.302  23.899  0.00  0.00    +0.000 A 
ATOM     22  I   UNL     1      -3.253  16.022  24.735  0.00  0.00    +0.000 I 
ATOM     23  C   UNL     1      -3.172  13.115  23.900  0.00  0.00    +0.000 A 
ATOM     24  C   UNL     1      -2.632  11.965  23.318  0.00  0.00    +0.000 A 
ENDBRANCH  17  18
ENDBRANCH   7  17
TORSDOF 3
ENDMDL
MODEL 2
REMARK VINA RESULT:      -7.2      0.176      1.023
REMARK  Name = 
REMARK  3 active torsions:
REMARK  status: ('A' for Active; 'I' for Inactive)
REMARK    1  A    between atoms: N_3  and  C_4
REMARK    2  A    between atoms: N_13  and  C_14
REMARK    3  A    between atoms: C_14  and  C_15
REMARK                            x       y       z     vdW  Elec       q    Type
REMARK                         _______ _______ _______ _____ _____    ______ ____
ROOT
ATOM      1  O   UNL     1       2.114   8.943  17.354  0.00  0.00    +0.000 OA
ATOM      2  C   UNL     1       1.972   8.362  18.429  0.00  0.00    +0.000 C 
ATOM      3  N   UNL     1       2.549   7.152  18.726  0.00  0.00    +0.000 N 
ATOM      4  N   UNL     1       1.207   8.929  19.436  0.00  0.00    +0.000 N 
ATOM      5  C   UNL     1       0.960   8.402  20.786  0.00  0.00    +0.000 C 
ATOM      6  C   UNL     1       1.324   9.434  21.881  0.00  0.00    +0.000 C 
ATOM      7  N   UNL     1       0.752  10.787  21.678  0.00  0.00    +0.000 NA
ATOM      8  C   UNL     1       1.121  11.237  20.314  0.00  0.00    +0.000 C 
ATOM      9  C   UNL     1       0.670  10.275  19.201  0.00  0.00    +0.000 C 
ATOM     10  H   UNL     1       2.115   6.608  19.449  0.00  0.00    +0.000 HD
ENDROOT
BRANCH   3  11
ATOM     11  C   UNL     1       3.507   6.468  17.948  0.00  0.00    +0.000 A 
ATOM     12  C   UNL     1       4.641   7.078  17.407  0.00  0.00    +0.000 A 
ATOM     13  C   UNL     1       5.523   6.354  16.602  0.00  0.00    +0.000 A 
ATOM     14  C   UNL     1       5.290   5.006  16.352  0.00  0.00    +0.000 A 
ATOM     15  C   UNL     1       4.188   4.375  16.926  0.00  0.00    +0.000 A 
ATOM     16  C   UNL     1       3.302   5.102  17.724  0.00  0.00    +0.000 A 
ENDBRANCH   3  11
BRANCH   7  17
ATOM     17  C   UNL     1      -0.704  10.764  21.903  0.00  0.00    +0.000 C 
BRANCH  17  18
ATOM     18  C   UNL     1      -1.266  12.005  22.562  0.00  0.00    +0.000 A 
ATOM     19  C   UNL     1      -2.514  11.965  23.204  0.00  0.00    +0.000 A 
ATOM     20  C   UNL     1      -3.022  13.094  23.846  0.00  0.00    +0.000 A 
ATOM     21  C   UNL     1      -2.285  14.275  23.851  0.00  0.00    +0.000 A 
ATOM     22  I   UNL     1      -3.029  15.948  24.835  0.00  0.00    +0.000 I 
ATOM     23  C   UNL     1      -1.048  14.337  23.211  0.00  0.00    +0.000 A 
ATOM     24  C   UNL     1      -0.540  13.205  22.568  0.00  0.00    +0.000 A 
ENDBRANCH  17  18
ENDBRANCH   7  17
TORSDOF 3
ENDMDL
MODEL 3
REMARK VINA RESULT:      -7.0      0.133      1.008
REMARK  Name = 
REMARK  3 active torsions:
REMARK  status: ('A' for Active; 'I' for Inactive)
REMARK    1  A    between atoms: N_3  and  C_4
REMARK    2  A    between atoms: N_13  and  C_14
REMARK    3  A    between atoms: C_14  and  C_15
REMARK                            x       y       z     vdW  Elec       q    Type
REMARK                         _______ _______ _______ _____ _____    ______ ____
ROOT
ATOM      1  O   UNL     1       1.893   8.853  17.405  0.00  0.00    +0.000 OA
ATOM      2  C   UNL     1       1.838   8.305  18.505  0.00  0.00    +0.000 C 
ATOM      3  N   UNL     1       2.482   7.130  18.806  0.00  0.00    +0.000 N 
ATOM      4  N   UNL     1       1.111   8.875  19.538  0.00  0.00    +0.000 N 
ATOM      5  C   UNL     1       0.965   8.385  20.916  0.00  0.00    +0.000 C 
ATOM      6  C   UNL     1       1.348   9.469  21.953  0.00  0.00    +0.000 C 
ATOM      7  N   UNL     1       0.709  10.790  21.741  0.00  0.00    +0.000 NA
ATOM      8  C   UNL     1       0.978  11.207  20.344  0.00  0.00    +0.000 C 
ATOM      9  C   UNL     1       0.504  10.190  19.291  0.00  0.00    +0.000 C 
ATOM     10  H   UNL     1       2.115   6.595  19.571  0.00  0.00    +0.000 HD
ENDROOT
BRANCH   3  11
ATOM     11  C   UNL     1       3.421   6.459  17.994  0.00  0.00    +0.000 A 
ATOM     12  C   UNL     1       3.327   5.106  17.660  0.00  0.00    +0.000 A 
ATOM     13  C   UNL     1       4.320   4.492  16.895  0.00  0.00    +0.000 A 
ATOM     14  C   UNL     1       5.405   5.232  16.437  0.00  0.00    +0.000 A 
ATOM     15  C   UNL     1       5.484   6.594  16.724  0.00  0.00    +0.000 A 
ATOM     16  C   UNL     1       4.494   7.206  17.496  0.00  0.00    +0.000 A 
ENDBRANCH   3  11
BRANCH   7  17
ATOM     17  C   UNL     1      -0.729  10.716  22.054  0.00  0.00    +0.000 C 
BRANCH  17  18
ATOM     18  C   UNL     1      -1.304  11.957  22.702  0.00  0.00    +0.000 A 
ATOM     19  C   UNL     1      -0.569  13.154  22.718  0.00  0.00    +0.000 A 
ATOM     20  C   UNL     1      -1.106  14.312  23.280  0.00  0.00    +0.000 A 
ATOM     21  C   UNL     1      -2.383  14.283  23.833  0.00  0.00    +0.000 A 
ATOM     22  I   UNL     1      -3.194  16.017  24.642  0.00  0.00    +0.000 I 
ATOM     23  C   UNL     1      -3.124  13.102  23.835  0.00  0.00    +0.000 A 
ATOM     24  C   UNL     1      -2.585  11.942  23.272  0.00  0.00    +0.000 A 
ENDBRANCH  17  18
ENDBRANCH   7  17
TORSDOF 3
ENDMDL
MODEL 4
REMARK VINA RESULT:      -6.9      0.225      1.433
REMARK  Name = 
REMARK  3 active torsions:
REMARK  status: ('A' for Active; 'I' for Inactive)
REMARK    1  A    between atoms: N_3  and  C_4
REMARK    2  A    between atoms: N_13  and  C_14
REMARK    3  A    between atoms: C_14  and  C_15
REMARK                            x       y       z     vdW  Elec       q    Type
REMARK                         _______ _______ _______ _____ _____    ______ ____
ROOT
ATOM      1  O   UNL     1       1.971   8.805  17.377  0.00  0.00    +0.000 OA
ATOM      2  C   UNL     1       1.942   8.279  18.489  0.00  0.00    +0.000 C 
ATOM      3  N   UNL     1       2.619   7.127  18.807  0.00  0.00    +0.000 N 
ATOM      4  N   UNL     1       1.211   8.851  19.517  0.00  0.00    +0.000 N 
ATOM      5  C   UNL     1       1.093   8.387  20.907  0.00  0.00    +0.000 C 
ATOM      6  C   UNL     1       1.458   9.501  21.918  0.00  0.00    +0.000 C 
ATOM      7  N   UNL     1       0.783  10.801  21.685  0.00  0.00    +0.000 NA
ATOM      8  C   UNL     1       1.026  11.195  20.277  0.00  0.00    +0.000 C 
ATOM      9  C   UNL     1       0.568  10.145  19.251  0.00  0.00    +0.000 C 
ATOM     10  H   UNL     1       2.274   6.599  19.587  0.00  0.00    +0.000 HD
ENDROOT
BRANCH   3  11
ATOM     11  C   UNL     1       3.567   6.463  17.999  0.00  0.00    +0.000 A 
ATOM     12  C   UNL     1       3.442   5.132  17.596  0.00  0.00    +0.000 A 
ATOM     13  C   UNL     1       4.444   4.521  16.839  0.00  0.00    +0.000 A 
ATOM     14  C   UNL     1       5.569   5.245  16.458  0.00  0.00    +0.000 A 
ATOM     15  C   UNL     1       5.681   6.588  16.814  0.00  0.00    +0.000 A 
ATOM     16  C   UNL     1       4.682   7.196  17.577  0.00  0.00    +0.000 A 
ENDBRANCH   3  11
BRANCH   7  17
ATOM     17  C   UNL     1      -0.650  10.697  22.015  0.00  0.00    +0.000 C 
BRANCH  17  18
ATOM     18  C   UNL     1      -1.259  11.949  22.610  0.00  0.00    +0.000 A 
ATOM     19  C   UNL     1      -2.530  11.905  23.205  0.00  0.00    +0.000 A 
ATOM     20  C   UNL     1      -3.082  13.045  23.789  0.00  0.00    +0.000 A 
ATOM     21  C   UNL     1      -2.368  14.240  23.780  0.00  0.00    +0.000 A 
ATOM     22  I   UNL     1      -3.178  15.931  24.678  0.00  0.00    +0.000 I 
ATOM     23  C   UNL     1      -1.108  14.305  23.185  0.00  0.00    +0.000 A 
ATOM     24  C   UNL     1      -0.556  13.162  22.601  0.00  0.00    +0.000 A 
ENDBRANCH  17  18
ENDBRANCH   7  17
TORSDOF 3
ENDMDL
MODEL 5
REMARK VINA RESULT:      -6.8      1.403      2.088
REMARK  Name = 
REMARK  3 active torsions:
REMARK  status: ('A' for Active; 'I' for Inactive)
REMARK    1  A    between atoms: N_3  and  C_4
REMARK    2  A    between atoms: N_13  and  C_14
REMARK    3  A    between atoms: C_14  and  C_15
REMARK                            x       y       z     vdW  Elec       q    Type
REMARK                         _______ _______ _______ _____ _____    ______ ____
ROOT
ATOM      1  O   UNL     1       2.265   6.416  20.847  0.00  0.00    +0.000 OA
ATOM      2  C   UNL     1       2.082   7.256  19.968  0.00  0.00    +0.000 C 
ATOM      3  N   UNL     1       2.346   7.041  18.637  0.00  0.00    +0.000 N 
ATOM      4  N   UNL     1       1.566   8.503  20.286  0.00  0.00    +0.000 N 
ATOM      5  C   UNL     1       1.249   9.608  19.371  0.00  0.00    +0.000 C 
ATOM      6  C   UNL     1      -0.211  10.093  19.539  0.00  0.00    +0.000 C 
ATOM      7  N   UNL     1      -0.621  10.368  20.938  0.00  0.00    +0.000 NA
ATOM      8  C   UNL     1      -0.313   9.164  21.748  0.00  0.00    +0.000 C 
ATOM      9  C   UNL     1       1.162   8.731  21.679  0.00  0.00    +0.000 C 
ATOM     10  H   UNL     1       2.499   7.854  18.068  0.00  0.00    +0.000 HD
ENDROOT
BRANCH   3  11
ATOM     11  C   UNL     1       2.697   5.811  18.042  0.00  0.00    +0.000 A 
ATOM     12  C   UNL     1       1.823   4.728  17.934  0.00  0.00    +0.000 A 
ATOM     13  C   UNL     1       2.252   3.520  17.380  0.00  0.00    +0.000 A 
ATOM     14  C   UNL     1       3.554   3.395  16.906  0.00  0.00    +0.000 A 
ATOM     15  C   UNL     1       4.420   4.485  16.965  0.00  0.00    +0.000 A 
ATOM     16  C   UNL     1       3.992   5.690  17.527  0.00  0.00    +0.000 A 
ENDBRANCH   3  11
BRANCH   7  17
ATOM     17  C   UNL     1       0.050  11.583  21.434  0.00  0.00    +0.000 C 
BRANCH  17  18
ATOM     18  C   UNL     1      -0.848  12.543  22.185  0.00  0.00    +0.000 A 
ATOM     19  C   UNL     1      -0.391  13.828  22.519  0.00  0.00    +0.000 A 
ATOM     20  C   UNL     1      -1.225  14.732  23.177  0.00  0.00    +0.000 A 
ATOM     21  C   UNL     1      -2.524  14.357  23.509  0.00  0.00    +0.000 A 
ATOM     22  I   UNL     1      -3.775  15.716  24.462  0.00  0.00    +0.000 I 
ATOM     23  C   UNL     1      -2.992  13.082  23.194  0.00  0.00    +0.000 A 
ATOM     24  C   UNL     1      -2.156  12.178  22.535  0.00  0.00    +0.000 A 
ENDBRANCH  17  18
ENDBRANCH   7  17
TORSDOF 3
ENDMDL
MODEL 6
REMARK VINA RESULT:      -6.8      1.046      1.121
REMARK  Name = 
REMARK  3 active torsions:
REMARK  status: ('A' for Active; 'I' for Inactive)
REMARK    1  A    between atoms: N_3  and  C_4
REMARK    2  A    between atoms: N_13  and  C_14
REMARK    3  A    between atoms: C_14  and  C_15
REMARK                            x       y       z     vdW  Elec       q    Type
REMARK                         _______ _______ _______ _____ _____    ______ ____
ROOT
ATOM      1  O   UNL     1       2.096   8.937  17.437  0.00  0.00    +0.000 OA
ATOM      2  C   UNL     1       1.978   8.336  18.504  0.00  0.00    +0.000 C 
ATOM      3  N   UNL     1       2.557   7.118  18.762  0.00  0.00    +0.000 N 
ATOM      4  N   UNL     1       1.241   8.885  19.541  0.00  0.00    +0.000 N 
ATOM      5  C   UNL     1       1.026   8.332  20.885  0.00  0.00    +0.000 C 
ATOM      6  C   UNL     1       1.420   9.341  21.991  0.00  0.00    +0.000 C 
ATOM      7  N   UNL     1       0.850  10.700  21.829  0.00  0.00    +0.000 NA
ATOM      8  C   UNL     1       1.186  11.175  20.466  0.00  0.00    +0.000 C 
ATOM      9  C   UNL     1       0.704  10.238  19.346  0.00  0.00    +0.000 C 
ATOM     10  H   UNL     1       2.140   6.561  19.485  0.00  0.00    +0.000 HD
ENDROOT
BRANCH   3  11
ATOM     11  C   UNL     1       3.493   6.446  17.947  0.00  0.00    +0.000 A 
ATOM     12  C   UNL     1       4.593   7.072  17.357  0.00  0.00    +0.000 A 
ATOM     13  C   UNL     1       5.452   6.359  16.518  0.00  0.00    +0.000 A 
ATOM     14  C   UNL     1       5.231   5.006  16.282  0.00  0.00    +0.000 A 
ATOM     15  C   UNL     1       4.164   4.360  16.904  0.00  0.00    +0.000 A 
ATOM     16  C   UNL     1       3.301   5.077  17.737  0.00  0.00    +0.000 A 
ENDBRANCH   3  11
BRANCH   7  17
ATOM     17  C   UNL     1      -0.601  10.677  22.091  0.00  0.00    +0.000 C 
BRANCH  17  18
ATOM     18  C   UNL     1      -1.276  12.031  22.049  0.00  0.00    +0.000 A 
ATOM     19  C   UNL     1      -1.020  12.982  23.051  0.00  0.00    +0.000 A 
ATOM     20  C   UNL     1      -1.608  14.246  23.000  0.00  0.00    +0.000 A 
ATOM     21  C   UNL     1      -2.459  14.569  21.947  0.00  0.00    +0.000 A 
ATOM     22  I   UNL     1      -3.310  16.463  21.855  0.00  0.00    +0.000 I 
ATOM     23  C   UNL     1      -2.732  13.635  20.948  0.00  0.00    +0.000 A 
ATOM     24  C   UNL     1      -2.142  12.370  21.000  0.00  0.00    +0.000 A 
ENDBRANCH  17  18
ENDBRANCH   7  17
TORSDOF 3
ENDMDL
MODEL 7
REMARK VINA RESULT:      -6.8      1.600      2.427
REMARK  Name = 
REMARK  3 active torsions:
REMARK  status: ('A' for Active; 'I' for Inactive)
REMARK    1  A    between atoms: N_3  and  C_4
REMARK    2  A    between atoms: N_13  and  C_14
REMARK    3  A    between atoms: C_14  and  C_15
REMARK                            x       y       z     vdW  Elec       q    Type
REMARK                         _______ _______ _______ _____ _____    ______ ____
ROOT
ATOM      1  O   UNL     1       2.183   6.932  20.462  0.00  0.00    +0.000 OA
ATOM      2  C   UNL     1       2.051   7.578  19.424  0.00  0.00    +0.000 C 
ATOM      3  N   UNL     1       2.434   7.123  18.186  0.00  0.00    +0.000 N 
ATOM      4  N   UNL     1       1.475   8.839  19.451  0.00  0.00    +0.000 N 
ATOM      5  C   UNL     1       1.206   9.731  18.315  0.00  0.00    +0.000 C 
ATOM      6  C   UNL     1      -0.277  10.173  18.271  0.00  0.00    +0.000 C 
ATOM      7  N   UNL     1      -0.812  10.694  19.553  0.00  0.00    +0.000 NA
ATOM      8  C   UNL     1      -0.540   9.684  20.604  0.00  0.00    +0.000 C 
ATOM      9  C   UNL     1       0.946   9.313  20.737  0.00  0.00    +0.000 C 
ATOM     10  H   UNL     1       2.612   7.817  17.483  0.00  0.00    +0.000 HD
ENDROOT
BRANCH   3  11
ATOM     11  C   UNL     1       2.871   5.818  17.873  0.00  0.00    +0.000 A 
ATOM     12  C   UNL     1       2.020   4.713  17.813  0.00  0.00    +0.000 A 
ATOM     13  C   UNL     1       2.526   3.439  17.548  0.00  0.00    +0.000 A 
ATOM     14  C   UNL     1       3.887   3.265  17.316  0.00  0.00    +0.000 A 
ATOM     15  C   UNL     1       4.737   4.369  17.325  0.00  0.00    +0.000 A 
ATOM     16  C   UNL     1       4.231   5.641  17.598  0.00  0.00    +0.000 A 
ENDBRANCH   3  11
BRANCH   7  17
ATOM     17  C   UNL     1      -0.222  12.011  19.852  0.00  0.00    +0.000 C 
BRANCH  17  18
ATOM     18  C   UNL     1      -0.950  12.807  20.914  0.00  0.00    +0.000 A 
ATOM     19  C   UNL     1      -2.306  13.136  20.750  0.00  0.00    +0.000 A 
ATOM     20  C   UNL     1      -2.994  13.836  21.740  0.00  0.00    +0.000 A 
ATOM     21  C   UNL     1      -2.331  14.216  22.904  0.00  0.00    +0.000 A 
ATOM     22  I   UNL     1      -3.366  15.231  24.393  0.00  0.00    +0.000 I 
ATOM     23  C   UNL     1      -0.983  13.906  23.081  0.00  0.00    +0.000 A 
ATOM     24  C   UNL     1      -0.295  13.205  22.088  0.00  0.00    +0.000 A 
ENDBRANCH  17  18
ENDBRANCH   7  17
TORSDOF 3
ENDMDL
MODEL 8
REMARK VINA RESULT:      -6.8      2.917      3.763
REMARK  Name = 
REMARK  3 active torsions:
REMARK  status: ('A' for Active; 'I' for Inactive)
REMARK    1  A    between atoms: N_3  and  C_4
REMARK    2  A    between atoms: N_13  and  C_14
REMARK    3  A    between atoms: C_14  and  C_15
REMARK                            x       y       z     vdW  Elec       q    Type
REMARK                         _______ _______ _______ _____ _____    ______ ____
ROOT
ATOM      1  O   UNL     1       1.805   6.062  20.850  0.00  0.00    +0.000 OA
ATOM      2  C   UNL     1       2.024   6.752  19.856  0.00  0.00    +0.000 C 
ATOM      3  N   UNL     1       2.443   6.244  18.650  0.00  0.00    +0.000 N 
ATOM      4  N   UNL     1       1.838   8.125  19.899  0.00  0.00    +0.000 N 
ATOM      5  C   UNL     1       2.014   9.093  18.808  0.00  0.00    +0.000 C 
ATOM      6  C   UNL     1       0.746   9.956  18.596  0.00  0.00    +0.000 C 
ATOM      7  N   UNL     1       0.196  10.570  19.829  0.00  0.00    +0.000 NA
ATOM      8  C   UNL     1       0.002   9.492  20.828  0.00  0.00    +0.000 C 
ATOM      9  C   UNL     1       1.280   8.693  21.133  0.00  0.00    +0.000 C 
ATOM     10  H   UNL     1       2.918   6.876  18.032  0.00  0.00    +0.000 HD
ENDROOT
BRANCH   3  11
ATOM     11  C   UNL     1       2.527   4.879  18.301  0.00  0.00    +0.000 A 
ATOM     12  C   UNL     1       1.468   3.979  18.443  0.00  0.00    +0.000 A 
ATOM     13  C   UNL     1       1.635   2.630  18.127  0.00  0.00    +0.000 A 
ATOM     14  C   UNL     1       2.857   2.174  17.642  0.00  0.00    +0.000 A 
ATOM     15  C   UNL     1       3.905   3.072  17.451  0.00  0.00    +0.000 A 
ATOM     16  C   UNL     1       3.739   4.421  17.775  0.00  0.00    +0.000 A 
ENDBRANCH   3  11
BRANCH   7  17
ATOM     17  C   UNL     1       1.088  11.643  20.304  0.00  0.00    +0.000 C 
BRANCH  17  18
ATOM     18  C   UNL     1       0.694  13.038  19.868  0.00  0.00    +0.000 A 
ATOM     19  C   UNL     1       1.615  13.856  19.194  0.00  0.00    +0.000 A 
ATOM     20  C   UNL     1       1.249  15.128  18.754  0.00  0.00    +0.000 A 
ATOM     21  C   UNL     1      -0.043  15.594  18.987  0.00  0.00    +0.000 A 
ATOM     22  I   UNL     1      -0.596  17.477  18.304  0.00  0.00    +0.000 I 
ATOM     23  C   UNL     1      -0.968  14.799  19.662  0.00  0.00    +0.000 A 
ATOM     24  C   UNL     1      -0.600  13.525  20.102  0.00  0.00    +0.000 A 
ENDBRANCH  17  18
ENDBRANCH   7  17
TORSDOF 3
ENDMDL
MODEL 9
REMARK VINA RESULT:      -6.8      1.589      2.109
REMARK  Name = 
REMARK  3 active torsions:
REMARK  status: ('A' for Active; 'I' for Inactive)
REMARK    1  A    between atoms: N_3  and  C_4
REMARK    2  A    between atoms: N_13  and  C_14
REMARK    3  A    between atoms: C_14  and  C_15
REMARK                            x       y       z     vdW  Elec       q    Type
REMARK                         _______ _______ _______ _____ _____    ______ ____
ROOT
ATOM      1  O   UNL     1       2.171   6.917  20.546  0.00  0.00    +0.000 OA
ATOM      2  C   UNL     1       2.069   7.606  19.532  0.00  0.00    +0.000 C 
ATOM      3  N   UNL     1       2.496   7.206  18.289  0.00  0.00    +0.000 N 
ATOM      4  N   UNL     1       1.483   8.861  19.592  0.00  0.00    +0.000 N 
ATOM      5  C   UNL     1       1.245   9.799  18.486  0.00  0.00    +0.000 C 
ATOM      6  C   UNL     1      -0.239  10.234  18.411  0.00  0.00    +0.000 C 
ATOM      7  N   UNL     1      -0.820  10.696  19.694  0.00  0.00    +0.000 NA
ATOM      8  C   UNL     1      -0.576   9.645  20.711  0.00  0.00    +0.000 C 
ATOM      9  C   UNL     1       0.908   9.277  20.878  0.00  0.00    +0.000 C 
ATOM     10  H   UNL     1       2.692   7.930  17.623  0.00  0.00    +0.000 HD
ENDROOT
BRANCH   3  11
ATOM     11  C   UNL     1       2.952   5.918  17.936  0.00  0.00    +0.000 A 
ATOM     12  C   UNL     1       4.285   5.625  17.640  0.00  0.00    +0.000 A 
ATOM     13  C   UNL     1       4.660   4.339  17.247  0.00  0.00    +0.000 A 
ATOM     14  C   UNL     1       3.707   3.328  17.170  0.00  0.00    +0.000 A 
ATOM     15  C   UNL     1       2.382   3.599  17.509  0.00  0.00    +0.000 A 
ATOM     16  C   UNL     1       2.007   4.888  17.895  0.00  0.00    +0.000 A 
ENDBRANCH   3  11
BRANCH   7  17
ATOM     17  C   UNL     1      -0.250  12.003  20.069  0.00  0.00    +0.000 C 
BRANCH  17  18
ATOM     18  C   UNL     1      -1.063  12.786  21.078  0.00  0.00    +0.000 A 
ATOM     19  C   UNL     1      -0.578  12.981  22.382  0.00  0.00    +0.000 A 
ATOM     20  C   UNL     1      -1.302  13.732  23.307  0.00  0.00    +0.000 A 
ATOM     21  C   UNL     1      -2.521  14.294  22.936  0.00  0.00    +0.000 A 
ATOM     22  I   UNL     1      -3.584  15.440  24.305  0.00  0.00    +0.000 I 
ATOM     23  C   UNL     1      -3.023  14.104  21.649  0.00  0.00    +0.000 A 
ATOM     24  C   UNL     1      -2.296  13.351  20.724  0.00  0.00    +0.000 A 
ENDBRANCH  17  18
ENDBRANCH   7  17
TORSDOF 3
ENDMDL
