MODEL 1
REMARK VINA RESULT:      -7.5      0.000      0.000
REMARK  Name = 
REMARK  10 active torsions:
REMARK  status: ('A' for Active; 'I' for Inactive)
REMARK    1  A    between atoms: C_6  and  C_7
REMARK    2  A    between atoms: C_8  and  C_9
REMARK    3  A    between atoms: C_9  and  C_10
REMARK    4  A    between atoms: C_10  and  O_11
REMARK    5  A    between atoms: C_10  and  C_12
REMARK    6  A    between atoms: C_12  and  C_13
REMARK    7  A    between atoms: C_13  and  O_14
REMARK    8  A    between atoms: C_13  and  C_15
REMARK    9  A    between atoms: C_15  and  C_16
REMARK   10  A    between atoms: C_16  and  C_17
REMARK                            x       y       z     vdW  Elec       q    Type
REMARK                         _______ _______ _______ _____ _____    ______ ____
ROOT
ATOM      1  C   UNL     1       1.753   2.831  18.493  0.00  0.00    +0.000 C 
ENDROOT
BRANCH   1   2
ATOM      2  O   UNL     1       1.037   1.595  18.372  0.00  0.00    +0.000 OA
ATOM      3  H   UNL     1       0.278   1.739  17.780  0.00  0.00    +0.000 HD
ENDBRANCH   1   2
BRANCH   1   4
ATOM      4  C   UNL     1       2.655   3.056  17.269  0.00  0.00    +0.000 C 
BRANCH   4   6
ATOM      5  C   UNL     1       4.696   4.301  16.557  0.00  0.00    +0.000 C 
ATOM      6  C   UNL     1       3.806   3.985  17.509  0.00  0.00    +0.000 C 
BRANCH   5  12
ATOM      7  O   UNL     1       8.043   5.283  19.581  0.00  0.00    +0.000 OA
ATOM      8  C   UNL     1       7.361   5.634  18.627  0.00  0.00    +0.000 C 
ATOM      9  C   UNL     1       7.580   6.952  17.998  0.00  0.00    +0.000 C 
ATOM     10  C   UNL     1       6.728   7.448  17.091  0.00  0.00    +0.000 C 
ATOM     11  C   UNL     1       5.571   6.632  16.614  0.00  0.00    +0.000 C 
ATOM     12  C   UNL     1       5.907   5.150  16.797  0.00  0.00    +0.000 C 
ATOM     13  O   UNL     1       6.347   4.882  18.136  0.00  0.00    +0.000 OA
ENDBRANCH   5  12
ENDBRANCH   4   6
ENDBRANCH   1   4
BRANCH   1  14
ATOM     14  C   UNL     1       2.537   2.757  19.814  0.00  0.00    +0.000 C 
BRANCH  14  15
ATOM     15  C   UNL     1       1.897   3.507  20.986  0.00  0.00    +0.000 C 
BRANCH  15  16
ATOM     16  O   UNL     1       0.746   2.815  21.460  0.00  0.00    +0.000 OA
ATOM     17  H   UNL     1       0.201   3.443  21.966  0.00  0.00    +0.000 HD
ENDBRANCH  15  16
BRANCH  15  18
ATOM     18  C   UNL     1       1.454   4.910  20.570  0.00  0.00    +0.000 C 
BRANCH  18  19
ATOM     19  C   UNL     1       2.659   5.797  20.243  0.00  0.00    +0.000 C 
BRANCH  19  20
ATOM     20  C   UNL     1       2.209   7.138  19.729  0.00  0.00    +0.000 A 
ATOM     21  C   UNL     1       1.493   8.013  20.556  0.00  0.00    +0.000 A 
ATOM     22  C   UNL     1       1.040   9.237  20.058  0.00  0.00    +0.000 A 
ATOM     23  C   UNL     1       1.297   9.589  18.735  0.00  0.00    +0.000 A 
ATOM     24  C   UNL     1       2.010   8.722  17.907  0.00  0.00    +0.000 A 
ATOM     25  C   UNL     1       2.465   7.502  18.402  0.00  0.00    +0.000 A 
ENDBRANCH  19  20
ENDBRANCH  18  19
ENDBRANCH  15  18
ENDBRANCH  14  15
ENDBRANCH   1  14
TORSDOF 10
ENDMDL
MODEL 2
REMARK VINA RESULT:      -7.4      3.583      7.618
REMARK  Name = 
REMARK  10 active torsions:
REMARK  status: ('A' for Active; 'I' for Inactive)
REMARK    1  A    between atoms: C_6  and  C_7
REMARK    2  A    between atoms: C_8  and  C_9
REMARK    3  A    between atoms: C_9  and  C_10
REMARK    4  A    between atoms: C_10  and  O_11
REMARK    5  A    between atoms: C_10  and  C_12
REMARK    6  A    between atoms: C_12  and  C_13
REMARK    7  A    between atoms: C_13  and  O_14
REMARK    8  A    between atoms: C_13  and  C_15
REMARK    9  A    between atoms: C_15  and  C_16
REMARK   10  A    between atoms: C_16  and  C_17
REMARK                            x       y       z     vdW  Elec       q    Type
REMARK                         _______ _______ _______ _____ _____    ______ ____
ROOT
ATOM      1  C   UNL     1       6.574   6.169  16.877  0.00  0.00    +0.000 C 
ENDROOT
BRANCH   1   2
ATOM      2  O   UNL     1       7.593   5.972  15.888  0.00  0.00    +0.000 OA
ATOM      3  H   UNL     1       8.245   6.687  15.976  0.00  0.00    +0.000 HD
ENDBRANCH   1   2
BRANCH   1   4
ATOM      4  C   UNL     1       5.183   5.880  16.287  0.00  0.00    +0.000 C 
BRANCH   4   6
ATOM      5  C   UNL     1       3.944   4.479  17.937  0.00  0.00    +0.000 C 
ATOM      6  C   UNL     1       4.112   5.652  17.309  0.00  0.00    +0.000 C 
BRANCH   5  12
ATOM      7  O   UNL     1       2.872   2.552  21.993  0.00  0.00    +0.000 OA
ATOM      8  C   UNL     1       2.510   2.919  20.883  0.00  0.00    +0.000 C 
ATOM      9  C   UNL     1       1.097   2.782  20.474  0.00  0.00    +0.000 C 
ATOM     10  C   UNL     1       0.709   2.985  19.209  0.00  0.00    +0.000 C 
ATOM     11  C   UNL     1       1.688   3.453  18.183  0.00  0.00    +0.000 C 
ATOM     12  C   UNL     1       2.823   4.196  18.890  0.00  0.00    +0.000 C 
ATOM     13  O   UNL     1       3.370   3.408  19.958  0.00  0.00    +0.000 OA
ENDBRANCH   5  12
ENDBRANCH   4   6
ENDBRANCH   1   4
BRANCH   1  14
ATOM     14  C   UNL     1       6.725   7.614  17.381  0.00  0.00    +0.000 C 
BRANCH  14  15
ATOM     15  C   UNL     1       8.145   8.005  17.799  0.00  0.00    +0.000 C 
BRANCH  15  16
ATOM     16  O   UNL     1       8.515   7.345  19.006  0.00  0.00    +0.000 OA
ATOM     17  H   UNL     1       7.909   6.594  19.139  0.00  0.00    +0.000 HD
ENDBRANCH  15  16
BRANCH  15  18
ATOM     18  C   UNL     1       8.257   9.510  18.043  0.00  0.00    +0.000 C 
BRANCH  18  19
ATOM     19  C   UNL     1       9.052   9.807  19.319  0.00  0.00    +0.000 C 
BRANCH  19  20
ATOM     20  C   UNL     1      10.023  10.933  19.091  0.00  0.00    +0.000 A 
ATOM     21  C   UNL     1      10.358  11.332  17.791  0.00  0.00    +0.000 A 
ATOM     22  C   UNL     1      11.295  12.347  17.586  0.00  0.00    +0.000 A 
ATOM     23  C   UNL     1      11.903  12.965  18.678  0.00  0.00    +0.000 A 
ATOM     24  C   UNL     1      11.572  12.572  19.975  0.00  0.00    +0.000 A 
ATOM     25  C   UNL     1      10.637  11.561  20.181  0.00  0.00    +0.000 A 
ENDBRANCH  19  20
ENDBRANCH  18  19
ENDBRANCH  15  18
ENDBRANCH  14  15
ENDBRANCH   1  14
TORSDOF 10
ENDMDL
MODEL 3
REMARK VINA RESULT:      -7.3      3.899      6.915
REMARK  Name = 
REMARK  10 active torsions:
REMARK  status: ('A' for Active; 'I' for Inactive)
REMARK    1  A    between atoms: C_6  and  C_7
REMARK    2  A    between atoms: C_8  and  C_9
REMARK    3  A    between atoms: C_9  and  C_10
REMARK    4  A    between atoms: C_10  and  O_11
REMARK    5  A    between atoms: C_10  and  C_12
REMARK    6  A    between atoms: C_12  and  C_13
REMARK    7  A    between atoms: C_13  and  O_14
REMARK    8  A    between atoms: C_13  and  C_15
REMARK    9  A    between atoms: C_15  and  C_16
REMARK   10  A    between atoms: C_16  and  C_17
REMARK                            x       y       z     vdW  Elec       q    Type
REMARK                         _______ _______ _______ _____ _____    ______ ____
ROOT
ATOM      1  C   UNL     1       8.002   6.517  18.038  0.00  0.00    +0.000 C 
ENDROOT
BRANCH   1   2
ATOM      2  O   UNL     1       8.406   6.459  19.412  0.00  0.00    +0.000 OA
ATOM      3  H   UNL     1       9.291   6.855  19.486  0.00  0.00    +0.000 HD
ENDBRANCH   1   2
BRANCH   1   4
ATOM      4  C   UNL     1       7.585   7.948  17.657  0.00  0.00    +0.000 C 
BRANCH   4   6
ATOM      5  C   UNL     1       8.510  10.255  17.856  0.00  0.00    +0.000 C 
ATOM      6  C   UNL     1       8.346   9.026  18.366  0.00  0.00    +0.000 C 
BRANCH   5  12
ATOM      7  O   UNL     1      12.276  12.877  17.350  0.00  0.00    +0.000 OA
ATOM      8  C   UNL     1      11.458  12.358  18.098  0.00  0.00    +0.000 C 
ATOM      9  C   UNL     1      11.538  12.571  19.557  0.00  0.00    +0.000 C 
ATOM     10  C   UNL     1      10.790  11.864  20.413  0.00  0.00    +0.000 C 
ATOM     11  C   UNL     1       9.773  10.894  19.905  0.00  0.00    +0.000 C 
ATOM     12  C   UNL     1       9.346  11.320  18.500  0.00  0.00    +0.000 C 
ATOM     13  O   UNL     1      10.488  11.524  17.654  0.00  0.00    +0.000 OA
ENDBRANCH   5  12
ENDBRANCH   4   6
ENDBRANCH   1   4
BRANCH   1  14
ATOM     14  C   UNL     1       6.867   5.494  17.869  0.00  0.00    +0.000 C 
BRANCH  14  15
ATOM     15  C   UNL     1       6.944   4.653  16.591  0.00  0.00    +0.000 C 
BRANCH  15  16
ATOM     16  O   UNL     1       7.611   5.369  15.556  0.00  0.00    +0.000 OA
ATOM     17  H   UNL     1       6.984   6.012  15.180  0.00  0.00    +0.000 HD
ENDBRANCH  15  16
BRANCH  15  18
ATOM     18  C   UNL     1       5.549   4.292  16.080  0.00  0.00    +0.000 C 
BRANCH  18  19
ATOM     19  C   UNL     1       4.466   5.076  16.827  0.00  0.00    +0.000 C 
BRANCH  19  20
ATOM     20  C   UNL     1       3.466   4.141  17.451  0.00  0.00    +0.000 A 
ATOM     21  C   UNL     1       3.807   2.808  17.715  0.00  0.00    +0.000 A 
ATOM     22  C   UNL     1       2.860   1.933  18.252  0.00  0.00    +0.000 A 
ATOM     23  C   UNL     1       1.570   2.385  18.524  0.00  0.00    +0.000 A 
ATOM     24  C   UNL     1       1.225   3.711  18.263  0.00  0.00    +0.000 A 
ATOM     25  C   UNL     1       2.169   4.585  17.730  0.00  0.00    +0.000 A 
ENDBRANCH  19  20
ENDBRANCH  18  19
ENDBRANCH  15  18
ENDBRANCH  14  15
ENDBRANCH   1  14
TORSDOF 10
ENDMDL
MODEL 4
REMARK VINA RESULT:      -7.1      3.663      6.115
REMARK  Name = 
REMARK  10 active torsions:
REMARK  status: ('A' for Active; 'I' for Inactive)
REMARK    1  A    between atoms: C_6  and  C_7
REMARK    2  A    between atoms: C_8  and  C_9
REMARK    3  A    between atoms: C_9  and  C_10
REMARK    4  A    between atoms: C_10  and  O_11
REMARK    5  A    between atoms: C_10  and  C_12
REMARK    6  A    between atoms: C_12  and  C_13
REMARK    7  A    between atoms: C_13  and  O_14
REMARK    8  A    between atoms: C_13  and  C_15
REMARK    9  A    between atoms: C_15  and  C_16
REMARK   10  A    between atoms: C_16  and  C_17
REMARK                            x       y       z     vdW  Elec       q    Type
REMARK                         _______ _______ _______ _____ _____    ______ ____
ROOT
ATOM      1  C   UNL     1       6.829   6.729  17.086  0.00  0.00    +0.000 C 
ENDROOT
BRANCH   1   2
ATOM      2  O   UNL     1       7.760   6.142  16.168  0.00  0.00    +0.000 OA
ATOM      3  H   UNL     1       7.266   5.562  15.563  0.00  0.00    +0.000 HD
ENDBRANCH   1   2
BRANCH   1   4
ATOM      4  C   UNL     1       7.031   8.252  17.161  0.00  0.00    +0.000 C 
BRANCH   4   6
ATOM      5  C   UNL     1       8.487   9.973  18.228  0.00  0.00    +0.000 C 
ATOM      6  C   UNL     1       8.162   8.685  18.043  0.00  0.00    +0.000 C 
BRANCH   5  12
ATOM      7  O   UNL     1       9.799  12.407  21.925  0.00  0.00    +0.000 OA
ATOM      8  C   UNL     1      10.080  11.938  20.830  0.00  0.00    +0.000 C 
ATOM      9  C   UNL     1      11.435  12.111  20.268  0.00  0.00    +0.000 C 
ATOM     10  C   UNL     1      11.716  11.789  19.000  0.00  0.00    +0.000 C 
ATOM     11  C   UNL     1      10.679  11.150  18.134  0.00  0.00    +0.000 C 
ATOM     12  C   UNL     1       9.671  10.427  19.027  0.00  0.00    +0.000 C 
ATOM     13  O   UNL     1       9.173  11.298  20.054  0.00  0.00    +0.000 OA
ENDBRANCH   5  12
ENDBRANCH   4   6
ENDBRANCH   1   4
BRANCH   1  14
ATOM     14  C   UNL     1       7.040   6.027  18.437  0.00  0.00    +0.000 C 
BRANCH  14  15
ATOM     15  C   UNL     1       5.840   5.216  18.936  0.00  0.00    +0.000 C 
BRANCH  15  16
ATOM     16  O   UNL     1       6.084   3.819  18.799  0.00  0.00    +0.000 OA
ATOM     17  H   UNL     1       6.592   3.679  17.980  0.00  0.00    +0.000 HD
ENDBRANCH  15  16
BRANCH  15  18
ATOM     18  C   UNL     1       4.578   5.546  18.139  0.00  0.00    +0.000 C 
BRANCH  18  19
ATOM     19  C   UNL     1       3.442   5.995  19.063  0.00  0.00    +0.000 C 
BRANCH  19  20
ATOM     20  C   UNL     1       2.474   4.868  19.302  0.00  0.00    +0.000 A 
ATOM     21  C   UNL     1       2.028   4.575  20.597  0.00  0.00    +0.000 A 
ATOM     22  C   UNL     1       1.165   3.499  20.817  0.00  0.00    +0.000 A 
ATOM     23  C   UNL     1       0.748   2.710  19.746  0.00  0.00    +0.000 A 
ATOM     24  C   UNL     1       1.188   2.998  18.454  0.00  0.00    +0.000 A 
ATOM     25  C   UNL     1       2.047   4.072  18.233  0.00  0.00    +0.000 A 
ENDBRANCH  19  20
ENDBRANCH  18  19
ENDBRANCH  15  18
ENDBRANCH  14  15
ENDBRANCH   1  14
TORSDOF 10
ENDMDL
MODEL 5
REMARK VINA RESULT:      -7.0      2.187      5.280
REMARK  Name = 
REMARK  10 active torsions:
REMARK  status: ('A' for Active; 'I' for Inactive)
REMARK    1  A    between atoms: C_6  and  C_7
REMARK    2  A    between atoms: C_8  and  C_9
REMARK    3  A    between atoms: C_9  and  C_10
REMARK    4  A    between atoms: C_10  and  O_11
REMARK    5  A    between atoms: C_10  and  C_12
REMARK    6  A    between atoms: C_12  and  C_13
REMARK    7  A    between atoms: C_13  and  O_14
REMARK    8  A    between atoms: C_13  and  C_15
REMARK    9  A    between atoms: C_15  and  C_16
REMARK   10  A    between atoms: C_16  and  C_17
REMARK                            x       y       z     vdW  Elec       q    Type
REMARK                         _______ _______ _______ _____ _____    ______ ____
ROOT
ATOM      1  C   UNL     1       2.725   3.297  20.116  0.00  0.00    +0.000 C 
ENDROOT
BRANCH   1   2
ATOM      2  O   UNL     1       3.507   2.334  20.834  0.00  0.00    +0.000 OA
ATOM      3  H   UNL     1       2.900   1.749  21.319  0.00  0.00    +0.000 HD
ENDBRANCH   1   2
BRANCH   1   4
ATOM      4  C   UNL     1       1.835   4.099  21.081  0.00  0.00    +0.000 C 
BRANCH   4   6
ATOM      5  C   UNL     1       2.419   6.147  19.783  0.00  0.00    +0.000 C 
ATOM      6  C   UNL     1       1.671   5.543  20.717  0.00  0.00    +0.000 C 
BRANCH   5  12
ATOM      7  O   UNL     1       0.255  10.090  20.825  0.00  0.00    +0.000 OA
ATOM      8  C   UNL     1       0.901   9.435  20.017  0.00  0.00    +0.000 C 
ATOM      9  C   UNL     1       1.281  10.018  18.715  0.00  0.00    +0.000 C 
ATOM     10  C   UNL     1       1.808   9.271  17.737  0.00  0.00    +0.000 C 
ATOM     11  C   UNL     1       2.118   7.828  17.971  0.00  0.00    +0.000 C 
ATOM     12  C   UNL     1       2.340   7.610  19.469  0.00  0.00    +0.000 C 
ATOM     13  O   UNL     1       1.249   8.144  20.235  0.00  0.00    +0.000 OA
ENDBRANCH   5  12
ENDBRANCH   4   6
ENDBRANCH   1   4
BRANCH   1  14
ATOM     14  C   UNL     1       1.920   2.514  19.065  0.00  0.00    +0.000 C 
BRANCH  14  15
ATOM     15  C   UNL     1       2.654   2.268  17.744  0.00  0.00    +0.000 C 
BRANCH  15  16
ATOM     16  O   UNL     1       3.735   1.359  17.930  0.00  0.00    +0.000 OA
ATOM     17  H   UNL     1       3.592   0.594  17.344  0.00  0.00    +0.000 HD
ENDBRANCH  15  16
BRANCH  15  18
ATOM     18  C   UNL     1       3.233   3.566  17.181  0.00  0.00    +0.000 C 
BRANCH  18  19
ATOM     19  C   UNL     1       4.714   3.403  16.825  0.00  0.00    +0.000 C 
BRANCH  19  20
ATOM     20  C   UNL     1       5.467   4.680  17.082  0.00  0.00    +0.000 A 
ATOM     21  C   UNL     1       4.871   5.921  16.825  0.00  0.00    +0.000 A 
ATOM     22  C   UNL     1       5.591   7.101  17.023  0.00  0.00    +0.000 A 
ATOM     23  C   UNL     1       6.909   7.046  17.474  0.00  0.00    +0.000 A 
ATOM     24  C   UNL     1       7.507   5.813  17.732  0.00  0.00    +0.000 A 
ATOM     25  C   UNL     1       6.789   4.635  17.537  0.00  0.00    +0.000 A 
ENDBRANCH  19  20
ENDBRANCH  18  19
ENDBRANCH  15  18
ENDBRANCH  14  15
ENDBRANCH   1  14
TORSDOF 10
ENDMDL
MODEL 6
REMARK VINA RESULT:      -6.9      2.157      5.016
REMARK  Name = 
REMARK  10 active torsions:
REMARK  status: ('A' for Active; 'I' for Inactive)
REMARK    1  A    between atoms: C_6  and  C_7
REMARK    2  A    between atoms: C_8  and  C_9
REMARK    3  A    between atoms: C_9  and  C_10
REMARK    4  A    between atoms: C_10  and  O_11
REMARK    5  A    between atoms: C_10  and  C_12
REMARK    6  A    between atoms: C_12  and  C_13
REMARK    7  A    between atoms: C_13  and  O_14
REMARK    8  A    between atoms: C_13  and  C_15
REMARK    9  A    between atoms: C_15  and  C_16
REMARK   10  A    between atoms: C_16  and  C_17
REMARK                            x       y       z     vdW  Elec       q    Type
REMARK                         _______ _______ _______ _____ _____    ______ ____
ROOT
ATOM      1  C   UNL     1       2.567   3.170  20.889  0.00  0.00    +0.000 C 
ENDROOT
BRANCH   1   2
ATOM      2  O   UNL     1       2.772   2.345  22.044  0.00  0.00    +0.000 OA
ATOM      3  H   UNL     1       2.083   2.560  22.696  0.00  0.00    +0.000 HD
ENDBRANCH   1   2
BRANCH   1   4
ATOM      4  C   UNL     1       1.323   4.056  21.071  0.00  0.00    +0.000 C 
BRANCH   4   6
ATOM      5  C   UNL     1       2.407   6.194  20.383  0.00  0.00    +0.000 C 
ATOM      6  C   UNL     1       1.368   5.350  20.316  0.00  0.00    +0.000 C 
BRANCH   5  12
ATOM      7  O   UNL     1       0.290  10.288  20.108  0.00  0.00    +0.000 OA
ATOM      8  C   UNL     1       1.015   9.450  19.588  0.00  0.00    +0.000 C 
ATOM      9  C   UNL     1       1.599   9.692  18.253  0.00  0.00    +0.000 C 
ATOM     10  C   UNL     1       2.225   8.723  17.573  0.00  0.00    +0.000 C 
ATOM     11  C   UNL     1       2.436   7.380  18.193  0.00  0.00    +0.000 C 
ATOM     12  C   UNL     1       2.436   7.536  19.715  0.00  0.00    +0.000 C 
ATOM     13  O   UNL     1       1.273   8.250  20.160  0.00  0.00    +0.000 OA
ENDBRANCH   5  12
ENDBRANCH   4   6
ENDBRANCH   1   4
BRANCH   1  14
ATOM     14  C   UNL     1       2.459   2.220  19.685  0.00  0.00    +0.000 C 
BRANCH  14  15
ATOM     15  C   UNL     1       1.499   2.683  18.584  0.00  0.00    +0.000 C 
BRANCH  15  16
ATOM     16  O   UNL     1       0.752   1.584  18.072  0.00  0.00    +0.000 OA
ATOM     17  H   UNL     1       0.489   1.020  18.821  0.00  0.00    +0.000 HD
ENDBRANCH  15  16
BRANCH  15  18
ATOM     18  C   UNL     1       2.257   3.312  17.415  0.00  0.00    +0.000 C 
BRANCH  18  19
ATOM     19  C   UNL     1       3.737   2.919  17.440  0.00  0.00    +0.000 C 
BRANCH  19  20
ATOM     20  C   UNL     1       4.612   4.142  17.489  0.00  0.00    +0.000 A 
ATOM     21  C   UNL     1       5.289   4.486  18.665  0.00  0.00    +0.000 A 
ATOM     22  C   UNL     1       6.064   5.647  18.717  0.00  0.00    +0.000 A 
ATOM     23  C   UNL     1       6.162   6.470  17.596  0.00  0.00    +0.000 A 
ATOM     24  C   UNL     1       5.490   6.131  16.421  0.00  0.00    +0.000 A 
ATOM     25  C   UNL     1       4.719   4.972  16.367  0.00  0.00    +0.000 A 
ENDBRANCH  19  20
ENDBRANCH  18  19
ENDBRANCH  15  18
ENDBRANCH  14  15
ENDBRANCH   1  14
TORSDOF 10
ENDMDL
MODEL 7
REMARK VINA RESULT:      -6.9      1.998      5.484
REMARK  Name = 
REMARK  10 active torsions:
REMARK  status: ('A' for Active; 'I' for Inactive)
REMARK    1  A    between atoms: C_6  and  C_7
REMARK    2  A    between atoms: C_8  and  C_9
REMARK    3  A    between atoms: C_9  and  C_10
REMARK    4  A    between atoms: C_10  and  O_11
REMARK    5  A    between atoms: C_10  and  C_12
REMARK    6  A    between atoms: C_12  and  C_13
REMARK    7  A    between atoms: C_13  and  O_14
REMARK    8  A    between atoms: C_13  and  C_15
REMARK    9  A    between atoms: C_15  and  C_16
REMARK   10  A    between atoms: C_16  and  C_17
REMARK                            x       y       z     vdW  Elec       q    Type
REMARK                         _______ _______ _______ _____ _____    ______ ____
ROOT
ATOM      1  C   UNL     1       6.664   5.554  16.186  0.00  0.00    +0.000 C 
ENDROOT
BRANCH   1   2
ATOM      2  O   UNL     1       7.449   6.739  16.368  0.00  0.00    +0.000 OA
ATOM      3  H   UNL     1       8.266   6.644  15.849  0.00  0.00    +0.000 HD
ENDBRANCH   1   2
BRANCH   1   4
ATOM      4  C   UNL     1       5.181   5.912  15.986  0.00  0.00    +0.000 C 
BRANCH   4   6
ATOM      5  C   UNL     1       3.429   6.907  17.456  0.00  0.00    +0.000 C 
ATOM      6  C   UNL     1       4.662   6.953  16.930  0.00  0.00    +0.000 C 
BRANCH   5  12
ATOM      7  O   UNL     1       1.369   7.755  21.499  0.00  0.00    +0.000 OA
ATOM      8  C   UNL     1       1.588   8.101  20.346  0.00  0.00    +0.000 C 
ATOM      9  C   UNL     1       1.033   9.368  19.828  0.00  0.00    +0.000 C 
ATOM     10  C   UNL     1       1.083   9.677  18.526  0.00  0.00    +0.000 C 
ATOM     11  C   UNL     1       1.794   8.782  17.563  0.00  0.00    +0.000 C 
ATOM     12  C   UNL     1       2.853   7.984  18.325  0.00  0.00    +0.000 C 
ATOM     13  O   UNL     1       2.285   7.335  19.473  0.00  0.00    +0.000 OA
ENDBRANCH   5  12
ENDBRANCH   4   6
ENDBRANCH   1   4
BRANCH   1  14
ATOM     14  C   UNL     1       6.908   4.670  17.421  0.00  0.00    +0.000 C 
BRANCH  14  15
ATOM     15  C   UNL     1       6.826   5.404  18.763  0.00  0.00    +0.000 C 
BRANCH  15  16
ATOM     16  O   UNL     1       7.998   5.170  19.538  0.00  0.00    +0.000 OA
ATOM     17  H   UNL     1       8.267   4.243  19.410  0.00  0.00    +0.000 HD
ENDBRANCH  15  16
BRANCH  15  18
ATOM     18  C   UNL     1       5.627   4.926  19.583  0.00  0.00    +0.000 C 
BRANCH  18  19
ATOM     19  C   UNL     1       4.951   3.719  18.925  0.00  0.00    +0.000 C 
BRANCH  19  20
ATOM     20  C   UNL     1       3.472   3.724  19.197  0.00  0.00    +0.000 A 
ATOM     21  C   UNL     1       2.981   4.088  20.457  0.00  0.00    +0.000 A 
ATOM     22  C   UNL     1       1.609   4.047  20.716  0.00  0.00    +0.000 A 
ATOM     23  C   UNL     1       0.724   3.639  19.720  0.00  0.00    +0.000 A 
ATOM     24  C   UNL     1       1.207   3.276  18.463  0.00  0.00    +0.000 A 
ATOM     25  C   UNL     1       2.574   3.318  18.202  0.00  0.00    +0.000 A 
ENDBRANCH  19  20
ENDBRANCH  18  19
ENDBRANCH  15  18
ENDBRANCH  14  15
ENDBRANCH   1  14
TORSDOF 10
ENDMDL
MODEL 8
REMARK VINA RESULT:      -6.8      1.953      5.096
REMARK  Name = 
REMARK  10 active torsions:
REMARK  status: ('A' for Active; 'I' for Inactive)
REMARK    1  A    between atoms: C_6  and  C_7
REMARK    2  A    between atoms: C_8  and  C_9
REMARK    3  A    between atoms: C_9  and  C_10
REMARK    4  A    between atoms: C_10  and  O_11
REMARK    5  A    between atoms: C_10  and  C_12
REMARK    6  A    between atoms: C_12  and  C_13
REMARK    7  A    between atoms: C_13  and  O_14
REMARK    8  A    between atoms: C_13  and  C_15
REMARK    9  A    between atoms: C_15  and  C_16
REMARK   10  A    between atoms: C_16  and  C_17
REMARK                            x       y       z     vdW  Elec       q    Type
REMARK                         _______ _______ _______ _____ _____    ______ ____
ROOT
ATOM      1  C   UNL     1       1.499   2.573  20.432  0.00  0.00    +0.000 C 
ENDROOT
BRANCH   1   2
ATOM      2  O   UNL     1       0.226   3.092  20.026  0.00  0.00    +0.000 OA
ATOM      3  H   UNL     1       0.136   2.961  19.066  0.00  0.00    +0.000 HD
ENDBRANCH   1   2
BRANCH   1   4
ATOM      4  C   UNL     1       2.317   3.654  21.158  0.00  0.00    +0.000 C 
BRANCH   4   6
ATOM      5  C   UNL     1       2.914   5.769  19.978  0.00  0.00    +0.000 C 
ATOM      6  C   UNL     1       2.039   5.054  20.701  0.00  0.00    +0.000 C 
BRANCH   5  12
ATOM      7  O   UNL     1       0.439   9.563  20.871  0.00  0.00    +0.000 OA
ATOM      8  C   UNL     1       1.121   8.923  20.082  0.00  0.00    +0.000 C 
ATOM      9  C   UNL     1       1.420   9.465  18.741  0.00  0.00    +0.000 C 
ATOM     10  C   UNL     1       1.989   8.714  17.789  0.00  0.00    +0.000 C 
ATOM     11  C   UNL     1       2.428   7.318  18.090  0.00  0.00    +0.000 C 
ATOM     12  C   UNL     1       2.701   7.201  19.590  0.00  0.00    +0.000 C 
ATOM     13  O   UNL     1       1.585   7.680  20.356  0.00  0.00    +0.000 OA
ENDBRANCH   5  12
ENDBRANCH   4   6
ENDBRANCH   1   4
BRANCH   1  14
ATOM     14  C   UNL     1       2.187   2.049  19.161  0.00  0.00    +0.000 C 
BRANCH  14  15
ATOM     15  C   UNL     1       2.605   3.133  18.162  0.00  0.00    +0.000 C 
BRANCH  15  16
ATOM     16  O   UNL     1       1.821   3.055  16.976  0.00  0.00    +0.000 OA
ATOM     17  H   UNL     1       1.539   2.130  16.859  0.00  0.00    +0.000 HD
ENDBRANCH  15  16
BRANCH  15  18
ATOM     18  C   UNL     1       4.071   2.978  17.758  0.00  0.00    +0.000 C 
BRANCH  18  19
ATOM     19  C   UNL     1       4.463   4.004  16.691  0.00  0.00    +0.000 C 
BRANCH  19  20
ATOM     20  C   UNL     1       5.521   4.938  17.213  0.00  0.00    +0.000 A 
ATOM     21  C   UNL     1       6.336   4.560  18.287  0.00  0.00    +0.000 A 
ATOM     22  C   UNL     1       7.286   5.449  18.795  0.00  0.00    +0.000 A 
ATOM     23  C   UNL     1       7.422   6.719  18.235  0.00  0.00    +0.000 A 
ATOM     24  C   UNL     1       6.613   7.099  17.165  0.00  0.00    +0.000 A 
ATOM     25  C   UNL     1       5.667   6.213  16.655  0.00  0.00    +0.000 A 
ENDBRANCH  19  20
ENDBRANCH  18  19
ENDBRANCH  15  18
ENDBRANCH  14  15
ENDBRANCH   1  14
TORSDOF 10
ENDMDL
MODEL 9
REMARK VINA RESULT:      -6.8      3.928      6.546
REMARK  Name = 
REMARK  10 active torsions:
REMARK  status: ('A' for Active; 'I' for Inactive)
REMARK    1  A    between atoms: C_6  and  C_7
REMARK    2  A    between atoms: C_8  and  C_9
REMARK    3  A    between atoms: C_9  and  C_10
REMARK    4  A    between atoms: C_10  and  O_11
REMARK    5  A    between atoms: C_10  and  C_12
REMARK    6  A    between atoms: C_12  and  C_13
REMARK    7  A    between atoms: C_13  and  O_14
REMARK    8  A    between atoms: C_13  and  C_15
REMARK    9  A    between atoms: C_15  and  C_16
REMARK   10  A    between atoms: C_16  and  C_17
REMARK                            x       y       z     vdW  Elec       q    Type
REMARK                         _______ _______ _______ _____ _____    ______ ____
ROOT
ATOM      1  C   UNL     1       7.012   7.123  16.789  0.00  0.00    +0.000 C 
ENDROOT
BRANCH   1   2
ATOM      2  O   UNL     1       7.797   6.290  15.927  0.00  0.00    +0.000 OA
ATOM      3  H   UNL     1       7.699   5.369  16.221  0.00  0.00    +0.000 HD
ENDBRANCH   1   2
BRANCH   1   4
ATOM      4  C   UNL     1       7.829   7.550  18.021  0.00  0.00    +0.000 C 
BRANCH   4   6
ATOM      5  C   UNL     1       9.017   9.522  18.979  0.00  0.00    +0.000 C 
ATOM      6  C   UNL     1       8.253   8.986  18.016  0.00  0.00    +0.000 C 
BRANCH   5  12
ATOM      7  O   UNL     1      11.147  12.965  16.761  0.00  0.00    +0.000 OA
ATOM      8  C   UNL     1      10.744  12.494  17.816  0.00  0.00    +0.000 C 
ATOM      9  C   UNL     1      10.908  13.242  19.079  0.00  0.00    +0.000 C 
ATOM     10  C   UNL     1      10.663  12.676  20.268  0.00  0.00    +0.000 C 
ATOM     11  C   UNL     1      10.121  11.286  20.346  0.00  0.00    +0.000 C 
ATOM     12  C   UNL     1       9.374  10.976  19.048  0.00  0.00    +0.000 C 
ATOM     13  O   UNL     1      10.191  11.261  17.902  0.00  0.00    +0.000 OA
ENDBRANCH   5  12
ENDBRANCH   4   6
ENDBRANCH   1   4
BRANCH   1  14
ATOM     14  C   UNL     1       5.753   6.317  17.152  0.00  0.00    +0.000 C 
BRANCH  14  15
ATOM     15  C   UNL     1       5.582   5.007  16.377  0.00  0.00    +0.000 C 
BRANCH  15  16
ATOM     16  O   UNL     1       5.379   5.265  14.991  0.00  0.00    +0.000 OA
ATOM     17  H   UNL     1       6.212   5.077  14.523  0.00  0.00    +0.000 HD
ENDBRANCH  15  16
BRANCH  15  18
ATOM     18  C   UNL     1       4.374   4.218  16.882  0.00  0.00    +0.000 C 
BRANCH  18  19
ATOM     19  C   UNL     1       4.572   3.771  18.334  0.00  0.00    +0.000 C 
BRANCH  19  20
ATOM     20  C   UNL     1       3.280   3.858  19.099  0.00  0.00    +0.000 A 
ATOM     21  C   UNL     1       2.266   2.914  18.895  0.00  0.00    +0.000 A 
ATOM     22  C   UNL     1       1.052   3.027  19.576  0.00  0.00    +0.000 A 
ATOM     23  C   UNL     1       0.844   4.085  20.459  0.00  0.00    +0.000 A 
ATOM     24  C   UNL     1       1.851   5.028  20.667  0.00  0.00    +0.000 A 
ATOM     25  C   UNL     1       3.063   4.916  19.990  0.00  0.00    +0.000 A 
ENDBRANCH  19  20
ENDBRANCH  18  19
ENDBRANCH  15  18
ENDBRANCH  14  15
ENDBRANCH   1  14
TORSDOF 10
ENDMDL
