MODEL 1
REMARK VINA RESULT:      -9.1      0.000      0.000
REMARK  Name = 
REMARK  5 active torsions:
REMARK  status: ('A' for Active; 'I' for Inactive)
REMARK    1  A    between atoms: C_1  and  C_2
REMARK    2  A    between atoms: C_2  and  C_3
REMARK    3  A    between atoms: C_3  and  O_4
REMARK    4  A    between atoms: C_26  and  C_27
REMARK    5  A    between atoms: C_27  and  N_28
REMARK                            x       y       z     vdW  Elec       q    Type
REMARK                         _______ _______ _______ _____ _____    ______ ____
ROOT
ATOM      1  C   UNL     1       0.527  13.504  21.321  0.00  0.00    +0.000 C 
ATOM      2  C   UNL     1      -0.669  13.569  22.294  0.00  0.00    +0.000 C 
ATOM      3  O   UNL     1      -0.643  14.146  23.376  0.00  0.00    +0.000 OA
ATOM      4  O   UNL     1      -1.848  13.113  21.749  0.00  0.00    +0.000 OA
ATOM      5  C   UNL     1      -1.871  11.984  20.830  0.00  0.00    +0.000 C 
ATOM      6  C   UNL     1      -0.590  11.768  20.111  0.00  0.00    +0.000 A 
ATOM      7  C   UNL     1       0.519  12.018  20.815  0.00  0.00    +0.000 A 
ATOM      8  C   UNL     1       1.117  10.650  21.357  0.00  0.00    +0.000 A 
ATOM      9  C   UNL     1       1.092   9.540  20.539  0.00  0.00    +0.000 A 
ATOM     10  N   UNL     1       0.585   9.870  19.286  0.00  0.00    +0.000 N 
ATOM     11  C   UNL     1      -0.344  10.849  19.004  0.00  0.00    +0.000 A 
ATOM     12  O   UNL     1      -0.777  11.070  17.884  0.00  0.00    +0.000 OA
ATOM     13  C   UNL     1       1.418   9.321  18.277  0.00  0.00    +0.000 C 
ATOM     14  C   UNL     1       1.943   8.096  18.932  0.00  0.00    +0.000 A 
ATOM     15  C   UNL     1       1.633   8.054  20.279  0.00  0.00    +0.000 A 
ATOM     16  N   UNL     1       1.658   6.800  20.866  0.00  0.00    +0.000 NA
ATOM     17  C   UNL     1       2.063   5.603  20.088  0.00  0.00    +0.000 A 
ATOM     18  C   UNL     1       2.138   4.179  20.433  0.00  0.00    +0.000 A 
ATOM     19  C   UNL     1       2.600   3.166  19.536  0.00  0.00    +0.000 A 
ATOM     20  C   UNL     1       2.909   3.465  18.256  0.00  0.00    +0.000 A 
ATOM     21  C   UNL     1       2.833   4.746  17.836  0.00  0.00    +0.000 A 
ATOM     22  C   UNL     1       2.493   5.784  18.745  0.00  0.00    +0.000 A 
ATOM     23  C   UNL     1       2.565   7.068  18.247  0.00  0.00    +0.000 A 
ATOM     24  O   UNL     1       3.315   2.434  17.475  0.00  0.00    +0.000 OA
ATOM     25  C   UNL     1       3.472   1.433  18.491  0.00  0.00    +0.000 C 
ATOM     26  O   UNL     1       2.825   1.829  19.743  0.00  0.00    +0.000 OA
ENDROOT
BRANCH   1  28
ATOM     27  C   UNL     1       0.968  15.018  18.981  0.00  0.00    +0.000 C 
ATOM     28  C   UNL     1       0.158  14.780  20.300  0.00  0.00    +0.000 C 
ENDBRANCH   1  28
BRANCH   1  29
ATOM     29  O   UNL     1       1.873  13.736  21.703  0.00  0.00    +0.000 OA
ATOM     30  H   UNL     1       2.131  14.629  21.407  0.00  0.00    +0.000 HD
ENDBRANCH   1  29
BRANCH  23  31
ATOM     31  C   UNL     1       3.330   7.387  17.000  0.00  0.00    +0.000 C 
BRANCH  31  32
ATOM     32  N   UNL     1       4.697   6.860  16.990  0.00  0.00    +0.000 N 
ATOM     33  C   UNL     1       5.149   6.280  15.858  0.00  0.00    +0.000 A 
ATOM     34  C   UNL     1       6.319   5.560  15.855  0.00  0.00    +0.000 A 
ATOM     35  C   UNL     1       7.049   5.485  17.033  0.00  0.00    +0.000 A 
ATOM     36  C   UNL     1       6.598   6.163  18.126  0.00  0.00    +0.000 A 
ATOM     37  N   UNL     1       5.438   6.821  18.105  0.00  0.00    +0.000 NA
ENDBRANCH  31  32
ENDBRANCH  23  31
TORSDOF 4
ENDMDL
MODEL 2
REMARK VINA RESULT:      -8.7      2.177      9.064
REMARK  Name = 
REMARK  5 active torsions:
REMARK  status: ('A' for Active; 'I' for Inactive)
REMARK    1  A    between atoms: C_1  and  C_2
REMARK    2  A    between atoms: C_2  and  C_3
REMARK    3  A    between atoms: C_3  and  O_4
REMARK    4  A    between atoms: C_26  and  C_27
REMARK    5  A    between atoms: C_27  and  N_28
REMARK                            x       y       z     vdW  Elec       q    Type
REMARK                         _______ _______ _______ _____ _____    ______ ____
ROOT
ATOM      1  C   UNL     1       3.181   3.502  17.958  0.00  0.00    +0.000 C 
ATOM      2  C   UNL     1       4.107   2.797  18.973  0.00  0.00    +0.000 C 
ATOM      3  O   UNL     1       3.984   1.626  19.315  0.00  0.00    +0.000 OA
ATOM      4  O   UNL     1       5.226   3.529  19.299  0.00  0.00    +0.000 OA
ATOM      5  C   UNL     1       5.172   4.979  19.428  0.00  0.00    +0.000 C 
ATOM      6  C   UNL     1       4.073   5.610  18.656  0.00  0.00    +0.000 A 
ATOM      7  C   UNL     1       2.933   4.914  18.596  0.00  0.00    +0.000 A 
ATOM      8  C   UNL     1       1.907   5.494  19.661  0.00  0.00    +0.000 A 
ATOM      9  C   UNL     1       1.837   6.859  19.846  0.00  0.00    +0.000 A 
ATOM     10  N   UNL     1       2.678   7.515  18.953  0.00  0.00    +0.000 N 
ATOM     11  C   UNL     1       3.860   7.036  18.431  0.00  0.00    +0.000 A 
ATOM     12  O   UNL     1       4.575   7.676  17.674  0.00  0.00    +0.000 OA
ATOM     13  C   UNL     1       1.982   8.597  18.354  0.00  0.00    +0.000 C 
ATOM     14  C   UNL     1       1.035   8.997  19.426  0.00  0.00    +0.000 A 
ATOM     15  C   UNL     1       1.015   8.087  20.467  0.00  0.00    +0.000 A 
ATOM     16  N   UNL     1       0.547   8.565  21.679  0.00  0.00    +0.000 NA
ATOM     17  C   UNL     1       0.042   9.955  21.805  0.00  0.00    +0.000 A 
ATOM     18  C   UNL     1      -0.461  10.724  22.949  0.00  0.00    +0.000 A 
ATOM     19  C   UNL     1      -0.948  12.065  22.855  0.00  0.00    +0.000 A 
ATOM     20  C   UNL     1      -0.878  12.745  21.690  0.00  0.00    +0.000 A 
ATOM     21  C   UNL     1      -0.393  12.131  20.590  0.00  0.00    +0.000 A 
ATOM     22  C   UNL     1      -0.017  10.761  20.635  0.00  0.00    +0.000 A 
ATOM     23  C   UNL     1       0.347  10.197  19.431  0.00  0.00    +0.000 A 
ATOM     24  O   UNL     1      -1.342  14.019  21.705  0.00  0.00    +0.000 OA
ATOM     25  C   UNL     1      -1.967  14.013  22.996  0.00  0.00    +0.000 C 
ATOM     26  O   UNL     1      -1.540  12.866  23.797  0.00  0.00    +0.000 OA
ENDROOT
BRANCH   1  28
ATOM     27  C   UNL     1       4.842   4.531  15.922  0.00  0.00    +0.000 C 
ATOM     28  C   UNL     1       4.076   3.320  16.554  0.00  0.00    +0.000 C 
ENDBRANCH   1  28
BRANCH   1  29
ATOM     29  O   UNL     1       1.886   3.040  17.613  0.00  0.00    +0.000 OA
ATOM     30  H   UNL     1       1.510   3.641  16.943  0.00  0.00    +0.000 HD
ENDBRANCH   1  29
BRANCH  23  31
ATOM     31  C   UNL     1      -0.015  10.830  18.123  0.00  0.00    +0.000 C 
BRANCH  31  32
ATOM     32  N   UNL     1      -1.432  10.702  17.773  0.00  0.00    +0.000 N 
ATOM     33  C   UNL     1      -1.789   9.727  16.910  0.00  0.00    +0.000 A 
ATOM     34  C   UNL     1      -3.047   9.702  16.359  0.00  0.00    +0.000 A 
ATOM     35  C   UNL     1      -3.957  10.676  16.749  0.00  0.00    +0.000 A 
ATOM     36  C   UNL     1      -3.577  11.585  17.691  0.00  0.00    +0.000 A 
ATOM     37  N   UNL     1      -2.335  11.604  18.177  0.00  0.00    +0.000 NA
ENDBRANCH  31  32
ENDBRANCH  23  31
TORSDOF 4
ENDMDL
MODEL 3
REMARK VINA RESULT:      -8.5      2.345      8.989
REMARK  Name = 
REMARK  5 active torsions:
REMARK  status: ('A' for Active; 'I' for Inactive)
REMARK    1  A    between atoms: C_1  and  C_2
REMARK    2  A    between atoms: C_2  and  C_3
REMARK    3  A    between atoms: C_3  and  O_4
REMARK    4  A    between atoms: C_26  and  C_27
REMARK    5  A    between atoms: C_27  and  N_28
REMARK                            x       y       z     vdW  Elec       q    Type
REMARK                         _______ _______ _______ _____ _____    ______ ____
ROOT
ATOM      1  C   UNL     1       5.464   6.230  17.366  0.00  0.00    +0.000 C 
ATOM      2  C   UNL     1       5.142   5.043  16.432  0.00  0.00    +0.000 C 
ATOM      3  O   UNL     1       5.728   4.821  15.378  0.00  0.00    +0.000 OA
ATOM      4  O   UNL     1       4.285   4.121  16.989  0.00  0.00    +0.000 OA
ATOM      5  C   UNL     1       3.188   4.531  17.854  0.00  0.00    +0.000 C 
ATOM      6  C   UNL     1       3.408   5.837  18.525  0.00  0.00    +0.000 A 
ATOM      7  C   UNL     1       4.052   6.759  17.801  0.00  0.00    +0.000 A 
ATOM      8  C   UNL     1       2.998   7.770  17.179  0.00  0.00    +0.000 A 
ATOM      9  C   UNL     1       1.922   8.168  17.944  0.00  0.00    +0.000 A 
ATOM     10  N   UNL     1       2.012   7.632  19.225  0.00  0.00    +0.000 N 
ATOM     11  C   UNL     1       2.595   6.435  19.579  0.00  0.00    +0.000 A 
ATOM     12  O   UNL     1       2.613   6.001  20.721  0.00  0.00    +0.000 OA
ATOM     13  C   UNL     1       1.753   8.647  20.182  0.00  0.00    +0.000 C 
ATOM     14  C   UNL     1       0.811   9.536  19.456  0.00  0.00    +0.000 A 
ATOM     15  C   UNL     1       0.709   9.201  18.118  0.00  0.00    +0.000 A 
ATOM     16  N   UNL     1      -0.436   9.634  17.472  0.00  0.00    +0.000 NA
ATOM     17  C   UNL     1      -1.443  10.462  18.181  0.00  0.00    +0.000 A 
ATOM     18  C   UNL     1      -2.740  11.011  17.767  0.00  0.00    +0.000 A 
ATOM     19  C   UNL     1      -3.558  11.834  18.602  0.00  0.00    +0.000 A 
ATOM     20  C   UNL     1      -3.214  12.076  19.885  0.00  0.00    +0.000 A 
ATOM     21  C   UNL     1      -2.055  11.579  20.368  0.00  0.00    +0.000 A 
ATOM     22  C   UNL     1      -1.170  10.861  19.518  0.00  0.00    +0.000 A 
ATOM     23  C   UNL     1       0.041  10.504  20.074  0.00  0.00    +0.000 A 
ATOM     24  O   UNL     1      -4.065  12.848  20.605  0.00  0.00    +0.000 OA
ATOM     25  C   UNL     1      -4.913  13.298  19.539  0.00  0.00    +0.000 C 
ATOM     26  O   UNL     1      -4.725  12.500  18.327  0.00  0.00    +0.000 OA
ENDROOT
BRANCH   1  28
ATOM     27  C   UNL     1       7.850   6.155  18.871  0.00  0.00    +0.000 C 
ATOM     28  C   UNL     1       6.496   5.486  18.456  0.00  0.00    +0.000 C 
ENDBRANCH   1  28
BRANCH   1  29
ATOM     29  O   UNL     1       6.164   7.393  16.956  0.00  0.00    +0.000 OA
ATOM     30  H   UNL     1       6.246   7.381  15.984  0.00  0.00    +0.000 HD
ENDBRANCH   1  29
BRANCH  23  31
ATOM     31  C   UNL     1       0.564  11.165  21.312  0.00  0.00    +0.000 C 
BRANCH  31  32
ATOM     32  N   UNL     1       0.980  12.556  21.113  0.00  0.00    +0.000 N 
ATOM     33  C   UNL     1       1.925  12.811  20.184  0.00  0.00    +0.000 A 
ATOM     34  C   UNL     1       2.527  14.045  20.113  0.00  0.00    +0.000 A 
ATOM     35  C   UNL     1       2.103  15.035  20.990  0.00  0.00    +0.000 A 
ATOM     36  C   UNL     1       1.083  14.755  21.849  0.00  0.00    +0.000 A 
ATOM     37  N   UNL     1       0.548  13.535  21.917  0.00  0.00    +0.000 NA
ENDBRANCH  31  32
ENDBRANCH  23  31
TORSDOF 4
ENDMDL
MODEL 4
REMARK VINA RESULT:      -8.4      2.361      9.408
REMARK  Name = 
REMARK  5 active torsions:
REMARK  status: ('A' for Active; 'I' for Inactive)
REMARK    1  A    between atoms: C_1  and  C_2
REMARK    2  A    between atoms: C_2  and  C_3
REMARK    3  A    between atoms: C_3  and  O_4
REMARK    4  A    between atoms: C_26  and  C_27
REMARK    5  A    between atoms: C_27  and  N_28
REMARK                            x       y       z     vdW  Elec       q    Type
REMARK                         _______ _______ _______ _____ _____    ______ ____
ROOT
ATOM      1  C   UNL     1       1.756   4.553  19.592  0.00  0.00    +0.000 C 
ATOM      2  C   UNL     1       3.059   4.155  20.319  0.00  0.00    +0.000 C 
ATOM      3  O   UNL     1       3.131   3.266  21.160  0.00  0.00    +0.000 OA
ATOM      4  O   UNL     1       4.187   4.733  19.783  0.00  0.00    +0.000 OA
ATOM      5  C   UNL     1       4.169   6.094  19.267  0.00  0.00    +0.000 C 
ATOM      6  C   UNL     1       2.825   6.556  18.837  0.00  0.00    +0.000 A 
ATOM      7  C   UNL     1       1.800   6.122  19.578  0.00  0.00    +0.000 A 
ATOM      8  C   UNL     1       1.366   7.261  20.596  0.00  0.00    +0.000 A 
ATOM      9  C   UNL     1       1.361   8.572  20.169  0.00  0.00    +0.000 A 
ATOM     10  N   UNL     1       1.684   8.644  18.817  0.00  0.00    +0.000 N 
ATOM     11  C   UNL     1       2.503   7.784  18.118  0.00  0.00    +0.000 A 
ATOM     12  O   UNL     1       2.776   7.920  16.935  0.00  0.00    +0.000 OA
ATOM     13  C   UNL     1       0.769   9.504  18.157  0.00  0.00    +0.000 C 
ATOM     14  C   UNL     1       0.412  10.470  19.226  0.00  0.00    +0.000 A 
ATOM     15  C   UNL     1       0.892  10.076  20.463  0.00  0.00    +0.000 A 
ATOM     16  N   UNL     1       1.023  11.079  21.407  0.00  0.00    +0.000 NA
ATOM     17  C   UNL     1       0.605  12.470  21.105  0.00  0.00    +0.000 A 
ATOM     18  C   UNL     1       0.668  13.713  21.883  0.00  0.00    +0.000 A 
ATOM     19  C   UNL     1       0.165  14.968  21.419  0.00  0.00    +0.000 A 
ATOM     20  C   UNL     1      -0.322  15.097  20.166  0.00  0.00    +0.000 A 
ATOM     21  C   UNL     1      -0.385  14.015  19.362  0.00  0.00    +0.000 A 
ATOM     22  C   UNL     1      -0.002  12.734  19.846  0.00  0.00    +0.000 A 
ATOM     23  C   UNL     1      -0.221  11.676  18.989  0.00  0.00    +0.000 A 
ATOM     24  O   UNL     1      -0.754  16.332  19.809  0.00  0.00    +0.000 OA
ATOM     25  C   UNL     1      -0.715  16.962  21.097  0.00  0.00    +0.000 C 
ATOM     26  O   UNL     1       0.057  16.175  22.060  0.00  0.00    +0.000 OA
ENDROOT
BRANCH   1  28
ATOM     27  C   UNL     1       2.273   2.136  18.232  0.00  0.00    +0.000 C 
ATOM     28  C   UNL     1       1.909   3.658  18.184  0.00  0.00    +0.000 C 
ENDBRANCH   1  28
BRANCH   1  29
ATOM     29  O   UNL     1       0.457   4.243  20.069  0.00  0.00    +0.000 OA
ATOM     30  H   UNL     1       0.424   3.291  20.284  0.00  0.00    +0.000 HD
ENDBRANCH   1  29
BRANCH  23  31
ATOM     31  C   UNL     1      -1.156  11.787  17.825  0.00  0.00    +0.000 C 
BRANCH  31  32
ATOM     32  N   UNL     1      -2.535  11.395  18.131  0.00  0.00    +0.000 N 
ATOM     33  C   UNL     1      -3.027  10.284  17.543  0.00  0.00    +0.000 A 
ATOM     34  C   UNL     1      -4.369   9.996  17.597  0.00  0.00    +0.000 A 
ATOM     35  C   UNL     1      -5.198  10.851  18.311  0.00  0.00    +0.000 A 
ATOM     36  C   UNL     1      -4.640  11.909  18.963  0.00  0.00    +0.000 A 
ATOM     37  N   UNL     1      -3.339  12.181  18.858  0.00  0.00    +0.000 NA
ENDBRANCH  31  32
ENDBRANCH  23  31
TORSDOF 4
ENDMDL
MODEL 5
REMARK VINA RESULT:      -8.1      2.522      8.894
REMARK  Name = 
REMARK  5 active torsions:
REMARK  status: ('A' for Active; 'I' for Inactive)
REMARK    1  A    between atoms: C_1  and  C_2
REMARK    2  A    between atoms: C_2  and  C_3
REMARK    3  A    between atoms: C_3  and  O_4
REMARK    4  A    between atoms: C_26  and  C_27
REMARK    5  A    between atoms: C_27  and  N_28
REMARK                            x       y       z     vdW  Elec       q    Type
REMARK                         _______ _______ _______ _____ _____    ______ ____
ROOT
ATOM      1  C   UNL     1       4.841   6.547  17.572  0.00  0.00    +0.000 C 
ATOM      2  C   UNL     1       4.503   5.240  16.822  0.00  0.00    +0.000 C 
ATOM      3  O   UNL     1       5.039   4.892  15.776  0.00  0.00    +0.000 OA
ATOM      4  O   UNL     1       3.705   4.382  17.544  0.00  0.00    +0.000 OA
ATOM      5  C   UNL     1       2.644   4.880  18.409  0.00  0.00    +0.000 C 
ATOM      6  C   UNL     1       2.862   6.268  18.888  0.00  0.00    +0.000 A 
ATOM      7  C   UNL     1       3.439   7.098  18.013  0.00  0.00    +0.000 A 
ATOM      8  C   UNL     1       2.324   7.995  17.324  0.00  0.00    +0.000 A 
ATOM      9  C   UNL     1       1.279   8.467  18.089  0.00  0.00    +0.000 A 
ATOM     10  N   UNL     1       1.453   8.110  19.423  0.00  0.00    +0.000 N 
ATOM     11  C   UNL     1       2.089   6.983  19.898  0.00  0.00    +0.000 A 
ATOM     12  O   UNL     1       2.181   6.706  21.085  0.00  0.00    +0.000 OA
ATOM     13  C   UNL     1       1.216   9.237  20.250  0.00  0.00    +0.000 C 
ATOM     14  C   UNL     1       0.211  10.000  19.468  0.00  0.00    +0.000 A 
ATOM     15  C   UNL     1       0.048   9.488  18.193  0.00  0.00    +0.000 A 
ATOM     16  N   UNL     1      -1.143   9.806  17.563  0.00  0.00    +0.000 NA
ATOM     17  C   UNL     1      -2.134  10.698  18.212  0.00  0.00    +0.000 A 
ATOM     18  C   UNL     1      -3.467  11.159  17.803  0.00  0.00    +0.000 A 
ATOM     19  C   UNL     1      -4.263  12.069  18.567  0.00  0.00    +0.000 A 
ATOM     20  C   UNL     1      -3.857  12.487  19.786  0.00  0.00    +0.000 A 
ATOM     21  C   UNL     1      -2.660  12.084  20.263  0.00  0.00    +0.000 A 
ATOM     22  C   UNL     1      -1.802  11.278  19.467  0.00  0.00    +0.000 A 
ATOM     23  C   UNL     1      -0.553  11.026  19.995  0.00  0.00    +0.000 A 
ATOM     24  O   UNL     1      -4.691  13.329  20.444  0.00  0.00    +0.000 OA
ATOM     25  C   UNL     1      -5.607  13.614  19.378  0.00  0.00    +0.000 C 
ATOM     26  O   UNL     1      -5.461  12.666  18.273  0.00  0.00    +0.000 OA
ENDROOT
BRANCH   1  28
ATOM     27  C   UNL     1       7.460   5.803  18.311  0.00  0.00    +0.000 C 
ATOM     28  C   UNL     1       5.951   5.978  18.690  0.00  0.00    +0.000 C 
ENDBRANCH   1  28
BRANCH   1  29
ATOM     29  O   UNL     1       5.483   7.660  16.973  0.00  0.00    +0.000 OA
ATOM     30  H   UNL     1       5.335   7.623  16.009  0.00  0.00    +0.000 HD
ENDBRANCH   1  29
BRANCH  23  31
ATOM     31  C   UNL     1       0.016  11.857  21.103  0.00  0.00    +0.000 C 
BRANCH  31  32
ATOM     32  N   UNL     1       0.953  12.889  20.651  0.00  0.00    +0.000 N 
ATOM     33  C   UNL     1       0.609  13.636  19.580  0.00  0.00    +0.000 A 
ATOM     34  C   UNL     1       1.531  14.448  18.964  0.00  0.00    +0.000 A 
ATOM     35  C   UNL     1       2.810  14.517  19.500  0.00  0.00    +0.000 A 
ATOM     36  C   UNL     1       3.082  13.814  20.635  0.00  0.00    +0.000 A 
ATOM     37  N   UNL     1       2.175  13.006  21.185  0.00  0.00    +0.000 NA
ENDBRANCH  31  32
ENDBRANCH  23  31
TORSDOF 4
ENDMDL
MODEL 6
REMARK VINA RESULT:      -7.7      1.985      4.043
REMARK  Name = 
REMARK  5 active torsions:
REMARK  status: ('A' for Active; 'I' for Inactive)
REMARK    1  A    between atoms: C_1  and  C_2
REMARK    2  A    between atoms: C_2  and  C_3
REMARK    3  A    between atoms: C_3  and  O_4
REMARK    4  A    between atoms: C_26  and  C_27
REMARK    5  A    between atoms: C_27  and  N_28
REMARK                            x       y       z     vdW  Elec       q    Type
REMARK                         _______ _______ _______ _____ _____    ______ ____
ROOT
ATOM      1  C   UNL     1      -2.550  12.288  20.851  0.00  0.00    +0.000 C 
ATOM      2  C   UNL     1      -2.107  13.759  20.701  0.00  0.00    +0.000 C 
ATOM      3  O   UNL     1      -2.737  14.605  20.074  0.00  0.00    +0.000 OA
ATOM      4  O   UNL     1      -1.054  14.104  21.517  0.00  0.00    +0.000 OA
ATOM      5  C   UNL     1       0.026  13.167  21.797  0.00  0.00    +0.000 C 
ATOM      6  C   UNL     1      -0.362  11.742  21.649  0.00  0.00    +0.000 A 
ATOM      7  C   UNL     1      -1.222  11.475  20.660  0.00  0.00    +0.000 A 
ATOM      8  C   UNL     1      -0.424  10.916  19.406  0.00  0.00    +0.000 A 
ATOM      9  C   UNL     1       0.628  10.051  19.615  0.00  0.00    +0.000 A 
ATOM     10  N   UNL     1       0.750   9.751  20.968  0.00  0.00    +0.000 N 
ATOM     11  C   UNL     1       0.423  10.571  22.026  0.00  0.00    +0.000 A 
ATOM     12  O   UNL     1       0.585  10.263  23.198  0.00  0.00    +0.000 OA
ATOM     13  C   UNL     1       0.909   8.351  21.131  0.00  0.00    +0.000 C 
ATOM     14  C   UNL     1       1.609   7.963  19.880  0.00  0.00    +0.000 A 
ATOM     15  C   UNL     1       1.648   8.999  18.965  0.00  0.00    +0.000 A 
ATOM     16  N   UNL     1       2.635   8.914  17.998  0.00  0.00    +0.000 NA
ATOM     17  C   UNL     1       3.539   7.739  17.933  0.00  0.00    +0.000 A 
ATOM     18  C   UNL     1       4.674   7.411  17.063  0.00  0.00    +0.000 A 
ATOM     19  C   UNL     1       5.405   6.184  17.136  0.00  0.00    +0.000 A 
ATOM     20  C   UNL     1       5.139   5.278  18.101  0.00  0.00    +0.000 A 
ATOM     21  C   UNL     1       4.135   5.510  18.973  0.00  0.00    +0.000 A 
ATOM     22  C   UNL     1       3.320   6.667  18.842  0.00  0.00    +0.000 A 
ATOM     23  C   UNL     1       2.246   6.748  19.704  0.00  0.00    +0.000 A 
ATOM     24  O   UNL     1       5.901   4.156  18.104  0.00  0.00    +0.000 OA
ATOM     25  C   UNL     1       6.556   4.329  16.839  0.00  0.00    +0.000 C 
ATOM     26  O   UNL     1       6.405   5.695  16.335  0.00  0.00    +0.000 OA
ENDROOT
BRANCH   1  28
ATOM     27  C   UNL     1      -4.748  13.011  22.467  0.00  0.00    +0.000 C 
ATOM     28  C   UNL     1      -3.332  12.357  22.332  0.00  0.00    +0.000 C 
ENDBRANCH   1  28
BRANCH   1  29
ATOM     29  O   UNL     1      -3.480  11.649  19.992  0.00  0.00    +0.000 OA
ATOM     30  H   UNL     1      -3.703  12.260  19.265  0.00  0.00    +0.000 HD
ENDBRANCH   1  29
BRANCH  23  31
ATOM     31  C   UNL     1       1.727   5.546  20.430  0.00  0.00    +0.000 C 
BRANCH  31  32
ATOM     32  N   UNL     1       1.703   4.326  19.619  0.00  0.00    +0.000 N 
ATOM     33  C   UNL     1       2.155   3.182  20.174  0.00  0.00    +0.000 A 
ATOM     34  C   UNL     1       2.381   2.068  19.403  0.00  0.00    +0.000 A 
ATOM     35  C   UNL     1       2.088   2.134  18.048  0.00  0.00    +0.000 A 
ATOM     36  C   UNL     1       1.549   3.282  17.551  0.00  0.00    +0.000 A 
ATOM     37  N   UNL     1       1.378   4.358  18.320  0.00  0.00    +0.000 NA
ENDBRANCH  31  32
ENDBRANCH  23  31
TORSDOF 4
ENDMDL
MODEL 7
REMARK VINA RESULT:      -7.6      4.725      8.586
REMARK  Name = 
REMARK  5 active torsions:
REMARK  status: ('A' for Active; 'I' for Inactive)
REMARK    1  A    between atoms: C_1  and  C_2
REMARK    2  A    between atoms: C_2  and  C_3
REMARK    3  A    between atoms: C_3  and  O_4
REMARK    4  A    between atoms: C_26  and  C_27
REMARK    5  A    between atoms: C_27  and  N_28
REMARK                            x       y       z     vdW  Elec       q    Type
REMARK                         _______ _______ _______ _____ _____    ______ ____
ROOT
ATOM      1  C   UNL     1       7.615  14.939  19.725  0.00  0.00    +0.000 C 
ATOM      2  C   UNL     1       8.061  16.368  20.103  0.00  0.00    +0.000 C 
ATOM      3  O   UNL     1       9.030  16.619  20.810  0.00  0.00    +0.000 OA
ATOM      4  O   UNL     1       7.409  17.353  19.397  0.00  0.00    +0.000 OA
ATOM      5  C   UNL     1       6.002  17.228  19.042  0.00  0.00    +0.000 C 
ATOM      6  C   UNL     1       5.525  15.824  18.968  0.00  0.00    +0.000 A 
ATOM      7  C   UNL     1       6.053  14.985  19.865  0.00  0.00    +0.000 A 
ATOM      8  C   UNL     1       5.032  14.790  21.067  0.00  0.00    +0.000 A 
ATOM      9  C   UNL     1       3.685  14.696  20.790  0.00  0.00    +0.000 A 
ATOM     10  N   UNL     1       3.468  14.715  19.416  0.00  0.00    +0.000 N 
ATOM     11  C   UNL     1       4.235  15.357  18.469  0.00  0.00    +0.000 A 
ATOM     12  O   UNL     1       3.974  15.364  17.275  0.00  0.00    +0.000 OA
ATOM     13  C   UNL     1       2.562  13.680  19.066  0.00  0.00    +0.000 C 
ATOM     14  C   UNL     1       1.719  13.571  20.283  0.00  0.00    +0.000 A 
ATOM     15  C   UNL     1       2.229  14.309  21.336  0.00  0.00    +0.000 A 
ATOM     16  N   UNL     1       1.326  14.649  22.328  0.00  0.00    +0.000 NA
ATOM     17  C   UNL     1      -0.081  14.179  22.272  0.00  0.00    +0.000 A 
ATOM     18  C   UNL     1      -1.238  14.417  23.143  0.00  0.00    +0.000 A 
ATOM     19  C   UNL     1      -2.525  13.829  22.934  0.00  0.00    +0.000 A 
ATOM     20  C   UNL     1      -2.773  13.079  21.839  0.00  0.00    +0.000 A 
ATOM     21  C   UNL     1      -1.777  12.837  20.959  0.00  0.00    +0.000 A 
ATOM     22  C   UNL     1      -0.462  13.312  21.212  0.00  0.00    +0.000 A 
ATOM     23  C   UNL     1       0.506  12.906  20.317  0.00  0.00    +0.000 A 
ATOM     24  O   UNL     1      -4.029  12.585  21.716  0.00  0.00    +0.000 OA
ATOM     25  C   UNL     1      -4.524  12.908  23.023  0.00  0.00    +0.000 C 
ATOM     26  O   UNL     1      -3.657  13.869  23.706  0.00  0.00    +0.000 OA
ENDROOT
BRANCH   1  28
ATOM     27  C   UNL     1       9.222  13.514  17.895  0.00  0.00    +0.000 C 
ATOM     28  C   UNL     1       8.357  14.775  18.232  0.00  0.00    +0.000 C 
ENDBRANCH   1  28
BRANCH   1  29
ATOM     29  O   UNL     1       7.997  13.775  20.438  0.00  0.00    +0.000 OA
ATOM     30  H   UNL     1       7.523  13.763  21.291  0.00  0.00    +0.000 HD
ENDBRANCH   1  29
BRANCH  23  31
ATOM     31  C   UNL     1       0.295  11.738  19.404  0.00  0.00    +0.000 C 
BRANCH  31  32
ATOM     32  N   UNL     1       0.883  10.488  19.892  0.00  0.00    +0.000 N 
ATOM     33  C   UNL     1       1.342   9.602  18.983  0.00  0.00    +0.000 A 
ATOM     34  C   UNL     1       1.681   8.324  19.355  0.00  0.00    +0.000 A 
ATOM     35  C   UNL     1       1.586   7.982  20.697  0.00  0.00    +0.000 A 
ATOM     36  C   UNL     1       1.204   8.938  21.590  0.00  0.00    +0.000 A 
ATOM     37  N   UNL     1       0.845  10.158  21.189  0.00  0.00    +0.000 NA
ENDBRANCH  31  32
ENDBRANCH  23  31
TORSDOF 4
ENDMDL
MODEL 8
REMARK VINA RESULT:      -7.5      1.887      4.067
REMARK  Name = 
REMARK  5 active torsions:
REMARK  status: ('A' for Active; 'I' for Inactive)
REMARK    1  A    between atoms: C_1  and  C_2
REMARK    2  A    between atoms: C_2  and  C_3
REMARK    3  A    between atoms: C_3  and  O_4
REMARK    4  A    between atoms: C_26  and  C_27
REMARK    5  A    between atoms: C_27  and  N_28
REMARK                            x       y       z     vdW  Elec       q    Type
REMARK                         _______ _______ _______ _____ _____    ______ ____
ROOT
ATOM      1  C   UNL     1      -1.699  12.448  19.767  0.00  0.00    +0.000 C 
ATOM      2  C   UNL     1      -1.019  13.763  20.204  0.00  0.00    +0.000 C 
ATOM      3  O   UNL     1      -1.303  14.866  19.750  0.00  0.00    +0.000 OA
ATOM      4  O   UNL     1      -0.215  13.626  21.313  0.00  0.00    +0.000 OA
ATOM      5  C   UNL     1       0.583  12.427  21.526  0.00  0.00    +0.000 C 
ATOM      6  C   UNL     1       0.051  11.221  20.843  0.00  0.00    +0.000 A 
ATOM      7  C   UNL     1      -0.508  11.433  19.647  0.00  0.00    +0.000 A 
ATOM      8  C   UNL     1       0.533  11.061  18.507  0.00  0.00    +0.000 A 
ATOM      9  C   UNL     1       1.337   9.953  18.672  0.00  0.00    +0.000 A 
ATOM     10  N   UNL     1       1.008   9.284  19.846  0.00  0.00    +0.000 N 
ATOM     11  C   UNL     1       0.508   9.844  21.002  0.00  0.00    +0.000 A 
ATOM     12  O   UNL     1       0.269   9.207  22.017  0.00  0.00    +0.000 OA
ATOM     13  C   UNL     1       0.903   7.893  19.586  0.00  0.00    +0.000 C 
ATOM     14  C   UNL     1       1.876   7.703  18.481  0.00  0.00    +0.000 A 
ATOM     15  C   UNL     1       2.337   8.908  17.981  0.00  0.00    +0.000 A 
ATOM     16  N   UNL     1       3.542   8.859  17.302  0.00  0.00    +0.000 NA
ATOM     17  C   UNL     1       4.240   7.569  17.081  0.00  0.00    +0.000 A 
ATOM     18  C   UNL     1       5.521   7.233  16.447  0.00  0.00    +0.000 A 
ATOM     19  C   UNL     1       6.008   5.898  16.296  0.00  0.00    +0.000 A 
ATOM     20  C   UNL     1       5.338   4.853  16.829  0.00  0.00    +0.000 A 
ATOM     21  C   UNL     1       4.167   5.069  17.465  0.00  0.00    +0.000 A 
ATOM     22  C   UNL     1       3.607   6.374  17.520  0.00  0.00    +0.000 A 
ATOM     23  C   UNL     1       2.351   6.466  18.083  0.00  0.00    +0.000 A 
ATOM     24  O   UNL     1       5.891   3.627  16.653  0.00  0.00    +0.000 OA
ATOM     25  C   UNL     1       6.908   3.976  15.704  0.00  0.00    +0.000 C 
ATOM     26  O   UNL     1       7.116   5.423  15.642  0.00  0.00    +0.000 OA
ENDROOT
BRANCH   1  28
ATOM     27  C   UNL     1      -4.209  13.095  20.882  0.00  0.00    +0.000 C 
ATOM     28  C   UNL     1      -2.863  12.297  20.962  0.00  0.00    +0.000 C 
ENDBRANCH   1  28
BRANCH   1  29
ATOM     29  O   UNL     1      -2.416  12.292  18.554  0.00  0.00    +0.000 OA
ATOM     30  H   UNL     1      -3.359  12.155  18.765  0.00  0.00    +0.000 HD
ENDBRANCH   1  29
BRANCH  23  31
ATOM     31  C   UNL     1       1.469   5.267  18.242  0.00  0.00    +0.000 C 
BRANCH  31  32
ATOM     32  N   UNL     1       1.850   4.392  19.354  0.00  0.00    +0.000 N 
ATOM     33  C   UNL     1       1.678   3.062  19.207  0.00  0.00    +0.000 A 
ATOM     34  C   UNL     1       1.787   2.215  20.283  0.00  0.00    +0.000 A 
ATOM     35  C   UNL     1       2.126   2.757  21.516  0.00  0.00    +0.000 A 
ATOM     36  C   UNL     1       2.379   4.094  21.595  0.00  0.00    +0.000 A 
ATOM     37  N   UNL     1       2.226   4.893  20.538  0.00  0.00    +0.000 NA
ENDBRANCH  31  32
ENDBRANCH  23  31
TORSDOF 4
ENDMDL
MODEL 9
REMARK VINA RESULT:      -7.3      4.517      8.288
REMARK  Name = 
REMARK  5 active torsions:
REMARK  status: ('A' for Active; 'I' for Inactive)
REMARK    1  A    between atoms: C_1  and  C_2
REMARK    2  A    between atoms: C_2  and  C_3
REMARK    3  A    between atoms: C_3  and  O_4
REMARK    4  A    between atoms: C_26  and  C_27
REMARK    5  A    between atoms: C_27  and  N_28
REMARK                            x       y       z     vdW  Elec       q    Type
REMARK                         _______ _______ _______ _____ _____    ______ ____
ROOT
ATOM      1  C   UNL     1       7.620  14.650  20.999  0.00  0.00    +0.000 C 
ATOM      2  C   UNL     1       7.988  15.987  21.678  0.00  0.00    +0.000 C 
ATOM      3  O   UNL     1       8.789  16.090  22.600  0.00  0.00    +0.000 OA
ATOM      4  O   UNL     1       7.507  17.093  21.013  0.00  0.00    +0.000 OA
ATOM      5  C   UNL     1       6.206  17.078  20.360  0.00  0.00    +0.000 C 
ATOM      6  C   UNL     1       5.743  15.722  19.973  0.00  0.00    +0.000 A 
ATOM      7  C   UNL     1       6.063  14.737  20.819  0.00  0.00    +0.000 A 
ATOM      8  C   UNL     1       4.812  14.406  21.739  0.00  0.00    +0.000 A 
ATOM      9  C   UNL     1       3.552  14.409  21.179  0.00  0.00    +0.000 A 
ATOM     10  N   UNL     1       3.629  14.642  19.809  0.00  0.00    +0.000 N 
ATOM     11  C   UNL     1       4.584  15.387  19.152  0.00  0.00    +0.000 A 
ATOM     12  O   UNL     1       4.579  15.583  17.946  0.00  0.00    +0.000 OA
ATOM     13  C   UNL     1       2.809  13.709  19.123  0.00  0.00    +0.000 C 
ATOM     14  C   UNL     1       1.727  13.453  20.108  0.00  0.00    +0.000 A 
ATOM     15  C   UNL     1       2.010  14.004  21.345  0.00  0.00    +0.000 A 
ATOM     16  N   UNL     1       0.922  14.228  22.170  0.00  0.00    +0.000 NA
ATOM     17  C   UNL     1      -0.445  13.829  21.752  0.00  0.00    +0.000 A 
ATOM     18  C   UNL     1      -1.758  13.981  22.391  0.00  0.00    +0.000 A 
ATOM     19  C   UNL     1      -2.977  13.483  21.833  0.00  0.00    +0.000 A 
ATOM     20  C   UNL     1      -2.995  12.916  20.607  0.00  0.00    +0.000 A 
ATOM     21  C   UNL     1      -1.839  12.768  19.926  0.00  0.00    +0.000 A 
ATOM     22  C   UNL     1      -0.602  13.146  20.515  0.00  0.00    +0.000 A 
ATOM     23  C   UNL     1       0.530  12.840  19.788  0.00  0.00    +0.000 A 
ATOM     24  O   UNL     1      -4.201  12.497  20.152  0.00  0.00    +0.000 OA
ATOM     25  C   UNL     1      -4.958  12.641  21.363  0.00  0.00    +0.000 C 
ATOM     26  O   UNL     1      -4.246  13.453  22.351  0.00  0.00    +0.000 OA
ENDROOT
BRANCH   1  28
ATOM     27  C   UNL     1       8.486  13.677  18.496  0.00  0.00    +0.000 C 
ATOM     28  C   UNL     1       8.658  14.681  19.685  0.00  0.00    +0.000 C 
ENDBRANCH   1  28
BRANCH   1  29
ATOM     29  O   UNL     1       7.834  13.378  21.587  0.00  0.00    +0.000 OA
ATOM     30  H   UNL     1       8.628  12.978  21.184  0.00  0.00    +0.000 HD
ENDBRANCH   1  29
BRANCH  23  31
ATOM     31  C   UNL     1       0.505  11.832  18.681  0.00  0.00    +0.000 C 
BRANCH  31  32
ATOM     32  N   UNL     1       1.113  10.546  19.035  0.00  0.00    +0.000 N 
ATOM     33  C   UNL     1       1.826   9.896  18.091  0.00  0.00    +0.000 A 
ATOM     34  C   UNL     1       2.216   8.593  18.277  0.00  0.00    +0.000 A 
ATOM     35  C   UNL     1       1.899   7.976  19.480  0.00  0.00    +0.000 A 
ATOM     36  C   UNL     1       1.257   8.702  20.438  0.00  0.00    +0.000 A 
ATOM     37  N   UNL     1       0.859   9.954  20.209  0.00  0.00    +0.000 NA
ENDBRANCH  31  32
ENDBRANCH  23  31
TORSDOF 4
ENDMDL
