MODEL 1
REMARK VINA RESULT:      -6.8      0.000      0.000
REMARK  Name = 
REMARK  10 active torsions:
REMARK  status: ('A' for Active; 'I' for Inactive)
REMARK    1  A    between atoms: C_1  and  O_2
REMARK    2  A    between atoms: O_2  and  C_3
REMARK    3  A    between atoms: C_3  and  C_4
REMARK    4  A    between atoms: C_4  and  N_5
REMARK    5  A    between atoms: N_5  and  C_6
REMARK    6  A    between atoms: N_5  and  C_10
REMARK    7  A    between atoms: C_6  and  C_7
REMARK    8  A    between atoms: C_10  and  C_11
REMARK    9  A    between atoms: C_10  and  C_12
REMARK   10  A    between atoms: N_14  and  C_15
REMARK                            x       y       z     vdW  Elec       q    Type
REMARK                         _______ _______ _______ _____ _____    ______ ____
ROOT
ATOM      1  C   UNL     1       7.398   5.132  18.180  0.00  0.00    +0.000 C 
ATOM      2  C   UNL     1       8.247   5.493  19.408  0.00  0.00    +0.000 C 
ENDROOT
BRANCH   1   3
ATOM      3  C   UNL     1       5.974   4.826  18.695  0.00  0.00    +0.000 C 
ATOM      4  O   UNL     1       5.519   5.457  19.649  0.00  0.00    +0.000 OA
ATOM      5  N   UNL     1       5.308   3.823  17.999  0.00  0.00    +0.000 N 
ATOM      6  H   UNL     1       5.890   3.265  17.381  0.00  0.00    +0.000 HD
BRANCH   5   7
ATOM      7  C   UNL     1       3.978   3.394  18.224  0.00  0.00    +0.000 A 
ATOM      8  C   UNL     1       3.663   2.216  18.909  0.00  0.00    +0.000 A 
ATOM      9  C   UNL     1       2.333   1.813  19.064  0.00  0.00    +0.000 A 
ATOM     10  C   UNL     1       1.314   2.590  18.535  0.00  0.00    +0.000 A 
ATOM     11  F   UNL     1       0.041   2.190  18.665  0.00  0.00    +0.000 F 
ATOM     12  C   UNL     1       1.600   3.783  17.886  0.00  0.00    +0.000 A 
ATOM     13  C   UNL     1       2.931   4.192  17.737  0.00  0.00    +0.000 A 
ENDBRANCH   5   7
ENDBRANCH   1   3
BRANCH   1  14
ATOM     14  N   UNL     1       7.392   6.172  17.108  0.00  0.00    +0.000 NA
BRANCH  14  15
ATOM     15  C   UNL     1       6.449   5.826  16.012  0.00  0.00    +0.000 C 
BRANCH  15  16
ATOM     16  C   UNL     1       7.064   4.883  14.963  0.00  0.00    +0.000 C 
BRANCH  16  18
ATOM     17  C   UNL     1       7.816   5.141  12.766  0.00  0.00    +0.000 C 
ATOM     18  O   UNL     1       7.987   5.571  14.115  0.00  0.00    +0.000 OA
ENDBRANCH  16  18
ENDBRANCH  15  16
ENDBRANCH  14  15
BRANCH  14  19
ATOM     19  C   UNL     1       7.148   7.538  17.629  0.00  0.00    +0.000 C 
BRANCH  19  20
ATOM     20  C   UNL     1       8.301   8.500  17.598  0.00  0.00    +0.000 C 
ATOM     21  C   UNL     1       7.992   9.964  17.815  0.00  0.00    +0.000 C 
ATOM     22  C   UNL     1       8.827   9.224  18.818  0.00  0.00    +0.000 C 
ENDBRANCH  19  20
ENDBRANCH  14  19
ENDBRANCH   1  14
TORSDOF 8
ENDMDL
MODEL 2
REMARK VINA RESULT:      -6.6      2.280      3.028
REMARK  Name = 
REMARK  10 active torsions:
REMARK  status: ('A' for Active; 'I' for Inactive)
REMARK    1  A    between atoms: C_1  and  O_2
REMARK    2  A    between atoms: O_2  and  C_3
REMARK    3  A    between atoms: C_3  and  C_4
REMARK    4  A    between atoms: C_4  and  N_5
REMARK    5  A    between atoms: N_5  and  C_6
REMARK    6  A    between atoms: N_5  and  C_10
REMARK    7  A    between atoms: C_6  and  C_7
REMARK    8  A    between atoms: C_10  and  C_11
REMARK    9  A    between atoms: C_10  and  C_12
REMARK   10  A    between atoms: N_14  and  C_15
REMARK                            x       y       z     vdW  Elec       q    Type
REMARK                         _______ _______ _______ _____ _____    ______ ____
ROOT
ATOM      1  C   UNL     1       6.245   4.699  17.304  0.00  0.00    +0.000 C 
ATOM      2  C   UNL     1       7.727   4.516  17.662  0.00  0.00    +0.000 C 
ENDROOT
BRANCH   1   3
ATOM      3  C   UNL     1       5.436   4.412  18.590  0.00  0.00    +0.000 C 
ATOM      4  O   UNL     1       5.860   4.798  19.678  0.00  0.00    +0.000 OA
ATOM      5  N   UNL     1       4.250   3.716  18.385  0.00  0.00    +0.000 N 
ATOM      6  H   UNL     1       4.149   3.292  17.467  0.00  0.00    +0.000 HD
BRANCH   5   7
ATOM      7  C   UNL     1       3.298   3.383  19.378  0.00  0.00    +0.000 A 
ATOM      8  C   UNL     1       1.959   3.784  19.317  0.00  0.00    +0.000 A 
ATOM      9  C   UNL     1       1.070   3.468  20.347  0.00  0.00    +0.000 A 
ATOM     10  C   UNL     1       1.517   2.746  21.443  0.00  0.00    +0.000 A 
ATOM     11  F   UNL     1       0.668   2.463  22.442  0.00  0.00    +0.000 F 
ATOM     12  C   UNL     1       2.831   2.303  21.508  0.00  0.00    +0.000 A 
ATOM     13  C   UNL     1       3.721   2.612  20.472  0.00  0.00    +0.000 A 
ENDBRANCH   5   7
ENDBRANCH   1   3
BRANCH   1  14
ATOM     14  N   UNL     1       5.912   6.032  16.721  0.00  0.00    +0.000 NA
BRANCH  14  15
ATOM     15  C   UNL     1       5.283   5.904  15.380  0.00  0.00    +0.000 C 
BRANCH  15  16
ATOM     16  C   UNL     1       5.444   4.501  14.769  0.00  0.00    +0.000 C 
BRANCH  16  18
ATOM     17  C   UNL     1       6.206   3.531  12.785  0.00  0.00    +0.000 C 
ATOM     18  O   UNL     1       6.514   4.460  13.822  0.00  0.00    +0.000 OA
ENDBRANCH  16  18
ENDBRANCH  15  16
ENDBRANCH  14  15
BRANCH  14  19
ATOM     19  C   UNL     1       5.097   6.874  17.629  0.00  0.00    +0.000 C 
BRANCH  19  20
ATOM     20  C   UNL     1       3.665   7.111  17.244  0.00  0.00    +0.000 C 
ATOM     21  C   UNL     1       2.620   6.963  18.327  0.00  0.00    +0.000 C 
ATOM     22  C   UNL     1       2.856   8.306  17.700  0.00  0.00    +0.000 C 
ENDBRANCH  19  20
ENDBRANCH  14  19
ENDBRANCH   1  14
TORSDOF 8
ENDMDL
MODEL 3
REMARK VINA RESULT:      -6.5      3.860      5.952
REMARK  Name = 
REMARK  10 active torsions:
REMARK  status: ('A' for Active; 'I' for Inactive)
REMARK    1  A    between atoms: C_1  and  O_2
REMARK    2  A    between atoms: O_2  and  C_3
REMARK    3  A    between atoms: C_3  and  C_4
REMARK    4  A    between atoms: C_4  and  N_5
REMARK    5  A    between atoms: N_5  and  C_6
REMARK    6  A    between atoms: N_5  and  C_10
REMARK    7  A    between atoms: C_6  and  C_7
REMARK    8  A    between atoms: C_10  and  C_11
REMARK    9  A    between atoms: C_10  and  C_12
REMARK   10  A    between atoms: N_14  and  C_15
REMARK                            x       y       z     vdW  Elec       q    Type
REMARK                         _______ _______ _______ _____ _____    ______ ____
ROOT
ATOM      1  C   UNL     1       3.801   4.458  17.651  0.00  0.00    +0.000 C 
ATOM      2  C   UNL     1       3.154   3.258  16.944  0.00  0.00    +0.000 C 
ENDROOT
BRANCH   1   3
ATOM      3  C   UNL     1       2.663   5.452  17.977  0.00  0.00    +0.000 C 
ATOM      4  O   UNL     1       1.491   5.107  17.836  0.00  0.00    +0.000 OA
ATOM      5  N   UNL     1       3.091   6.698  18.422  0.00  0.00    +0.000 N 
ATOM      6  H   UNL     1       4.078   6.892  18.285  0.00  0.00    +0.000 HD
BRANCH   5   7
ATOM      7  C   UNL     1       2.259   7.762  18.845  0.00  0.00    +0.000 A 
ATOM      8  C   UNL     1       1.831   7.917  20.168  0.00  0.00    +0.000 A 
ATOM      9  C   UNL     1       0.972   8.959  20.525  0.00  0.00    +0.000 A 
ATOM     10  C   UNL     1       0.538   9.853  19.558  0.00  0.00    +0.000 A 
ATOM     11  F   UNL     1      -0.305  10.839  19.896  0.00  0.00    +0.000 F 
ATOM     12  C   UNL     1       0.980   9.743  18.246  0.00  0.00    +0.000 A 
ATOM     13  C   UNL     1       1.847   8.705  17.890  0.00  0.00    +0.000 A 
ENDBRANCH   5   7
ENDBRANCH   1   3
BRANCH   1  14
ATOM     14  N   UNL     1       4.596   4.104  18.864  0.00  0.00    +0.000 NA
BRANCH  14  15
ATOM     15  C   UNL     1       4.344   2.704  19.297  0.00  0.00    +0.000 C 
BRANCH  15  16
ATOM     16  C   UNL     1       3.595   2.613  20.638  0.00  0.00    +0.000 C 
BRANCH  16  18
ATOM     17  C   UNL     1       1.472   2.723  21.606  0.00  0.00    +0.000 C 
ATOM     18  O   UNL     1       2.305   3.224  20.562  0.00  0.00    +0.000 OA
ENDBRANCH  16  18
ENDBRANCH  15  16
ENDBRANCH  14  15
BRANCH  14  19
ATOM     19  C   UNL     1       6.046   4.374  18.705  0.00  0.00    +0.000 C 
BRANCH  19  20
ATOM     20  C   UNL     1       6.493   5.803  18.816  0.00  0.00    +0.000 C 
ATOM     21  C   UNL     1       7.969   6.057  19.020  0.00  0.00    +0.000 C 
ATOM     22  C   UNL     1       7.304   6.517  17.757  0.00  0.00    +0.000 C 
ENDBRANCH  19  20
ENDBRANCH  14  19
ENDBRANCH   1  14
TORSDOF 8
ENDMDL
MODEL 4
REMARK VINA RESULT:      -6.4      3.799      6.156
REMARK  Name = 
REMARK  10 active torsions:
REMARK  status: ('A' for Active; 'I' for Inactive)
REMARK    1  A    between atoms: C_1  and  O_2
REMARK    2  A    between atoms: O_2  and  C_3
REMARK    3  A    between atoms: C_3  and  C_4
REMARK    4  A    between atoms: C_4  and  N_5
REMARK    5  A    between atoms: N_5  and  C_6
REMARK    6  A    between atoms: N_5  and  C_10
REMARK    7  A    between atoms: C_6  and  C_7
REMARK    8  A    between atoms: C_10  and  C_11
REMARK    9  A    between atoms: C_10  and  C_12
REMARK   10  A    between atoms: N_14  and  C_15
REMARK                            x       y       z     vdW  Elec       q    Type
REMARK                         _______ _______ _______ _____ _____    ______ ____
ROOT
ATOM      1  C   UNL     1       3.706   4.259  17.716  0.00  0.00    +0.000 C 
ATOM      2  C   UNL     1       3.030   3.115  16.947  0.00  0.00    +0.000 C 
ENDROOT
BRANCH   1   3
ATOM      3  C   UNL     1       2.616   5.321  17.987  0.00  0.00    +0.000 C 
ATOM      4  O   UNL     1       1.431   5.038  17.819  0.00  0.00    +0.000 OA
ATOM      5  N   UNL     1       3.100   6.552  18.418  0.00  0.00    +0.000 N 
ATOM      6  H   UNL     1       4.100   6.688  18.305  0.00  0.00    +0.000 HD
BRANCH   5   7
ATOM      7  C   UNL     1       2.316   7.669  18.793  0.00  0.00    +0.000 A 
ATOM      8  C   UNL     1       1.834   7.861  20.092  0.00  0.00    +0.000 A 
ATOM      9  C   UNL     1       1.025   8.959  20.400  0.00  0.00    +0.000 A 
ATOM     10  C   UNL     1       0.697   9.870  19.407  0.00  0.00    +0.000 A 
ATOM     11  F   UNL     1      -0.097  10.910  19.699  0.00  0.00    +0.000 F 
ATOM     12  C   UNL     1       1.196   9.722  18.120  0.00  0.00    +0.000 A 
ATOM     13  C   UNL     1       2.013   8.628  17.813  0.00  0.00    +0.000 A 
ENDBRANCH   5   7
ENDBRANCH   1   3
BRANCH   1  14
ATOM     14  N   UNL     1       4.396   3.836  18.970  0.00  0.00    +0.000 NA
BRANCH  14  15
ATOM     15  C   UNL     1       5.674   4.569  19.170  0.00  0.00    +0.000 C 
BRANCH  15  16
ATOM     16  C   UNL     1       6.304   5.052  17.851  0.00  0.00    +0.000 C 
BRANCH  16  18
ATOM     17  C   UNL     1       7.497   7.051  17.651  0.00  0.00    +0.000 C 
ATOM     18  O   UNL     1       6.196   6.470  17.706  0.00  0.00    +0.000 OA
ENDBRANCH  16  18
ENDBRANCH  15  16
ENDBRANCH  14  15
BRANCH  14  19
ATOM     19  C   UNL     1       3.525   3.920  20.167  0.00  0.00    +0.000 C 
BRANCH  19  20
ATOM     20  C   UNL     1       2.636   2.744  20.452  0.00  0.00    +0.000 C 
ATOM     21  C   UNL     1       1.861   2.755  21.751  0.00  0.00    +0.000 C 
ATOM     22  C   UNL     1       1.124   2.809  20.445  0.00  0.00    +0.000 C 
ENDBRANCH  19  20
ENDBRANCH  14  19
ENDBRANCH   1  14
TORSDOF 8
ENDMDL
MODEL 5
REMARK VINA RESULT:      -6.4      2.347      4.054
REMARK  Name = 
REMARK  10 active torsions:
REMARK  status: ('A' for Active; 'I' for Inactive)
REMARK    1  A    between atoms: C_1  and  O_2
REMARK    2  A    between atoms: O_2  and  C_3
REMARK    3  A    between atoms: C_3  and  C_4
REMARK    4  A    between atoms: C_4  and  N_5
REMARK    5  A    between atoms: N_5  and  C_6
REMARK    6  A    between atoms: N_5  and  C_10
REMARK    7  A    between atoms: C_6  and  C_7
REMARK    8  A    between atoms: C_10  and  C_11
REMARK    9  A    between atoms: C_10  and  C_12
REMARK   10  A    between atoms: N_14  and  C_15
REMARK                            x       y       z     vdW  Elec       q    Type
REMARK                         _______ _______ _______ _____ _____    ______ ____
ROOT
ATOM      1  C   UNL     1       6.862   4.766  17.562  0.00  0.00    +0.000 C 
ATOM      2  C   UNL     1       7.743   5.997  17.821  0.00  0.00    +0.000 C 
ENDROOT
BRANCH   1   3
ATOM      3  C   UNL     1       5.965   4.588  18.808  0.00  0.00    +0.000 C 
ATOM      4  O   UNL     1       6.246   5.173  19.853  0.00  0.00    +0.000 OA
ATOM      5  N   UNL     1       4.872   3.748  18.620  0.00  0.00    +0.000 N 
ATOM      6  H   UNL     1       4.898   3.186  17.775  0.00  0.00    +0.000 HD
BRANCH   5   7
ATOM      7  C   UNL     1       3.865   3.466  19.574  0.00  0.00    +0.000 A 
ATOM      8  C   UNL     1       3.961   2.419  20.497  0.00  0.00    +0.000 A 
ATOM      9  C   UNL     1       2.917   2.153  21.388  0.00  0.00    +0.000 A 
ATOM     10  C   UNL     1       1.773   2.937  21.359  0.00  0.00    +0.000 A 
ATOM     11  F   UNL     1       0.763   2.667  22.198  0.00  0.00    +0.000 F 
ATOM     12  C   UNL     1       1.672   4.006  20.479  0.00  0.00    +0.000 A 
ATOM     13  C   UNL     1       2.720   4.278  19.592  0.00  0.00    +0.000 A 
ENDBRANCH   5   7
ENDBRANCH   1   3
BRANCH   1  14
ATOM     14  N   UNL     1       6.062   4.835  16.303  0.00  0.00    +0.000 NA
BRANCH  14  15
ATOM     15  C   UNL     1       5.626   6.224  16.005  0.00  0.00    +0.000 C 
BRANCH  15  16
ATOM     16  C   UNL     1       4.205   6.532  16.508  0.00  0.00    +0.000 C 
BRANCH  16  18
ATOM     17  C   UNL     1       2.898   7.861  17.916  0.00  0.00    +0.000 C 
ATOM     18  O   UNL     1       4.225   7.430  17.621  0.00  0.00    +0.000 OA
ENDBRANCH  16  18
ENDBRANCH  15  16
ENDBRANCH  14  15
BRANCH  14  19
ATOM     19  C   UNL     1       6.751   4.217  15.145  0.00  0.00    +0.000 C 
BRANCH  19  20
ATOM     20  C   UNL     1       6.167   4.472  13.785  0.00  0.00    +0.000 C 
ATOM     21  C   UNL     1       7.092   4.344  12.595  0.00  0.00    +0.000 C 
ATOM     22  C   UNL     1       5.942   3.392  12.749  0.00  0.00    +0.000 C 
ENDBRANCH  19  20
ENDBRANCH  14  19
ENDBRANCH   1  14
TORSDOF 8
ENDMDL
MODEL 6
REMARK VINA RESULT:      -6.4      3.633      5.342
REMARK  Name = 
REMARK  10 active torsions:
REMARK  status: ('A' for Active; 'I' for Inactive)
REMARK    1  A    between atoms: C_1  and  O_2
REMARK    2  A    between atoms: O_2  and  C_3
REMARK    3  A    between atoms: C_3  and  C_4
REMARK    4  A    between atoms: C_4  and  N_5
REMARK    5  A    between atoms: N_5  and  C_6
REMARK    6  A    between atoms: N_5  and  C_10
REMARK    7  A    between atoms: C_6  and  C_7
REMARK    8  A    between atoms: C_10  and  C_11
REMARK    9  A    between atoms: C_10  and  C_12
REMARK   10  A    between atoms: N_14  and  C_15
REMARK                            x       y       z     vdW  Elec       q    Type
REMARK                         _______ _______ _______ _____ _____    ______ ____
ROOT
ATOM      1  C   UNL     1       3.461   3.846  17.997  0.00  0.00    +0.000 C 
ATOM      2  C   UNL     1       3.566   2.727  19.043  0.00  0.00    +0.000 C 
ENDROOT
BRANCH   1   3
ATOM      3  C   UNL     1       2.552   4.940  18.602  0.00  0.00    +0.000 C 
ATOM      4  O   UNL     1       1.611   4.622  19.327  0.00  0.00    +0.000 OA
ATOM      5  N   UNL     1       2.903   6.241  18.256  0.00  0.00    +0.000 N 
ATOM      6  H   UNL     1       3.567   6.322  17.492  0.00  0.00    +0.000 HD
BRANCH   5   7
ATOM      7  C   UNL     1       2.279   7.423  18.722  0.00  0.00    +0.000 A 
ATOM      8  C   UNL     1       1.938   7.628  20.063  0.00  0.00    +0.000 A 
ATOM      9  C   UNL     1       1.281   8.795  20.463  0.00  0.00    +0.000 A 
ATOM     10  C   UNL     1       0.963   9.761  19.522  0.00  0.00    +0.000 A 
ATOM     11  F   UNL     1       0.312  10.870  19.903  0.00  0.00    +0.000 F 
ATOM     12  C   UNL     1       1.325   9.598  18.192  0.00  0.00    +0.000 A 
ATOM     13  C   UNL     1       1.992   8.434  17.791  0.00  0.00    +0.000 A 
ENDBRANCH   5   7
ENDBRANCH   1   3
BRANCH   1  14
ATOM     14  N   UNL     1       4.775   4.396  17.549  0.00  0.00    +0.000 NA
BRANCH  14  15
ATOM     15  C   UNL     1       5.783   4.366  18.640  0.00  0.00    +0.000 C 
BRANCH  15  16
ATOM     16  C   UNL     1       6.388   5.749  18.942  0.00  0.00    +0.000 C 
BRANCH  16  18
ATOM     17  C   UNL     1       7.516   7.252  17.555  0.00  0.00    +0.000 C 
ATOM     18  O   UNL     1       7.581   5.976  18.188  0.00  0.00    +0.000 OA
ENDBRANCH  16  18
ENDBRANCH  15  16
ENDBRANCH  14  15
BRANCH  14  19
ATOM     19  C   UNL     1       5.283   3.748  16.316  0.00  0.00    +0.000 C 
BRANCH  19  20
ATOM     20  C   UNL     1       5.569   4.640  15.142  0.00  0.00    +0.000 C 
ATOM     21  C   UNL     1       7.010   4.773  14.703  0.00  0.00    +0.000 C 
ATOM     22  C   UNL     1       6.010   4.132  13.786  0.00  0.00    +0.000 C 
ENDBRANCH  19  20
ENDBRANCH  14  19
ENDBRANCH   1  14
TORSDOF 8
ENDMDL
MODEL 7
REMARK VINA RESULT:      -6.3      3.649      5.233
REMARK  Name = 
REMARK  10 active torsions:
REMARK  status: ('A' for Active; 'I' for Inactive)
REMARK    1  A    between atoms: C_1  and  O_2
REMARK    2  A    between atoms: O_2  and  C_3
REMARK    3  A    between atoms: C_3  and  C_4
REMARK    4  A    between atoms: C_4  and  N_5
REMARK    5  A    between atoms: N_5  and  C_6
REMARK    6  A    between atoms: N_5  and  C_10
REMARK    7  A    between atoms: C_6  and  C_7
REMARK    8  A    between atoms: C_10  and  C_11
REMARK    9  A    between atoms: C_10  and  C_12
REMARK   10  A    between atoms: N_14  and  C_15
REMARK                            x       y       z     vdW  Elec       q    Type
REMARK                         _______ _______ _______ _____ _____    ______ ____
ROOT
ATOM      1  C   UNL     1       4.178   4.187  18.170  0.00  0.00    +0.000 C 
ATOM      2  C   UNL     1       4.214   3.532  19.559  0.00  0.00    +0.000 C 
ENDROOT
BRANCH   1   3
ATOM      3  C   UNL     1       3.009   5.199  18.184  0.00  0.00    +0.000 C 
ATOM      4  O   UNL     1       1.900   4.858  17.776  0.00  0.00    +0.000 OA
ATOM      5  N   UNL     1       3.336   6.455  18.683  0.00  0.00    +0.000 N 
ATOM      6  H   UNL     1       4.331   6.637  18.781  0.00  0.00    +0.000 HD
BRANCH   5   7
ATOM      7  C   UNL     1       2.443   7.538  18.862  0.00  0.00    +0.000 A 
ATOM      8  C   UNL     1       2.082   8.409  17.828  0.00  0.00    +0.000 A 
ATOM      9  C   UNL     1       1.231   9.492  18.069  0.00  0.00    +0.000 A 
ATOM     10  C   UNL     1       0.738   9.707  19.346  0.00  0.00    +0.000 A 
ATOM     11  F   UNL     1      -0.059  10.759  19.581  0.00  0.00    +0.000 F 
ATOM     12  C   UNL     1       1.051   8.834  20.380  0.00  0.00    +0.000 A 
ATOM     13  C   UNL     1       1.895   7.744  20.138  0.00  0.00    +0.000 A 
ENDBRANCH   5   7
ENDBRANCH   1   3
BRANCH   1  14
ATOM     14  N   UNL     1       5.462   4.824  17.756  0.00  0.00    +0.000 NA
BRANCH  14  15
ATOM     15  C   UNL     1       6.280   5.227  18.930  0.00  0.00    +0.000 C 
BRANCH  15  16
ATOM     16  C   UNL     1       7.476   6.121  18.555  0.00  0.00    +0.000 C 
BRANCH  16  18
ATOM     17  C   UNL     1       7.916   8.267  17.744  0.00  0.00    +0.000 C 
ATOM     18  O   UNL     1       7.114   7.100  17.578  0.00  0.00    +0.000 OA
ENDBRANCH  16  18
ENDBRANCH  15  16
ENDBRANCH  14  15
BRANCH  14  19
ATOM     19  C   UNL     1       6.241   3.992  16.807  0.00  0.00    +0.000 C 
BRANCH  19  20
ATOM     20  C   UNL     1       5.850   4.057  15.358  0.00  0.00    +0.000 C 
ATOM     21  C   UNL     1       5.542   5.420  14.781  0.00  0.00    +0.000 C 
ATOM     22  C   UNL     1       6.726   4.649  14.275  0.00  0.00    +0.000 C 
ENDBRANCH  19  20
ENDBRANCH  14  19
ENDBRANCH   1  14
TORSDOF 8
ENDMDL
MODEL 8
REMARK VINA RESULT:      -6.3      3.821      5.381
REMARK  Name = 
REMARK  10 active torsions:
REMARK  status: ('A' for Active; 'I' for Inactive)
REMARK    1  A    between atoms: C_1  and  O_2
REMARK    2  A    between atoms: O_2  and  C_3
REMARK    3  A    between atoms: C_3  and  C_4
REMARK    4  A    between atoms: C_4  and  N_5
REMARK    5  A    between atoms: N_5  and  C_6
REMARK    6  A    between atoms: N_5  and  C_10
REMARK    7  A    between atoms: C_6  and  C_7
REMARK    8  A    between atoms: C_10  and  C_11
REMARK    9  A    between atoms: C_10  and  C_12
REMARK   10  A    between atoms: N_14  and  C_15
REMARK                            x       y       z     vdW  Elec       q    Type
REMARK                         _______ _______ _______ _____ _____    ______ ____
ROOT
ATOM      1  C   UNL     1       4.463   4.973  17.513  0.00  0.00    +0.000 C 
ATOM      2  C   UNL     1       4.955   4.246  18.773  0.00  0.00    +0.000 C 
ENDROOT
BRANCH   1   3
ATOM      3  C   UNL     1       3.168   5.721  17.906  0.00  0.00    +0.000 C 
ATOM      4  O   UNL     1       2.096   5.118  17.927  0.00  0.00    +0.000 OA
ATOM      5  N   UNL     1       3.346   7.065  18.216  0.00  0.00    +0.000 N 
ATOM      6  H   UNL     1       4.245   7.456  17.951  0.00  0.00    +0.000 HD
BRANCH   5   7
ATOM      7  C   UNL     1       2.342   7.956  18.665  0.00  0.00    +0.000 A 
ATOM      8  C   UNL     1       1.743   8.910  17.835  0.00  0.00    +0.000 A 
ATOM      9  C   UNL     1       0.788   9.798  18.339  0.00  0.00    +0.000 A 
ATOM     10  C   UNL     1       0.430   9.734  19.677  0.00  0.00    +0.000 A 
ATOM     11  F   UNL     1      -0.469  10.601  20.165  0.00  0.00    +0.000 F 
ATOM     12  C   UNL     1       0.982   8.771  20.511  0.00  0.00    +0.000 A 
ATOM     13  C   UNL     1       1.931   7.875  20.005  0.00  0.00    +0.000 A 
ENDBRANCH   5   7
ENDBRANCH   1   3
BRANCH   1  14
ATOM     14  N   UNL     1       5.469   5.887  16.897  0.00  0.00    +0.000 NA
BRANCH  14  15
ATOM     15  C   UNL     1       6.840   5.617  17.404  0.00  0.00    +0.000 C 
BRANCH  15  16
ATOM     16  C   UNL     1       7.472   6.830  18.110  0.00  0.00    +0.000 C 
BRANCH  16  18
ATOM     17  C   UNL     1       8.159   9.052  17.890  0.00  0.00    +0.000 C 
ATOM     18  O   UNL     1       7.795   7.869  17.183  0.00  0.00    +0.000 OA
ENDBRANCH  16  18
ENDBRANCH  15  16
ENDBRANCH  14  15
BRANCH  14  19
ATOM     19  C   UNL     1       5.424   5.883  15.415  0.00  0.00    +0.000 C 
BRANCH  19  20
ATOM     20  C   UNL     1       6.349   4.937  14.703  0.00  0.00    +0.000 C 
ATOM     21  C   UNL     1       6.037   3.460  14.791  0.00  0.00    +0.000 C 
ATOM     22  C   UNL     1       5.967   4.157  13.464  0.00  0.00    +0.000 C 
ENDBRANCH  19  20
ENDBRANCH  14  19
ENDBRANCH   1  14
TORSDOF 8
ENDMDL
MODEL 9
REMARK VINA RESULT:      -6.2      3.334      6.890
REMARK  Name = 
REMARK  10 active torsions:
REMARK  status: ('A' for Active; 'I' for Inactive)
REMARK    1  A    between atoms: C_1  and  O_2
REMARK    2  A    between atoms: O_2  and  C_3
REMARK    3  A    between atoms: C_3  and  C_4
REMARK    4  A    between atoms: C_4  and  N_5
REMARK    5  A    between atoms: N_5  and  C_6
REMARK    6  A    between atoms: N_5  and  C_10
REMARK    7  A    between atoms: C_6  and  C_7
REMARK    8  A    between atoms: C_10  and  C_11
REMARK    9  A    between atoms: C_10  and  C_12
REMARK   10  A    between atoms: N_14  and  C_15
REMARK                            x       y       z     vdW  Elec       q    Type
REMARK                         _______ _______ _______ _____ _____    ______ ____
ROOT
ATOM      1  C   UNL     1       5.074   5.748  18.369  0.00  0.00    +0.000 C 
ATOM      2  C   UNL     1       6.459   5.527  18.994  0.00  0.00    +0.000 C 
ENDROOT
BRANCH   1   3
ATOM      3  C   UNL     1       5.279   5.799  16.837  0.00  0.00    +0.000 C 
ATOM      4  O   UNL     1       4.782   6.716  16.184  0.00  0.00    +0.000 OA
ATOM      5  N   UNL     1       6.043   4.759  16.319  0.00  0.00    +0.000 N 
ATOM      6  H   UNL     1       6.200   3.980  16.952  0.00  0.00    +0.000 HD
BRANCH   5   7
ATOM      7  C   UNL     1       6.430   4.604  14.967  0.00  0.00    +0.000 A 
ATOM      8  C   UNL     1       7.492   5.311  14.392  0.00  0.00    +0.000 A 
ATOM      9  C   UNL     1       7.805   5.156  13.038  0.00  0.00    +0.000 A 
ATOM     10  C   UNL     1       7.056   4.291  12.256  0.00  0.00    +0.000 A 
ATOM     11  F   UNL     1       7.343   4.160  10.952  0.00  0.00    +0.000 F 
ATOM     12  C   UNL     1       6.024   3.549  12.813  0.00  0.00    +0.000 A 
ATOM     13  C   UNL     1       5.715   3.697  14.170  0.00  0.00    +0.000 A 
ENDBRANCH   5   7
ENDBRANCH   1   3
BRANCH   1  14
ATOM     14  N   UNL     1       4.052   4.734  18.761  0.00  0.00    +0.000 NA
BRANCH  14  15
ATOM     15  C   UNL     1       3.549   4.966  20.141  0.00  0.00    +0.000 C 
BRANCH  15  16
ATOM     16  C   UNL     1       2.074   5.404  20.180  0.00  0.00    +0.000 C 
BRANCH  16  18
ATOM     17  C   UNL     1       2.032   3.526  21.568  0.00  0.00    +0.000 C 
ATOM     18  O   UNL     1       1.242   4.397  20.762  0.00  0.00    +0.000 OA
ENDBRANCH  16  18
ENDBRANCH  15  16
ENDBRANCH  14  15
BRANCH  14  19
ATOM     19  C   UNL     1       2.941   4.624  17.785  0.00  0.00    +0.000 C 
BRANCH  19  20
ATOM     20  C   UNL     1       2.629   3.255  17.253  0.00  0.00    +0.000 C 
ATOM     21  C   UNL     1       3.399   2.090  17.835  0.00  0.00    +0.000 C 
ATOM     22  C   UNL     1       1.916   2.183  18.050  0.00  0.00    +0.000 C 
ENDBRANCH  19  20
ENDBRANCH  14  19
ENDBRANCH   1  14
TORSDOF 8
ENDMDL
