MODEL 1
REMARK VINA RESULT:      -6.8      0.000      0.000
REMARK  Name = 
REMARK  19 active torsions:
REMARK  status: ('A' for Active; 'I' for Inactive)
REMARK    1  A    between atoms: N_1  and  S_2
REMARK    2  A    between atoms: S_2  and  C_5
REMARK    3  A    between atoms: C_8  and  C_9
REMARK    4  A    between atoms: C_9  and  C_10
REMARK    5  A    between atoms: C_10  and  N_11
REMARK    6  A    between atoms: C_12  and  C_14
REMARK    7  A    between atoms: C_14  and  N_15
REMARK    8  A    between atoms: N_15  and  C_16
REMARK    9  A    between atoms: N_15  and  C_27
REMARK   10  A    between atoms: C_16  and  C_17
REMARK   11  A    between atoms: C_17  and  N_18
REMARK   12  A    between atoms: N_18  and  C_19
REMARK   13  A    between atoms: N_18  and  C_23
REMARK   14  A    between atoms: C_19  and  C_20
REMARK   15  A    between atoms: C_20  and  O_22
REMARK   16  A    between atoms: C_23  and  C_24
REMARK   17  A    between atoms: C_24  and  O_26
REMARK   18  A    between atoms: C_27  and  C_28
REMARK   19  A    between atoms: C_28  and  O_30
REMARK                            x       y       z     vdW  Elec       q    Type
REMARK                         _______ _______ _______ _____ _____    ______ ____
ROOT
ATOM      1  C   UNL     1       3.121   6.643  19.564  0.00  0.00    +0.000 C 
ENDROOT
BRANCH   1   3
ATOM      2  N   UNL     1       1.531   8.457  20.017  0.00  0.00    +0.000 N 
ATOM      3  C   UNL     1       2.150   7.710  19.030  0.00  0.00    +0.000 C 
ATOM      4  O   UNL     1       1.972   7.923  17.834  0.00  0.00    +0.000 OA
ATOM      5  H   UNL     1       1.886   8.396  20.965  0.00  0.00    +0.000 HD
BRANCH   2   6
ATOM      6  C   UNL     1       0.658   9.563  19.665  0.00  0.00    +0.000 C 
BRANCH   6   7
ATOM      7  C   UNL     1       0.901  10.842  20.473  0.00  0.00    +0.000 C 
BRANCH   7  11
ATOM      8  C   UNL     1      -2.713  12.352  22.274  0.00  0.00    +0.000 A 
ATOM      9  C   UNL     1      -1.816  11.615  23.049  0.00  0.00    +0.000 A 
ATOM     10  C   UNL     1      -0.637  11.136  22.467  0.00  0.00    +0.000 A 
ATOM     11  C   UNL     1      -0.354  11.390  21.114  0.00  0.00    +0.000 A 
ATOM     12  C   UNL     1      -1.262  12.139  20.355  0.00  0.00    +0.000 A 
ATOM     13  C   UNL     1      -2.442  12.610  20.928  0.00  0.00    +0.000 A 
BRANCH   8  14
ATOM     14  S   UNL     1      -4.246  12.920  22.960  0.00  0.00    +0.000 S 
ATOM     15  O   UNL     1      -5.335  12.468  22.134  0.00  0.00    +0.000 OA
ATOM     16  O   UNL     1      -4.091  14.296  23.372  0.00  0.00    +0.000 OA
BRANCH  14  17
ATOM     17  N   UNL     1      -4.329  12.025  24.384  0.00  0.00    +0.000 NA
ATOM     18  H   UNL     1      -3.655  11.259  24.340  0.00  0.00    +0.000 HD
ATOM     19  H   UNL     1      -5.285  11.718  24.558  0.00  0.00    +0.000 HD
ENDBRANCH  14  17
ENDBRANCH   8  14
ENDBRANCH   7  11
ENDBRANCH   6   7
ENDBRANCH   2   6
ENDBRANCH   1   3
BRANCH   1  20
ATOM     20  N   UNL     1       2.502   5.287  19.572  0.00  0.00    +0.000 NA
BRANCH  20  21
ATOM     21  C   UNL     1       3.423   4.270  19.025  0.00  0.00    +0.000 C 
BRANCH  21  22
ATOM     22  C   UNL     1       4.944   4.606  19.053  0.00  0.00    +0.000 C 
BRANCH  22  23
ATOM     23  N   UNL     1       5.574   5.029  17.771  0.00  0.00    +0.000 NA
BRANCH  23  24
ATOM     24  C   UNL     1       7.064   5.091  17.875  0.00  0.00    +0.000 C 
BRANCH  24  25
ATOM     25  C   UNL     1       7.640   6.510  17.980  0.00  0.00    +0.000 C 
ATOM     26  O   UNL     1       7.473   7.385  17.142  0.00  0.00    +0.000 OA
BRANCH  25  27
ATOM     27  O   UNL     1       8.388   6.721  19.088  0.00  0.00    +0.000 OA
ATOM     28  H   UNL     1       8.790   5.918  19.469  0.00  0.00    +0.000 HD
ENDBRANCH  25  27
ENDBRANCH  24  25
ENDBRANCH  23  24
BRANCH  23  29
ATOM     29  C   UNL     1       5.189   4.080  16.673  0.00  0.00    +0.000 C 
BRANCH  29  30
ATOM     30  C   UNL     1       5.727   4.583  15.333  0.00  0.00    +0.000 C 
ATOM     31  O   UNL     1       5.660   5.733  14.932  0.00  0.00    +0.000 OA
BRANCH  30  32
ATOM     32  O   UNL     1       6.303   3.581  14.615  0.00  0.00    +0.000 OA
ATOM     33  H   UNL     1       5.650   3.327  13.919  0.00  0.00    +0.000 HD
ENDBRANCH  30  32
ENDBRANCH  29  30
ENDBRANCH  23  29
ENDBRANCH  22  23
ENDBRANCH  21  22
ENDBRANCH  20  21
BRANCH  20  34
ATOM     34  C   UNL     1       1.996   4.975  20.932  0.00  0.00    +0.000 C 
BRANCH  34  35
ATOM     35  C   UNL     1       1.561   3.522  21.129  0.00  0.00    +0.000 C 
ATOM     36  O   UNL     1       2.126   2.726  21.869  0.00  0.00    +0.000 OA
BRANCH  35  37
ATOM     37  O   UNL     1       0.505   3.154  20.369  0.00  0.00    +0.000 OA
ATOM     38  H   UNL     1       0.378   2.191  20.254  0.00  0.00    +0.000 HD
ENDBRANCH  35  37
ENDBRANCH  34  35
ENDBRANCH  20  34
ENDBRANCH   1  20
TORSDOF 19
ENDMDL
MODEL 2
REMARK VINA RESULT:      -6.7      1.898      3.170
REMARK  Name = 
REMARK  19 active torsions:
REMARK  status: ('A' for Active; 'I' for Inactive)
REMARK    1  A    between atoms: N_1  and  S_2
REMARK    2  A    between atoms: S_2  and  C_5
REMARK    3  A    between atoms: C_8  and  C_9
REMARK    4  A    between atoms: C_9  and  C_10
REMARK    5  A    between atoms: C_10  and  N_11
REMARK    6  A    between atoms: C_12  and  C_14
REMARK    7  A    between atoms: C_14  and  N_15
REMARK    8  A    between atoms: N_15  and  C_16
REMARK    9  A    between atoms: N_15  and  C_27
REMARK   10  A    between atoms: C_16  and  C_17
REMARK   11  A    between atoms: C_17  and  N_18
REMARK   12  A    between atoms: N_18  and  C_19
REMARK   13  A    between atoms: N_18  and  C_23
REMARK   14  A    between atoms: C_19  and  C_20
REMARK   15  A    between atoms: C_20  and  O_22
REMARK   16  A    between atoms: C_23  and  C_24
REMARK   17  A    between atoms: C_24  and  O_26
REMARK   18  A    between atoms: C_27  and  C_28
REMARK   19  A    between atoms: C_28  and  O_30
REMARK                            x       y       z     vdW  Elec       q    Type
REMARK                         _______ _______ _______ _____ _____    ______ ____
ROOT
ATOM      1  C   UNL     1       2.724   4.056  20.722  0.00  0.00    +0.000 C 
ENDROOT
BRANCH   1   3
ATOM      2  N   UNL     1       1.976   6.366  21.087  0.00  0.00    +0.000 N 
ATOM      3  C   UNL     1       1.575   5.079  20.767  0.00  0.00    +0.000 C 
ATOM      4  O   UNL     1       0.412   4.800  20.495  0.00  0.00    +0.000 OA
ATOM      5  H   UNL     1       2.966   6.582  21.073  0.00  0.00    +0.000 HD
BRANCH   2   6
ATOM      6  C   UNL     1       1.019   7.458  21.078  0.00  0.00    +0.000 C 
BRANCH   6   7
ATOM      7  C   UNL     1       1.560   8.776  21.642  0.00  0.00    +0.000 C 
BRANCH   7  11
ATOM      8  C   UNL     1      -1.470  11.763  22.338  0.00  0.00    +0.000 A 
ATOM      9  C   UNL     1      -0.695  11.829  21.179  0.00  0.00    +0.000 A 
ATOM     10  C   UNL     1       0.280  10.853  20.948  0.00  0.00    +0.000 A 
ATOM     11  C   UNL     1       0.482   9.812  21.871  0.00  0.00    +0.000 A 
ATOM     12  C   UNL     1      -0.313   9.757  23.023  0.00  0.00    +0.000 A 
ATOM     13  C   UNL     1      -1.278  10.734  23.263  0.00  0.00    +0.000 A 
BRANCH   8  14
ATOM     14  S   UNL     1      -2.670  13.018  22.696  0.00  0.00    +0.000 S 
ATOM     15  O   UNL     1      -3.343  13.397  21.481  0.00  0.00    +0.000 OA
ATOM     16  O   UNL     1      -2.082  13.979  23.601  0.00  0.00    +0.000 OA
BRANCH  14  17
ATOM     17  N   UNL     1      -3.792  12.160  23.611  0.00  0.00    +0.000 NA
ATOM     18  H   UNL     1      -4.728  12.525  23.425  0.00  0.00    +0.000 HD
ATOM     19  H   UNL     1      -3.537  12.176  24.598  0.00  0.00    +0.000 HD
ENDBRANCH  14  17
ENDBRANCH   8  14
ENDBRANCH   7  11
ENDBRANCH   6   7
ENDBRANCH   2   6
ENDBRANCH   1   3
BRANCH   1  20
ATOM     20  N   UNL     1       3.309   3.943  19.356  0.00  0.00    +0.000 NA
BRANCH  20  21
ATOM     21  C   UNL     1       3.926   5.215  18.927  0.00  0.00    +0.000 C 
BRANCH  21  22
ATOM     22  C   UNL     1       4.122   5.424  17.396  0.00  0.00    +0.000 C 
BRANCH  22  23
ATOM     23  N   UNL     1       5.505   5.287  16.858  0.00  0.00    +0.000 NA
BRANCH  23  24
ATOM     24  C   UNL     1       5.629   5.862  15.484  0.00  0.00    +0.000 C 
BRANCH  24  25
ATOM     25  C   UNL     1       6.395   4.981  14.487  0.00  0.00    +0.000 C 
ATOM     26  O   UNL     1       5.897   4.052  13.866  0.00  0.00    +0.000 OA
BRANCH  25  27
ATOM     27  O   UNL     1       7.702   5.300  14.360  0.00  0.00    +0.000 OA
ATOM     28  H   UNL     1       8.296   4.541  14.209  0.00  0.00    +0.000 HD
ENDBRANCH  25  27
ENDBRANCH  24  25
ENDBRANCH  23  24
BRANCH  23  29
ATOM     29  C   UNL     1       6.481   5.967  17.775  0.00  0.00    +0.000 C 
BRANCH  29  30
ATOM     30  C   UNL     1       7.642   5.026  18.094  0.00  0.00    +0.000 C 
ATOM     31  O   UNL     1       8.060   4.145  17.361  0.00  0.00    +0.000 OA
BRANCH  30  32
ATOM     32  O   UNL     1       8.175   5.283  19.319  0.00  0.00    +0.000 OA
ATOM     33  H   UNL     1       8.089   6.257  19.461  0.00  0.00    +0.000 HD
ENDBRANCH  30  32
ENDBRANCH  29  30
ENDBRANCH  23  29
ENDBRANCH  22  23
ENDBRANCH  21  22
ENDBRANCH  20  21
BRANCH  20  34
ATOM     34  C   UNL     1       4.225   2.777  19.299  0.00  0.00    +0.000 C 
BRANCH  34  35
ATOM     35  C   UNL     1       3.709   1.605  18.462  0.00  0.00    +0.000 C 
ATOM     36  O   UNL     1       2.726   1.658  17.732  0.00  0.00    +0.000 OA
BRANCH  35  37
ATOM     37  O   UNL     1       4.405   0.458  18.628  0.00  0.00    +0.000 OA
ATOM     38  H   UNL     1       5.350   0.562  18.860  0.00  0.00    +0.000 HD
ENDBRANCH  35  37
ENDBRANCH  34  35
ENDBRANCH  20  34
ENDBRANCH   1  20
TORSDOF 19
ENDMDL
MODEL 3
REMARK VINA RESULT:      -6.7      2.762      3.664
REMARK  Name = 
REMARK  19 active torsions:
REMARK  status: ('A' for Active; 'I' for Inactive)
REMARK    1  A    between atoms: N_1  and  S_2
REMARK    2  A    between atoms: S_2  and  C_5
REMARK    3  A    between atoms: C_8  and  C_9
REMARK    4  A    between atoms: C_9  and  C_10
REMARK    5  A    between atoms: C_10  and  N_11
REMARK    6  A    between atoms: C_12  and  C_14
REMARK    7  A    between atoms: C_14  and  N_15
REMARK    8  A    between atoms: N_15  and  C_16
REMARK    9  A    between atoms: N_15  and  C_27
REMARK   10  A    between atoms: C_16  and  C_17
REMARK   11  A    between atoms: C_17  and  N_18
REMARK   12  A    between atoms: N_18  and  C_19
REMARK   13  A    between atoms: N_18  and  C_23
REMARK   14  A    between atoms: C_19  and  C_20
REMARK   15  A    between atoms: C_20  and  O_22
REMARK   16  A    between atoms: C_23  and  C_24
REMARK   17  A    between atoms: C_24  and  O_26
REMARK   18  A    between atoms: C_27  and  C_28
REMARK   19  A    between atoms: C_28  and  O_30
REMARK                            x       y       z     vdW  Elec       q    Type
REMARK                         _______ _______ _______ _____ _____    ______ ____
ROOT
ATOM      1  C   UNL     1       2.025   3.079  18.296  0.00  0.00    +0.000 C 
ENDROOT
BRANCH   1   3
ATOM      2  N   UNL     1       2.030   5.282  19.379  0.00  0.00    +0.000 N 
ATOM      3  C   UNL     1       1.612   3.967  19.484  0.00  0.00    +0.000 C 
ATOM      4  O   UNL     1       0.929   3.565  20.421  0.00  0.00    +0.000 OA
ATOM      5  H   UNL     1       2.384   5.609  18.487  0.00  0.00    +0.000 HD
BRANCH   2   6
ATOM      6  C   UNL     1       1.637   6.261  20.378  0.00  0.00    +0.000 C 
BRANCH   6   7
ATOM      7  C   UNL     1       2.239   7.654  20.168  0.00  0.00    +0.000 C 
BRANCH   7  11
ATOM      8  C   UNL     1      -0.659  10.688  19.177  0.00  0.00    +0.000 A 
ATOM      9  C   UNL     1       0.171  10.179  18.177  0.00  0.00    +0.000 A 
ATOM     10  C   UNL     1       1.103   9.186  18.497  0.00  0.00    +0.000 A 
ATOM     11  C   UNL     1       1.208   8.701  19.812  0.00  0.00    +0.000 A 
ATOM     12  C   UNL     1       0.359   9.217  20.799  0.00  0.00    +0.000 A 
ATOM     13  C   UNL     1      -0.564  10.214  20.487  0.00  0.00    +0.000 A 
BRANCH   8  14
ATOM     14  S   UNL     1      -1.807  11.992  18.823  0.00  0.00    +0.000 S 
ATOM     15  O   UNL     1      -1.836  12.915  19.926  0.00  0.00    +0.000 OA
ATOM     16  O   UNL     1      -3.001  11.418  18.247  0.00  0.00    +0.000 OA
BRANCH  14  17
ATOM     17  N   UNL     1      -1.031  12.789  17.559  0.00  0.00    +0.000 NA
ATOM     18  H   UNL     1      -1.357  13.756  17.520  0.00  0.00    +0.000 HD
ATOM     19  H   UNL     1      -1.156  12.281  16.684  0.00  0.00    +0.000 HD
ENDBRANCH  14  17
ENDBRANCH   8  14
ENDBRANCH   7  11
ENDBRANCH   6   7
ENDBRANCH   2   6
ENDBRANCH   1   3
BRANCH   1  20
ATOM     20  N   UNL     1       3.506   3.029  18.134  0.00  0.00    +0.000 NA
BRANCH  20  21
ATOM     21  C   UNL     1       3.948   3.829  16.974  0.00  0.00    +0.000 C 
BRANCH  21  22
ATOM     22  C   UNL     1       4.766   5.120  17.275  0.00  0.00    +0.000 C 
BRANCH  22  23
ATOM     23  N   UNL     1       5.917   5.425  16.381  0.00  0.00    +0.000 NA
BRANCH  23  24
ATOM     24  C   UNL     1       7.089   5.958  17.140  0.00  0.00    +0.000 C 
BRANCH  24  25
ATOM     25  C   UNL     1       7.584   5.050  18.275  0.00  0.00    +0.000 C 
ATOM     26  O   UNL     1       7.327   5.224  19.458  0.00  0.00    +0.000 OA
BRANCH  25  27
ATOM     27  O   UNL     1       8.366   4.027  17.862  0.00  0.00    +0.000 OA
ATOM     28  H   UNL     1       9.282   4.277  17.638  0.00  0.00    +0.000 HD
ENDBRANCH  25  27
ENDBRANCH  24  25
ENDBRANCH  23  24
BRANCH  23  29
ATOM     29  C   UNL     1       6.326   4.190  15.632  0.00  0.00    +0.000 C 
BRANCH  29  30
ATOM     30  C   UNL     1       6.771   4.557  14.217  0.00  0.00    +0.000 C 
ATOM     31  O   UNL     1       7.608   5.400  13.936  0.00  0.00    +0.000 OA
BRANCH  30  32
ATOM     32  O   UNL     1       6.115   3.824  13.277  0.00  0.00    +0.000 OA
ATOM     33  H   UNL     1       5.274   4.306  13.086  0.00  0.00    +0.000 HD
ENDBRANCH  30  32
ENDBRANCH  29  30
ENDBRANCH  23  29
ENDBRANCH  22  23
ENDBRANCH  21  22
ENDBRANCH  20  21
BRANCH  20  34
ATOM     34  C   UNL     1       4.163   3.402  19.411  0.00  0.00    +0.000 C 
BRANCH  34  35
ATOM     35  C   UNL     1       4.359   2.239  20.386  0.00  0.00    +0.000 C 
ATOM     36  O   UNL     1       3.756   2.118  21.445  0.00  0.00    +0.000 OA
BRANCH  35  37
ATOM     37  O   UNL     1       5.309   1.354  20.008  0.00  0.00    +0.000 OA
ATOM     38  H   UNL     1       5.048   0.722  19.308  0.00  0.00    +0.000 HD
ENDBRANCH  35  37
ENDBRANCH  34  35
ENDBRANCH  20  34
ENDBRANCH   1  20
TORSDOF 19
ENDMDL
MODEL 4
REMARK VINA RESULT:      -6.7      1.502      1.967
REMARK  Name = 
REMARK  19 active torsions:
REMARK  status: ('A' for Active; 'I' for Inactive)
REMARK    1  A    between atoms: N_1  and  S_2
REMARK    2  A    between atoms: S_2  and  C_5
REMARK    3  A    between atoms: C_8  and  C_9
REMARK    4  A    between atoms: C_9  and  C_10
REMARK    5  A    between atoms: C_10  and  N_11
REMARK    6  A    between atoms: C_12  and  C_14
REMARK    7  A    between atoms: C_14  and  N_15
REMARK    8  A    between atoms: N_15  and  C_16
REMARK    9  A    between atoms: N_15  and  C_27
REMARK   10  A    between atoms: C_16  and  C_17
REMARK   11  A    between atoms: C_17  and  N_18
REMARK   12  A    between atoms: N_18  and  C_19
REMARK   13  A    between atoms: N_18  and  C_23
REMARK   14  A    between atoms: C_19  and  C_20
REMARK   15  A    between atoms: C_20  and  O_22
REMARK   16  A    between atoms: C_23  and  C_24
REMARK   17  A    between atoms: C_24  and  O_26
REMARK   18  A    between atoms: C_27  and  C_28
REMARK   19  A    between atoms: C_28  and  O_30
REMARK                            x       y       z     vdW  Elec       q    Type
REMARK                         _______ _______ _______ _____ _____    ______ ____
ROOT
ATOM      1  C   UNL     1       3.124   5.025  19.985  0.00  0.00    +0.000 C 
ENDROOT
BRANCH   1   3
ATOM      2  N   UNL     1       2.145   7.147  20.739  0.00  0.00    +0.000 N 
ATOM      3  C   UNL     1       1.899   5.807  20.493  0.00  0.00    +0.000 C 
ATOM      4  O   UNL     1       0.786   5.307  20.622  0.00  0.00    +0.000 OA
ATOM      5  H   UNL     1       3.010   7.551  20.397  0.00  0.00    +0.000 HD
BRANCH   2   6
ATOM      6  C   UNL     1       1.065   8.033  21.134  0.00  0.00    +0.000 C 
BRANCH   6   7
ATOM      7  C   UNL     1       0.972   9.322  20.310  0.00  0.00    +0.000 C 
BRANCH   7  11
ATOM      8  C   UNL     1      -1.998  12.089  21.762  0.00  0.00    +0.000 A 
ATOM      9  C   UNL     1      -1.841  11.911  20.386  0.00  0.00    +0.000 A 
ATOM     10  C   UNL     1      -0.885  11.003  19.916  0.00  0.00    +0.000 A 
ATOM     11  C   UNL     1      -0.087  10.276  20.816  0.00  0.00    +0.000 A 
ATOM     12  C   UNL     1      -0.267  10.462  22.192  0.00  0.00    +0.000 A 
ATOM     13  C   UNL     1      -1.210  11.372  22.665  0.00  0.00    +0.000 A 
BRANCH   8  14
ATOM     14  S   UNL     1      -3.153  13.277  22.393  0.00  0.00    +0.000 S 
ATOM     15  O   UNL     1      -4.407  12.625  22.666  0.00  0.00    +0.000 OA
ATOM     16  O   UNL     1      -3.051  14.487  21.610  0.00  0.00    +0.000 OA
BRANCH  14  17
ATOM     17  N   UNL     1      -2.475  13.645  23.888  0.00  0.00    +0.000 NA
ATOM     18  H   UNL     1      -3.052  13.241  24.628  0.00  0.00    +0.000 HD
ATOM     19  H   UNL     1      -2.337  14.651  23.982  0.00  0.00    +0.000 HD
ENDBRANCH  14  17
ENDBRANCH   8  14
ENDBRANCH   7  11
ENDBRANCH   6   7
ENDBRANCH   2   6
ENDBRANCH   1   3
BRANCH   1  20
ATOM     20  N   UNL     1       2.744   4.002  18.971  0.00  0.00    +0.000 NA
BRANCH  20  21
ATOM     21  C   UNL     1       3.815   3.810  17.971  0.00  0.00    +0.000 C 
BRANCH  21  22
ATOM     22  C   UNL     1       5.280   4.014  18.456  0.00  0.00    +0.000 C 
BRANCH  22  23
ATOM     23  N   UNL     1       6.198   4.774  17.562  0.00  0.00    +0.000 NA
BRANCH  23  24
ATOM     24  C   UNL     1       7.602   4.775  18.072  0.00  0.00    +0.000 C 
BRANCH  24  25
ATOM     25  C   UNL     1       7.927   5.906  19.057  0.00  0.00    +0.000 C 
ATOM     26  O   UNL     1       8.202   7.051  18.725  0.00  0.00    +0.000 OA
BRANCH  25  27
ATOM     27  O   UNL     1       7.908   5.529  20.356  0.00  0.00    +0.000 OA
ATOM     28  H   UNL     1       8.060   6.251  20.994  0.00  0.00    +0.000 HD
ENDBRANCH  25  27
ENDBRANCH  24  25
ENDBRANCH  23  24
BRANCH  23  29
ATOM     29  C   UNL     1       6.168   4.188  16.180  0.00  0.00    +0.000 C 
BRANCH  29  30
ATOM     30  C   UNL     1       6.528   5.258  15.149  0.00  0.00    +0.000 C 
ATOM     31  O   UNL     1       7.547   5.276  14.478  0.00  0.00    +0.000 OA
BRANCH  30  32
ATOM     32  O   UNL     1       5.565   6.214  15.059  0.00  0.00    +0.000 OA
ATOM     33  H   UNL     1       5.241   6.195  14.126  0.00  0.00    +0.000 HD
ENDBRANCH  30  32
ENDBRANCH  29  30
ENDBRANCH  23  29
ENDBRANCH  22  23
ENDBRANCH  21  22
ENDBRANCH  20  21
BRANCH  20  34
ATOM     34  C   UNL     1       2.324   2.752  19.654  0.00  0.00    +0.000 C 
BRANCH  34  35
ATOM     35  C   UNL     1       2.939   2.549  21.040  0.00  0.00    +0.000 C 
ATOM     36  O   UNL     1       4.083   2.157  21.236  0.00  0.00    +0.000 OA
BRANCH  35  37
ATOM     37  O   UNL     1       2.090   2.793  22.063  0.00  0.00    +0.000 OA
ATOM     38  H   UNL     1       2.464   3.288  22.819  0.00  0.00    +0.000 HD
ENDBRANCH  35  37
ENDBRANCH  34  35
ENDBRANCH  20  34
ENDBRANCH   1  20
TORSDOF 19
ENDMDL
MODEL 5
REMARK VINA RESULT:      -6.7      5.541      8.903
REMARK  Name = 
REMARK  19 active torsions:
REMARK  status: ('A' for Active; 'I' for Inactive)
REMARK    1  A    between atoms: N_1  and  S_2
REMARK    2  A    between atoms: S_2  and  C_5
REMARK    3  A    between atoms: C_8  and  C_9
REMARK    4  A    between atoms: C_9  and  C_10
REMARK    5  A    between atoms: C_10  and  N_11
REMARK    6  A    between atoms: C_12  and  C_14
REMARK    7  A    between atoms: C_14  and  N_15
REMARK    8  A    between atoms: N_15  and  C_16
REMARK    9  A    between atoms: N_15  and  C_27
REMARK   10  A    between atoms: C_16  and  C_17
REMARK   11  A    between atoms: C_17  and  N_18
REMARK   12  A    between atoms: N_18  and  C_19
REMARK   13  A    between atoms: N_18  and  C_23
REMARK   14  A    between atoms: C_19  and  C_20
REMARK   15  A    between atoms: C_20  and  O_22
REMARK   16  A    between atoms: C_23  and  C_24
REMARK   17  A    between atoms: C_24  and  O_26
REMARK   18  A    between atoms: C_27  and  C_28
REMARK   19  A    between atoms: C_28  and  O_30
REMARK                            x       y       z     vdW  Elec       q    Type
REMARK                         _______ _______ _______ _____ _____    ______ ____
ROOT
ATOM      1  C   UNL     1       5.581   4.349  18.528  0.00  0.00    +0.000 C 
ENDROOT
BRANCH   1   3
ATOM      2  N   UNL     1       6.882   6.430  18.536  0.00  0.00    +0.000 N 
ATOM      3  C   UNL     1       6.933   5.060  18.342  0.00  0.00    +0.000 C 
ATOM      4  O   UNL     1       7.979   4.468  18.096  0.00  0.00    +0.000 OA
ATOM      5  H   UNL     1       6.053   6.829  18.961  0.00  0.00    +0.000 HD
BRANCH   2   6
ATOM      6  C   UNL     1       8.096   7.225  18.485  0.00  0.00    +0.000 C 
BRANCH   6   7
ATOM      7  C   UNL     1       8.017   8.440  17.555  0.00  0.00    +0.000 C 
BRANCH   7  11
ATOM      8  C   UNL     1       9.464  12.068  19.382  0.00  0.00    +0.000 A 
ATOM      9  C   UNL     1       8.871  12.124  18.120  0.00  0.00    +0.000 A 
ATOM     10  C   UNL     1       8.391  10.949  17.533  0.00  0.00    +0.000 A 
ATOM     11  C   UNL     1       8.502   9.718  18.202  0.00  0.00    +0.000 A 
ATOM     12  C   UNL     1       9.091   9.683  19.473  0.00  0.00    +0.000 A 
ATOM     13  C   UNL     1       9.581  10.851  20.057  0.00  0.00    +0.000 A 
BRANCH   8  14
ATOM     14  S   UNL     1      10.142  13.526  20.129  0.00  0.00    +0.000 S 
ATOM     15  O   UNL     1      10.078  13.403  21.561  0.00  0.00    +0.000 OA
ATOM     16  O   UNL     1       9.652  14.684  19.417  0.00  0.00    +0.000 OA
BRANCH  14  17
ATOM     17  N   UNL     1      11.768  13.391  19.714  0.00  0.00    +0.000 NA
ATOM     18  H   UNL     1      12.042  14.205  19.160  0.00  0.00    +0.000 HD
ATOM     19  H   UNL     1      11.946  12.502  19.248  0.00  0.00    +0.000 HD
ENDBRANCH  14  17
ENDBRANCH   8  14
ENDBRANCH   7  11
ENDBRANCH   6   7
ENDBRANCH   2   6
ENDBRANCH   1   3
BRANCH   1  20
ATOM     20  N   UNL     1       5.138   3.670  17.278  0.00  0.00    +0.000 NA
BRANCH  20  21
ATOM     21  C   UNL     1       3.989   2.776  17.528  0.00  0.00    +0.000 C 
BRANCH  21  22
ATOM     22  C   UNL     1       2.572   3.420  17.501  0.00  0.00    +0.000 C 
BRANCH  22  23
ATOM     23  N   UNL     1       2.217   4.340  18.618  0.00  0.00    +0.000 NA
BRANCH  23  24
ATOM     24  C   UNL     1       1.801   5.687  18.122  0.00  0.00    +0.000 C 
BRANCH  24  25
ATOM     25  C   UNL     1       2.610   6.859  18.695  0.00  0.00    +0.000 C 
ATOM     26  O   UNL     1       2.990   7.819  18.040  0.00  0.00    +0.000 OA
BRANCH  25  27
ATOM     27  O   UNL     1       2.901   6.737  20.010  0.00  0.00    +0.000 OA
ATOM     28  H   UNL     1       2.195   6.333  20.550  0.00  0.00    +0.000 HD
ENDBRANCH  25  27
ENDBRANCH  24  25
ENDBRANCH  23  24
BRANCH  23  29
ATOM     29  C   UNL     1       1.108   3.745  19.438  0.00  0.00    +0.000 C 
BRANCH  29  30
ATOM     30  C   UNL     1       1.516   3.691  20.910  0.00  0.00    +0.000 C 
ATOM     31  O   UNL     1       2.311   4.442  21.451  0.00  0.00    +0.000 OA
BRANCH  30  32
ATOM     32  O   UNL     1       0.881   2.685  21.571  0.00  0.00    +0.000 OA
ATOM     33  H   UNL     1       1.463   2.440  22.330  0.00  0.00    +0.000 HD
ENDBRANCH  30  32
ENDBRANCH  29  30
ENDBRANCH  23  29
ENDBRANCH  22  23
ENDBRANCH  21  22
ENDBRANCH  20  21
BRANCH  20  34
ATOM     34  C   UNL     1       4.897   4.681  16.218  0.00  0.00    +0.000 C 
BRANCH  34  35
ATOM     35  C   UNL     1       5.904   4.645  15.067  0.00  0.00    +0.000 C 
ATOM     36  O   UNL     1       6.443   5.636  14.590  0.00  0.00    +0.000 OA
BRANCH  35  37
ATOM     37  O   UNL     1       6.128   3.409  14.567  0.00  0.00    +0.000 OA
ATOM     38  H   UNL     1       5.652   2.677  15.008  0.00  0.00    +0.000 HD
ENDBRANCH  35  37
ENDBRANCH  34  35
ENDBRANCH  20  34
ENDBRANCH   1  20
TORSDOF 19
ENDMDL
MODEL 6
REMARK VINA RESULT:      -6.7      6.403      8.775
REMARK  Name = 
REMARK  19 active torsions:
REMARK  status: ('A' for Active; 'I' for Inactive)
REMARK    1  A    between atoms: N_1  and  S_2
REMARK    2  A    between atoms: S_2  and  C_5
REMARK    3  A    between atoms: C_8  and  C_9
REMARK    4  A    between atoms: C_9  and  C_10
REMARK    5  A    between atoms: C_10  and  N_11
REMARK    6  A    between atoms: C_12  and  C_14
REMARK    7  A    between atoms: C_14  and  N_15
REMARK    8  A    between atoms: N_15  and  C_16
REMARK    9  A    between atoms: N_15  and  C_27
REMARK   10  A    between atoms: C_16  and  C_17
REMARK   11  A    between atoms: C_17  and  N_18
REMARK   12  A    between atoms: N_18  and  C_19
REMARK   13  A    between atoms: N_18  and  C_23
REMARK   14  A    between atoms: C_19  and  C_20
REMARK   15  A    between atoms: C_20  and  O_22
REMARK   16  A    between atoms: C_23  and  C_24
REMARK   17  A    between atoms: C_24  and  O_26
REMARK   18  A    between atoms: C_27  and  C_28
REMARK   19  A    between atoms: C_28  and  O_30
REMARK                            x       y       z     vdW  Elec       q    Type
REMARK                         _______ _______ _______ _____ _____    ______ ____
ROOT
ATOM      1  C   UNL     1       6.505   6.855  16.849  0.00  0.00    +0.000 C 
ENDROOT
BRANCH   1   3
ATOM      2  N   UNL     1       7.864   8.707  17.714  0.00  0.00    +0.000 N 
ATOM      3  C   UNL     1       7.556   7.364  17.851  0.00  0.00    +0.000 C 
ATOM      4  O   UNL     1       8.045   6.663  18.731  0.00  0.00    +0.000 OA
ATOM      5  H   UNL     1       7.267   9.284  17.131  0.00  0.00    +0.000 HD
BRANCH   2   6
ATOM      6  C   UNL     1       8.770   9.354  18.646  0.00  0.00    +0.000 C 
BRANCH   6   7
ATOM      7  C   UNL     1       9.349  10.681  18.147  0.00  0.00    +0.000 C 
BRANCH   7  11
ATOM      8  C   UNL     1       9.420  13.720  21.205  0.00  0.00    +0.000 A 
ATOM      9  C   UNL     1       9.828  12.422  21.518  0.00  0.00    +0.000 A 
ATOM     10  C   UNL     1       9.817  11.440  20.522  0.00  0.00    +0.000 A 
ATOM     11  C   UNL     1       9.397  11.750  19.217  0.00  0.00    +0.000 A 
ATOM     12  C   UNL     1       9.000  13.060  18.920  0.00  0.00    +0.000 A 
ATOM     13  C   UNL     1       9.000  14.040  19.912  0.00  0.00    +0.000 A 
BRANCH   8  14
ATOM     14  S   UNL     1       9.359  14.974  22.457  0.00  0.00    +0.000 S 
ATOM     15  O   UNL     1      10.613  15.681  22.485  0.00  0.00    +0.000 OA
ATOM     16  O   UNL     1       8.742  14.422  23.640  0.00  0.00    +0.000 OA
BRANCH  14  17
ATOM     17  N   UNL     1       8.229  16.041  21.810  0.00  0.00    +0.000 NA
ATOM     18  H   UNL     1       7.303  15.612  21.845  0.00  0.00    +0.000 HD
ATOM     19  H   UNL     1       8.507  16.333  20.873  0.00  0.00    +0.000 HD
ENDBRANCH  14  17
ENDBRANCH   8  14
ENDBRANCH   7  11
ENDBRANCH   6   7
ENDBRANCH   2   6
ENDBRANCH   1   3
BRANCH   1  20
ATOM     20  N   UNL     1       6.176   5.419  17.076  0.00  0.00    +0.000 NA
BRANCH  20  21
ATOM     21  C   UNL     1       4.753   5.141  16.794  0.00  0.00    +0.000 C 
BRANCH  21  22
ATOM     22  C   UNL     1       3.764   5.223  17.994  0.00  0.00    +0.000 C 
BRANCH  22  23
ATOM     23  N   UNL     1       3.135   3.952  18.450  0.00  0.00    +0.000 NA
BRANCH  23  24
ATOM     24  C   UNL     1       3.672   3.506  19.772  0.00  0.00    +0.000 C 
BRANCH  24  25
ATOM     25  C   UNL     1       4.400   2.155  19.744  0.00  0.00    +0.000 C 
ATOM     26  O   UNL     1       5.196   1.784  20.596  0.00  0.00    +0.000 OA
BRANCH  25  27
ATOM     27  O   UNL     1       4.108   1.393  18.666  0.00  0.00    +0.000 OA
ATOM     28  H   UNL     1       4.693   1.530  17.897  0.00  0.00    +0.000 HD
ENDBRANCH  25  27
ENDBRANCH  24  25
ENDBRANCH  23  24
BRANCH  23  29
ATOM     29  C   UNL     1       1.646   4.125  18.548  0.00  0.00    +0.000 C 
BRANCH  29  30
ATOM     30  C   UNL     1       1.030   2.946  19.302  0.00  0.00    +0.000 C 
ATOM     31  O   UNL     1       0.571   2.993  20.432  0.00  0.00    +0.000 OA
BRANCH  30  32
ATOM     32  O   UNL     1       1.051   1.808  18.558  0.00  0.00    +0.000 OA
ATOM     33  H   UNL     1       1.054   1.056  19.199  0.00  0.00    +0.000 HD
ENDBRANCH  30  32
ENDBRANCH  29  30
ENDBRANCH  23  29
ENDBRANCH  22  23
ENDBRANCH  21  22
ENDBRANCH  20  21
BRANCH  20  34
ATOM     34  C   UNL     1       7.121   4.563  16.317  0.00  0.00    +0.000 C 
BRANCH  34  35
ATOM     35  C   UNL     1       6.978   4.653  14.797  0.00  0.00    +0.000 C 
ATOM     36  O   UNL     1       6.172   4.006  14.140  0.00  0.00    +0.000 OA
BRANCH  35  37
ATOM     37  O   UNL     1       7.864   5.487  14.207  0.00  0.00    +0.000 OA
ATOM     38  H   UNL     1       8.607   5.057  13.737  0.00  0.00    +0.000 HD
ENDBRANCH  35  37
ENDBRANCH  34  35
ENDBRANCH  20  34
ENDBRANCH   1  20
TORSDOF 19
ENDMDL
MODEL 7
REMARK VINA RESULT:      -6.7      1.766      2.141
REMARK  Name = 
REMARK  19 active torsions:
REMARK  status: ('A' for Active; 'I' for Inactive)
REMARK    1  A    between atoms: N_1  and  S_2
REMARK    2  A    between atoms: S_2  and  C_5
REMARK    3  A    between atoms: C_8  and  C_9
REMARK    4  A    between atoms: C_9  and  C_10
REMARK    5  A    between atoms: C_10  and  N_11
REMARK    6  A    between atoms: C_12  and  C_14
REMARK    7  A    between atoms: C_14  and  N_15
REMARK    8  A    between atoms: N_15  and  C_16
REMARK    9  A    between atoms: N_15  and  C_27
REMARK   10  A    between atoms: C_16  and  C_17
REMARK   11  A    between atoms: C_17  and  N_18
REMARK   12  A    between atoms: N_18  and  C_19
REMARK   13  A    between atoms: N_18  and  C_23
REMARK   14  A    between atoms: C_19  and  C_20
REMARK   15  A    between atoms: C_20  and  O_22
REMARK   16  A    between atoms: C_23  and  C_24
REMARK   17  A    between atoms: C_24  and  O_26
REMARK   18  A    between atoms: C_27  and  C_28
REMARK   19  A    between atoms: C_28  and  O_30
REMARK                            x       y       z     vdW  Elec       q    Type
REMARK                         _______ _______ _______ _____ _____    ______ ____
ROOT
ATOM      1  C   UNL     1       3.314   5.321  19.668  0.00  0.00    +0.000 C 
ENDROOT
BRANCH   1   3
ATOM      2  N   UNL     1       2.331   7.556  19.921  0.00  0.00    +0.000 N 
ATOM      3  C   UNL     1       2.153   6.204  20.159  0.00  0.00    +0.000 C 
ATOM      4  O   UNL     1       1.133   5.754  20.670  0.00  0.00    +0.000 OA
ATOM      5  H   UNL     1       3.076   7.844  19.295  0.00  0.00    +0.000 HD
BRANCH   2   6
ATOM      6  C   UNL     1       1.281   8.505  20.244  0.00  0.00    +0.000 C 
BRANCH   6   7
ATOM      7  C   UNL     1       1.163   8.833  21.736  0.00  0.00    +0.000 C 
BRANCH   7  11
ATOM      8  C   UNL     1      -1.159  12.367  22.574  0.00  0.00    +0.000 A 
ATOM      9  C   UNL     1      -0.175  12.411  21.585  0.00  0.00    +0.000 A 
ATOM     10  C   UNL     1       0.570  11.261  21.306  0.00  0.00    +0.000 A 
ATOM     11  C   UNL     1       0.335  10.068  22.011  0.00  0.00    +0.000 A 
ATOM     12  C   UNL     1      -0.663  10.041  22.993  0.00  0.00    +0.000 A 
ATOM     13  C   UNL     1      -1.401  11.188  23.283  0.00  0.00    +0.000 A 
BRANCH   8  14
ATOM     14  S   UNL     1      -2.077  13.822  23.001  0.00  0.00    +0.000 S 
ATOM     15  O   UNL     1      -3.234  13.448  23.771  0.00  0.00    +0.000 OA
ATOM     16  O   UNL     1      -2.150  14.684  21.843  0.00  0.00    +0.000 OA
BRANCH  14  17
ATOM     17  N   UNL     1      -1.023  14.584  24.069  0.00  0.00    +0.000 NA
ATOM     18  H   UNL     1      -1.279  15.570  24.148  0.00  0.00    +0.000 HD
ATOM     19  H   UNL     1      -0.056  14.436  23.785  0.00  0.00    +0.000 HD
ENDBRANCH  14  17
ENDBRANCH   8  14
ENDBRANCH   7  11
ENDBRANCH   6   7
ENDBRANCH   2   6
ENDBRANCH   1   3
BRANCH   1  20
ATOM     20  N   UNL     1       2.823   4.057  19.049  0.00  0.00    +0.000 NA
BRANCH  20  21
ATOM     21  C   UNL     1       3.370   3.875  17.689  0.00  0.00    +0.000 C 
BRANCH  21  22
ATOM     22  C   UNL     1       4.872   4.227  17.477  0.00  0.00    +0.000 C 
BRANCH  22  23
ATOM     23  N   UNL     1       5.191   5.593  16.975  0.00  0.00    +0.000 NA
BRANCH  23  24
ATOM     24  C   UNL     1       6.449   6.130  17.578  0.00  0.00    +0.000 C 
BRANCH  24  25
ATOM     25  C   UNL     1       7.099   5.215  18.625  0.00  0.00    +0.000 C 
ATOM     26  O   UNL     1       6.922   5.315  19.832  0.00  0.00    +0.000 OA
BRANCH  25  27
ATOM     27  O   UNL     1       7.924   4.279  18.104  0.00  0.00    +0.000 OA
ATOM     28  H   UNL     1       8.161   4.418  17.168  0.00  0.00    +0.000 HD
ENDBRANCH  25  27
ENDBRANCH  24  25
ENDBRANCH  23  24
BRANCH  23  29
ATOM     29  C   UNL     1       5.322   5.572  15.480  0.00  0.00    +0.000 C 
BRANCH  29  30
ATOM     30  C   UNL     1       6.573   4.791  15.075  0.00  0.00    +0.000 C 
ATOM     31  O   UNL     1       7.717   5.209  15.138  0.00  0.00    +0.000 OA
BRANCH  30  32
ATOM     32  O   UNL     1       6.263   3.546  14.622  0.00  0.00    +0.000 OA
ATOM     33  H   UNL     1       5.373   3.329  14.992  0.00  0.00    +0.000 HD
ENDBRANCH  30  32
ENDBRANCH  29  30
ENDBRANCH  23  29
ENDBRANCH  22  23
ENDBRANCH  21  22
ENDBRANCH  20  21
BRANCH  20  34
ATOM     34  C   UNL     1       3.085   2.917  19.963  0.00  0.00    +0.000 C 
BRANCH  34  35
ATOM     35  C   UNL     1       1.960   2.633  20.960  0.00  0.00    +0.000 C 
ATOM     36  O   UNL     1       2.134   2.189  22.088  0.00  0.00    +0.000 OA
BRANCH  35  37
ATOM     37  O   UNL     1       0.720   2.868  20.476  0.00  0.00    +0.000 OA
ATOM     38  H   UNL     1       0.179   3.508  20.981  0.00  0.00    +0.000 HD
ENDBRANCH  35  37
ENDBRANCH  34  35
ENDBRANCH  20  34
ENDBRANCH   1  20
TORSDOF 19
ENDMDL
MODEL 8
REMARK VINA RESULT:      -6.7      1.802      2.432
REMARK  Name = 
REMARK  19 active torsions:
REMARK  status: ('A' for Active; 'I' for Inactive)
REMARK    1  A    between atoms: N_1  and  S_2
REMARK    2  A    between atoms: S_2  and  C_5
REMARK    3  A    between atoms: C_8  and  C_9
REMARK    4  A    between atoms: C_9  and  C_10
REMARK    5  A    between atoms: C_10  and  N_11
REMARK    6  A    between atoms: C_12  and  C_14
REMARK    7  A    between atoms: C_14  and  N_15
REMARK    8  A    between atoms: N_15  and  C_16
REMARK    9  A    between atoms: N_15  and  C_27
REMARK   10  A    between atoms: C_16  and  C_17
REMARK   11  A    between atoms: C_17  and  N_18
REMARK   12  A    between atoms: N_18  and  C_19
REMARK   13  A    between atoms: N_18  and  C_23
REMARK   14  A    between atoms: C_19  and  C_20
REMARK   15  A    between atoms: C_20  and  O_22
REMARK   16  A    between atoms: C_23  and  C_24
REMARK   17  A    between atoms: C_24  and  O_26
REMARK   18  A    between atoms: C_27  and  C_28
REMARK   19  A    between atoms: C_28  and  O_30
REMARK                            x       y       z     vdW  Elec       q    Type
REMARK                         _______ _______ _______ _____ _____    ______ ____
ROOT
ATOM      1  C   UNL     1       3.078   4.353  19.772  0.00  0.00    +0.000 C 
ENDROOT
BRANCH   1   3
ATOM      2  N   UNL     1       2.237   6.509  20.591  0.00  0.00    +0.000 N 
ATOM      3  C   UNL     1       1.951   5.163  20.435  0.00  0.00    +0.000 C 
ATOM      4  O   UNL     1       0.870   4.679  20.754  0.00  0.00    +0.000 OA
ATOM      5  H   UNL     1       3.040   6.893  20.105  0.00  0.00    +0.000 HD
BRANCH   2   6
ATOM      6  C   UNL     1       1.235   7.418  21.117  0.00  0.00    +0.000 C 
BRANCH   6   7
ATOM      7  C   UNL     1       1.319   8.843  20.560  0.00  0.00    +0.000 C 
BRANCH   7  11
ATOM      8  C   UNL     1      -1.585  11.504  22.312  0.00  0.00    +0.000 A 
ATOM      9  C   UNL     1      -1.068  10.455  23.074  0.00  0.00    +0.000 A 
ATOM     10  C   UNL     1      -0.116   9.599  22.509  0.00  0.00    +0.000 A 
ATOM     11  C   UNL     1       0.318   9.788  21.186  0.00  0.00    +0.000 A 
ATOM     12  C   UNL     1      -0.205  10.852  20.440  0.00  0.00    +0.000 A 
ATOM     13  C   UNL     1      -1.162  11.701  20.996  0.00  0.00    +0.000 A 
BRANCH   8  14
ATOM     14  S   UNL     1      -2.840  12.568  22.973  0.00  0.00    +0.000 S 
ATOM     15  O   UNL     1      -3.503  11.904  24.064  0.00  0.00    +0.000 OA
ATOM     16  O   UNL     1      -3.553  13.183  21.877  0.00  0.00    +0.000 OA
BRANCH  14  17
ATOM     17  N   UNL     1      -1.913  13.795  23.658  0.00  0.00    +0.000 NA
ATOM     18  H   UNL     1      -1.589  14.424  22.921  0.00  0.00    +0.000 HD
ATOM     19  H   UNL     1      -1.158  13.403  24.220  0.00  0.00    +0.000 HD
ENDBRANCH  14  17
ENDBRANCH   8  14
ENDBRANCH   7  11
ENDBRANCH   6   7
ENDBRANCH   2   6
ENDBRANCH   1   3
BRANCH   1  20
ATOM     20  N   UNL     1       3.235   4.702  18.331  0.00  0.00    +0.000 NA
BRANCH  20  21
ATOM     21  C   UNL     1       4.642   5.008  18.001  0.00  0.00    +0.000 C 
BRANCH  21  22
ATOM     22  C   UNL     1       4.906   5.766  16.666  0.00  0.00    +0.000 C 
BRANCH  22  23
ATOM     23  N   UNL     1       6.267   5.647  16.070  0.00  0.00    +0.000 NA
BRANCH  23  24
ATOM     24  C   UNL     1       7.332   5.584  17.117  0.00  0.00    +0.000 C 
BRANCH  24  25
ATOM     25  C   UNL     1       7.712   6.939  17.728  0.00  0.00    +0.000 C 
ATOM     26  O   UNL     1       8.280   7.075  18.803  0.00  0.00    +0.000 OA
BRANCH  25  27
ATOM     27  O   UNL     1       7.341   8.004  16.982  0.00  0.00    +0.000 OA
ATOM     28  H   UNL     1       7.073   7.791  16.068  0.00  0.00    +0.000 HD
ENDBRANCH  25  27
ENDBRANCH  24  25
ENDBRANCH  23  24
BRANCH  23  29
ATOM     29  C   UNL     1       6.342   4.423  15.205  0.00  0.00    +0.000 C 
BRANCH  29  30
ATOM     30  C   UNL     1       7.083   4.742  13.907  0.00  0.00    +0.000 C 
ATOM     31  O   UNL     1       7.966   5.576  13.784  0.00  0.00    +0.000 OA
BRANCH  30  32
ATOM     32  O   UNL     1       6.640   3.977  12.873  0.00  0.00    +0.000 OA
ATOM     33  H   UNL     1       5.781   4.370  12.584  0.00  0.00    +0.000 HD
ENDBRANCH  30  32
ENDBRANCH  29  30
ENDBRANCH  23  29
ENDBRANCH  22  23
ENDBRANCH  21  22
ENDBRANCH  20  21
BRANCH  20  34
ATOM     34  C   UNL     1       2.634   3.638  17.490  0.00  0.00    +0.000 C 
BRANCH  34  35
ATOM     35  C   UNL     1       2.674   2.240  18.111  0.00  0.00    +0.000 C 
ATOM     36  O   UNL     1       1.771   1.758  18.783  0.00  0.00    +0.000 OA
BRANCH  35  37
ATOM     37  O   UNL     1       3.832   1.574  17.899  0.00  0.00    +0.000 OA
ATOM     38  H   UNL     1       3.743   0.667  17.542  0.00  0.00    +0.000 HD
ENDBRANCH  35  37
ENDBRANCH  34  35
ENDBRANCH  20  34
ENDBRANCH   1  20
TORSDOF 19
ENDMDL
MODEL 9
REMARK VINA RESULT:      -6.6      2.757      3.676
REMARK  Name = 
REMARK  19 active torsions:
REMARK  status: ('A' for Active; 'I' for Inactive)
REMARK    1  A    between atoms: N_1  and  S_2
REMARK    2  A    between atoms: S_2  and  C_5
REMARK    3  A    between atoms: C_8  and  C_9
REMARK    4  A    between atoms: C_9  and  C_10
REMARK    5  A    between atoms: C_10  and  N_11
REMARK    6  A    between atoms: C_12  and  C_14
REMARK    7  A    between atoms: C_14  and  N_15
REMARK    8  A    between atoms: N_15  and  C_16
REMARK    9  A    between atoms: N_15  and  C_27
REMARK   10  A    between atoms: C_16  and  C_17
REMARK   11  A    between atoms: C_17  and  N_18
REMARK   12  A    between atoms: N_18  and  C_19
REMARK   13  A    between atoms: N_18  and  C_23
REMARK   14  A    between atoms: C_19  and  C_20
REMARK   15  A    between atoms: C_20  and  O_22
REMARK   16  A    between atoms: C_23  and  C_24
REMARK   17  A    between atoms: C_24  and  O_26
REMARK   18  A    between atoms: C_27  and  C_28
REMARK   19  A    between atoms: C_28  and  O_30
REMARK                            x       y       z     vdW  Elec       q    Type
REMARK                         _______ _______ _______ _____ _____    ______ ____
ROOT
ATOM      1  C   UNL     1       2.141   6.381  20.856  0.00  0.00    +0.000 C 
ENDROOT
BRANCH   1   3
ATOM      2  N   UNL     1       1.667   8.404  19.549  0.00  0.00    +0.000 N 
ATOM      3  C   UNL     1       1.529   7.791  20.783  0.00  0.00    +0.000 C 
ATOM      4  O   UNL     1       0.926   8.314  21.715  0.00  0.00    +0.000 OA
ATOM      5  H   UNL     1       1.963   7.842  18.759  0.00  0.00    +0.000 HD
BRANCH   2   6
ATOM      6  C   UNL     1       1.060   9.700  19.300  0.00  0.00    +0.000 C 
BRANCH   6   7
ATOM      7  C   UNL     1       0.402   9.835  17.923  0.00  0.00    +0.000 C 
BRANCH   7  11
ATOM      8  C   UNL     1      -3.633  11.337  18.138  0.00  0.00    +0.000 A 
ATOM      9  C   UNL     1      -2.672  11.823  19.026  0.00  0.00    +0.000 A 
ATOM     10  C   UNL     1      -1.360  11.344  18.948  0.00  0.00    +0.000 A 
ATOM     11  C   UNL     1      -1.007  10.382  17.986  0.00  0.00    +0.000 A 
ATOM     12  C   UNL     1      -1.983   9.914  17.097  0.00  0.00    +0.000 A 
ATOM     13  C   UNL     1      -3.294  10.380  17.178  0.00  0.00    +0.000 A 
BRANCH   8  14
ATOM     14  S   UNL     1      -5.320  11.873  18.249  0.00  0.00    +0.000 S 
ATOM     15  O   UNL     1      -6.072  10.922  19.025  0.00  0.00    +0.000 OA
ATOM     16  O   UNL     1      -5.746  12.341  16.951  0.00  0.00    +0.000 OA
BRANCH  14  17
ATOM     17  N   UNL     1      -5.172  13.251  19.204  0.00  0.00    +0.000 NA
ATOM     18  H   UNL     1      -4.337  13.768  18.923  0.00  0.00    +0.000 HD
ATOM     19  H   UNL     1      -5.186  13.005  20.193  0.00  0.00    +0.000 HD
ENDBRANCH  14  17
ENDBRANCH   8  14
ENDBRANCH   7  11
ENDBRANCH   6   7
ENDBRANCH   2   6
ENDBRANCH   1   3
BRANCH   1  20
ATOM     20  N   UNL     1       1.543   5.467  19.841  0.00  0.00    +0.000 NA
BRANCH  20  21
ATOM     21  C   UNL     1       2.553   5.014  18.862  0.00  0.00    +0.000 C 
BRANCH  21  22
ATOM     22  C   UNL     1       4.005   5.544  19.047  0.00  0.00    +0.000 C 
BRANCH  22  23
ATOM     23  N   UNL     1       5.120   4.620  18.700  0.00  0.00    +0.000 NA
BRANCH  23  24
ATOM     24  C   UNL     1       4.651   3.461  17.881  0.00  0.00    +0.000 C 
BRANCH  24  25
ATOM     25  C   UNL     1       4.391   2.176  18.678  0.00  0.00    +0.000 C 
ATOM     26  O   UNL     1       3.642   1.279  18.314  0.00  0.00    +0.000 OA
BRANCH  25  27
ATOM     27  O   UNL     1       5.049   2.116  19.858  0.00  0.00    +0.000 OA
ATOM     28  H   UNL     1       5.396   2.970  20.177  0.00  0.00    +0.000 HD
ENDBRANCH  25  27
ENDBRANCH  24  25
ENDBRANCH  23  24
BRANCH  23  29
ATOM     29  C   UNL     1       6.187   5.363  17.948  0.00  0.00    +0.000 C 
BRANCH  29  30
ATOM     30  C   UNL     1       7.569   4.948  18.452  0.00  0.00    +0.000 C 
ATOM     31  O   UNL     1       8.084   5.324  19.492  0.00  0.00    +0.000 OA
BRANCH  30  32
ATOM     32  O   UNL     1       8.181   4.090  17.591  0.00  0.00    +0.000 OA
ATOM     33  H   UNL     1       8.045   4.461  16.685  0.00  0.00    +0.000 HD
ENDBRANCH  30  32
ENDBRANCH  29  30
ENDBRANCH  23  29
ENDBRANCH  22  23
ENDBRANCH  21  22
ENDBRANCH  20  21
BRANCH  20  34
ATOM     34  C   UNL     1       0.825   4.362  20.524  0.00  0.00    +0.000 C 
BRANCH  34  35
ATOM     35  C   UNL     1       1.671   3.110  20.765  0.00  0.00    +0.000 C 
ATOM     36  O   UNL     1       2.593   3.044  21.568  0.00  0.00    +0.000 OA
BRANCH  35  37
ATOM     37  O   UNL     1       1.350   2.065  19.969  0.00  0.00    +0.000 OA
ATOM     38  H   UNL     1       1.042   1.258  20.429  0.00  0.00    +0.000 HD
ENDBRANCH  35  37
ENDBRANCH  34  35
ENDBRANCH  20  34
ENDBRANCH   1  20
TORSDOF 19
ENDMDL
