MODEL 1
REMARK VINA RESULT:      -8.4      0.000      0.000
REMARK  Name = 
REMARK  3 active torsions:
REMARK  status: ('A' for Active; 'I' for Inactive)
REMARK    1  A    between atoms: C_2  and  C_3
REMARK    2  A    between atoms: C_3  and  N_4
REMARK    3  A    between atoms: N_18  and  C_19
REMARK                            x       y       z     vdW  Elec       q    Type
REMARK                         _______ _______ _______ _____ _____    ______ ____
ROOT
ATOM      1  N   UNL     1       6.052   6.378  17.452  0.00  0.00    +0.000 N 
ATOM      2  C   UNL     1       4.621   6.596  17.619  0.00  0.00    +0.000 A 
ATOM      3  C   UNL     1       3.959   7.822  17.603  0.00  0.00    +0.000 A 
ATOM      4  C   UNL     1       2.570   7.812  17.824  0.00  0.00    +0.000 A 
ATOM      5  C   UNL     1       1.859   6.621  18.050  0.00  0.00    +0.000 A 
ATOM      6  C   UNL     1       2.531   5.391  18.053  0.00  0.00    +0.000 A 
ATOM      7  C   UNL     1       1.936   4.132  18.263  0.00  0.00    +0.000 A 
ATOM      8  C   UNL     1       2.715   2.960  18.232  0.00  0.00    +0.000 A 
ATOM      9  C   UNL     1       4.095   3.001  17.983  0.00  0.00    +0.000 A 
ATOM     10  C   UNL     1       4.649   4.258  17.780  0.00  0.00    +0.000 A 
ATOM     11  C   UNL     1       3.894   5.416  17.829  0.00  0.00    +0.000 A 
ATOM     12  S   UNL     1       6.312   4.708  17.419  0.00  0.00    +0.000 S 
ATOM     13  O   UNL     1       6.416   4.147  16.094  0.00  0.00    +0.000 OA
ATOM     14  O   UNL     1       6.955   4.210  18.607  0.00  0.00    +0.000 OA
ENDROOT
BRANCH   1  15
ATOM     15  C   UNL     1       6.991   7.328  16.881  0.00  0.00    +0.000 C 
BRANCH  15  17
ATOM     16  O   UNL     1       8.465   7.555  18.741  0.00  0.00    +0.000 OA
ATOM     17  C   UNL     1       7.823   8.136  17.868  0.00  0.00    +0.000 C 
ATOM     18  N   UNL     1       7.851   9.502  17.626  0.00  0.00    +0.000 N 
ATOM     19  H   UNL     1       7.357   9.865  16.814  0.00  0.00    +0.000 HD
BRANCH  18  20
ATOM     20  C   UNL     1       8.639  10.453  18.325  0.00  0.00    +0.000 A 
ATOM     21  C   UNL     1       9.485  10.128  19.389  0.00  0.00    +0.000 A 
ATOM     22  C   UNL     1      10.300  11.102  19.978  0.00  0.00    +0.000 A 
ATOM     23  C   UNL     1      10.274  12.418  19.517  0.00  0.00    +0.000 A 
ATOM     24  C   UNL     1       9.406  12.766  18.485  0.00  0.00    +0.000 A 
ATOM     25  C   UNL     1       8.590  11.791  17.909  0.00  0.00    +0.000 A 
ATOM     26  F   UNL     1       7.779  12.142  16.898  0.00  0.00    +0.000 F 
ENDBRANCH  18  20
ENDBRANCH  15  17
ENDBRANCH   1  15
TORSDOF 3
ENDMDL
MODEL 2
REMARK VINA RESULT:      -8.3      1.035      1.087
REMARK  Name = 
REMARK  3 active torsions:
REMARK  status: ('A' for Active; 'I' for Inactive)
REMARK    1  A    between atoms: C_2  and  C_3
REMARK    2  A    between atoms: C_3  and  N_4
REMARK    3  A    between atoms: N_18  and  C_19
REMARK                            x       y       z     vdW  Elec       q    Type
REMARK                         _______ _______ _______ _____ _____    ______ ____
ROOT
ATOM      1  N   UNL     1       6.430   6.632  17.447  0.00  0.00    +0.000 N 
ATOM      2  C   UNL     1       4.982   6.709  17.594  0.00  0.00    +0.000 A 
ATOM      3  C   UNL     1       4.221   7.868  17.736  0.00  0.00    +0.000 A 
ATOM      4  C   UNL     1       2.833   7.714  17.904  0.00  0.00    +0.000 A 
ATOM      5  C   UNL     1       2.219   6.451  17.928  0.00  0.00    +0.000 A 
ATOM      6  C   UNL     1       2.991   5.291  17.773  0.00  0.00    +0.000 A 
ATOM      7  C   UNL     1       2.498   3.972  17.774  0.00  0.00    +0.000 A 
ATOM      8  C   UNL     1       3.372   2.883  17.598  0.00  0.00    +0.000 A 
ATOM      9  C   UNL     1       4.749   3.070  17.406  0.00  0.00    +0.000 A 
ATOM     10  C   UNL     1       5.202   4.382  17.410  0.00  0.00    +0.000 A 
ATOM     11  C   UNL     1       4.351   5.457  17.603  0.00  0.00    +0.000 A 
ATOM     12  S   UNL     1       6.829   5.012  17.177  0.00  0.00    +0.000 S 
ATOM     13  O   UNL     1       7.010   4.665  15.789  0.00  0.00    +0.000 OA
ATOM     14  O   UNL     1       7.484   4.394  18.300  0.00  0.00    +0.000 OA
ENDROOT
BRANCH   1  15
ATOM     15  C   UNL     1       7.300   7.728  17.055  0.00  0.00    +0.000 C 
BRANCH  15  17
ATOM     16  O   UNL     1       8.677   7.613  18.997  0.00  0.00    +0.000 OA
ATOM     17  C   UNL     1       8.156   8.341  18.154  0.00  0.00    +0.000 C 
ATOM     18  N   UNL     1       8.349   9.711  18.048  0.00  0.00    +0.000 N 
ATOM     19  H   UNL     1       7.948  10.201  17.252  0.00  0.00    +0.000 HD
BRANCH  18  20
ATOM     20  C   UNL     1       9.194  10.497  18.873  0.00  0.00    +0.000 A 
ATOM     21  C   UNL     1       8.965  10.717  20.234  0.00  0.00    +0.000 A 
ATOM     22  C   UNL     1       9.886  11.432  21.010  0.00  0.00    +0.000 A 
ATOM     23  C   UNL     1      11.047  11.944  20.432  0.00  0.00    +0.000 A 
ATOM     24  C   UNL     1      11.270  11.769  19.069  0.00  0.00    +0.000 A 
ATOM     25  C   UNL     1      10.342  11.062  18.301  0.00  0.00    +0.000 A 
ATOM     26  F   UNL     1      10.590  10.883  16.994  0.00  0.00    +0.000 F 
ENDBRANCH  18  20
ENDBRANCH  15  17
ENDBRANCH   1  15
TORSDOF 3
ENDMDL
MODEL 3
REMARK VINA RESULT:      -8.2      4.065      5.667
REMARK  Name = 
REMARK  3 active torsions:
REMARK  status: ('A' for Active; 'I' for Inactive)
REMARK    1  A    between atoms: C_2  and  C_3
REMARK    2  A    between atoms: C_3  and  N_4
REMARK    3  A    between atoms: N_18  and  C_19
REMARK                            x       y       z     vdW  Elec       q    Type
REMARK                         _______ _______ _______ _____ _____    ______ ____
ROOT
ATOM      1  N   UNL     1       4.821   5.654  18.402  0.00  0.00    +0.000 N 
ATOM      2  C   UNL     1       3.580   6.040  19.061  0.00  0.00    +0.000 A 
ATOM      3  C   UNL     1       3.085   7.334  19.211  0.00  0.00    +0.000 A 
ATOM      4  C   UNL     1       1.879   7.488  19.920  0.00  0.00    +0.000 A 
ATOM      5  C   UNL     1       1.185   6.392  20.460  0.00  0.00    +0.000 A 
ATOM      6  C   UNL     1       1.685   5.093  20.294  0.00  0.00    +0.000 A 
ATOM      7  C   UNL     1       1.085   3.915  20.780  0.00  0.00    +0.000 A 
ATOM      8  C   UNL     1       1.677   2.661  20.541  0.00  0.00    +0.000 A 
ATOM      9  C   UNL     1       2.867   2.537  19.808  0.00  0.00    +0.000 A 
ATOM     10  C   UNL     1       3.432   3.717  19.343  0.00  0.00    +0.000 A 
ATOM     11  C   UNL     1       2.866   4.956  19.592  0.00  0.00    +0.000 A 
ATOM     12  S   UNL     1       4.883   3.965  18.378  0.00  0.00    +0.000 S 
ATOM     13  O   UNL     1       4.438   3.370  17.142  0.00  0.00    +0.000 OA
ATOM     14  O   UNL     1       5.862   3.420  19.282  0.00  0.00    +0.000 OA
ENDROOT
BRANCH   1  15
ATOM     15  C   UNL     1       5.577   6.479  17.473  0.00  0.00    +0.000 C 
BRANCH  15  17
ATOM     16  O   UNL     1       4.846   6.863  15.237  0.00  0.00    +0.000 OA
ATOM     17  C   UNL     1       5.461   6.118  15.998  0.00  0.00    +0.000 C 
ATOM     18  N   UNL     1       6.164   4.985  15.618  0.00  0.00    +0.000 N 
ATOM     19  H   UNL     1       6.721   4.497  16.316  0.00  0.00    +0.000 HD
BRANCH  18  20
ATOM     20  C   UNL     1       6.312   4.506  14.290  0.00  0.00    +0.000 A 
ATOM     21  C   UNL     1       5.391   3.665  13.661  0.00  0.00    +0.000 A 
ATOM     22  C   UNL     1       5.555   3.299  12.319  0.00  0.00    +0.000 A 
ATOM     23  C   UNL     1       6.648   3.764  11.590  0.00  0.00    +0.000 A 
ATOM     24  C   UNL     1       7.597   4.570  12.215  0.00  0.00    +0.000 A 
ATOM     25  C   UNL     1       7.431   4.922  13.555  0.00  0.00    +0.000 A 
ATOM     26  F   UNL     1       8.344   5.720  14.130  0.00  0.00    +0.000 F 
ENDBRANCH  18  20
ENDBRANCH  15  17
ENDBRANCH   1  15
TORSDOF 3
ENDMDL
MODEL 4
REMARK VINA RESULT:      -8.0      4.244      5.643
REMARK  Name = 
REMARK  3 active torsions:
REMARK  status: ('A' for Active; 'I' for Inactive)
REMARK    1  A    between atoms: C_2  and  C_3
REMARK    2  A    between atoms: C_3  and  N_4
REMARK    3  A    between atoms: N_18  and  C_19
REMARK                            x       y       z     vdW  Elec       q    Type
REMARK                         _______ _______ _______ _____ _____    ______ ____
ROOT
ATOM      1  N   UNL     1       4.814   5.608  18.589  0.00  0.00    +0.000 N 
ATOM      2  C   UNL     1       3.549   5.968  19.214  0.00  0.00    +0.000 A 
ATOM      3  C   UNL     1       3.057   7.257  19.415  0.00  0.00    +0.000 A 
ATOM      4  C   UNL     1       1.823   7.383  20.078  0.00  0.00    +0.000 A 
ATOM      5  C   UNL     1       1.097   6.266  20.525  0.00  0.00    +0.000 A 
ATOM      6  C   UNL     1       1.594   4.973  20.308  0.00  0.00    +0.000 A 
ATOM      7  C   UNL     1       0.964   3.776  20.701  0.00  0.00    +0.000 A 
ATOM      8  C   UNL     1       1.557   2.531  20.417  0.00  0.00    +0.000 A 
ATOM      9  C   UNL     1       2.777   2.437  19.731  0.00  0.00    +0.000 A 
ATOM     10  C   UNL     1       3.370   3.635  19.358  0.00  0.00    +0.000 A 
ATOM     11  C   UNL     1       2.804   4.863  19.651  0.00  0.00    +0.000 A 
ATOM     12  S   UNL     1       4.864   3.922  18.472  0.00  0.00    +0.000 S 
ATOM     13  O   UNL     1       4.470   3.401  17.187  0.00  0.00    +0.000 OA
ATOM     14  O   UNL     1       5.799   3.318  19.386  0.00  0.00    +0.000 OA
ENDROOT
BRANCH   1  15
ATOM     15  C   UNL     1       5.616   6.475  17.741  0.00  0.00    +0.000 C 
BRANCH  15  17
ATOM     16  O   UNL     1       4.824   6.914  15.537  0.00  0.00    +0.000 OA
ATOM     17  C   UNL     1       5.546   6.213  16.243  0.00  0.00    +0.000 C 
ATOM     18  N   UNL     1       6.405   5.225  15.783  0.00  0.00    +0.000 N 
ATOM     19  H   UNL     1       7.031   4.774  16.446  0.00  0.00    +0.000 HD
BRANCH  18  20
ATOM     20  C   UNL     1       6.613   4.874  14.424  0.00  0.00    +0.000 A 
ATOM     21  C   UNL     1       7.684   5.342  13.657  0.00  0.00    +0.000 A 
ATOM     22  C   UNL     1       7.879   4.888  12.347  0.00  0.00    +0.000 A 
ATOM     23  C   UNL     1       7.000   3.964  11.783  0.00  0.00    +0.000 A 
ATOM     24  C   UNL     1       5.905   3.519  12.520  0.00  0.00    +0.000 A 
ATOM     25  C   UNL     1       5.713   3.984  13.822  0.00  0.00    +0.000 A 
ATOM     26  F   UNL     1       4.666   3.523  14.524  0.00  0.00    +0.000 F 
ENDBRANCH  18  20
ENDBRANCH  15  17
ENDBRANCH   1  15
TORSDOF 3
ENDMDL
MODEL 5
REMARK VINA RESULT:      -8.0      5.104      6.993
REMARK  Name = 
REMARK  3 active torsions:
REMARK  status: ('A' for Active; 'I' for Inactive)
REMARK    1  A    between atoms: C_2  and  C_3
REMARK    2  A    between atoms: C_3  and  N_4
REMARK    3  A    between atoms: N_18  and  C_19
REMARK                            x       y       z     vdW  Elec       q    Type
REMARK                         _______ _______ _______ _____ _____    ______ ____
ROOT
ATOM      1  N   UNL     1       2.098   6.329  20.034  0.00  0.00    +0.000 N 
ATOM      2  C   UNL     1       2.984   6.194  18.886  0.00  0.00    +0.000 A 
ATOM      3  C   UNL     1       3.588   7.229  18.174  0.00  0.00    +0.000 A 
ATOM      4  C   UNL     1       4.381   6.877  17.066  0.00  0.00    +0.000 A 
ATOM      5  C   UNL     1       4.572   5.540  16.679  0.00  0.00    +0.000 A 
ATOM      6  C   UNL     1       3.971   4.505  17.408  0.00  0.00    +0.000 A 
ATOM      7  C   UNL     1       4.088   3.130  17.128  0.00  0.00    +0.000 A 
ATOM      8  C   UNL     1       3.444   2.178  17.941  0.00  0.00    +0.000 A 
ATOM      9  C   UNL     1       2.681   2.559  19.055  0.00  0.00    +0.000 A 
ATOM     10  C   UNL     1       2.587   3.922  19.303  0.00  0.00    +0.000 A 
ATOM     11  C   UNL     1       3.200   4.864  18.496  0.00  0.00    +0.000 A 
ATOM     12  S   UNL     1       1.756   4.774  20.601  0.00  0.00    +0.000 S 
ATOM     13  O   UNL     1       2.574   4.350  21.710  0.00  0.00    +0.000 OA
ATOM     14  O   UNL     1       0.405   4.355  20.330  0.00  0.00    +0.000 OA
ENDROOT
BRANCH   1  15
ATOM     15  C   UNL     1       1.971   7.512  20.869  0.00  0.00    +0.000 C 
BRANCH  15  17
ATOM     16  O   UNL     1      -0.296   7.973  21.447  0.00  0.00    +0.000 OA
ATOM     17  C   UNL     1       0.667   8.289  20.750  0.00  0.00    +0.000 C 
ATOM     18  N   UNL     1       0.715   9.381  19.896  0.00  0.00    +0.000 N 
ATOM     19  H   UNL     1       1.597   9.609  19.442  0.00  0.00    +0.000 HD
BRANCH  18  20
ATOM     20  C   UNL     1      -0.323  10.329  19.701  0.00  0.00    +0.000 A 
ATOM     21  C   UNL     1      -0.756  11.221  20.686  0.00  0.00    +0.000 A 
ATOM     22  C   UNL     1      -1.727  12.188  20.400  0.00  0.00    +0.000 A 
ATOM     23  C   UNL     1      -2.284  12.272  19.125  0.00  0.00    +0.000 A 
ATOM     24  C   UNL     1      -1.894  11.365  18.143  0.00  0.00    +0.000 A 
ATOM     25  C   UNL     1      -0.931  10.397  18.440  0.00  0.00    +0.000 A 
ATOM     26  F   UNL     1      -0.551   9.548  17.472  0.00  0.00    +0.000 F 
ENDBRANCH  18  20
ENDBRANCH  15  17
ENDBRANCH   1  15
TORSDOF 3
ENDMDL
MODEL 6
REMARK VINA RESULT:      -8.0      5.814      8.917
REMARK  Name = 
REMARK  3 active torsions:
REMARK  status: ('A' for Active; 'I' for Inactive)
REMARK    1  A    between atoms: C_2  and  C_3
REMARK    2  A    between atoms: C_3  and  N_4
REMARK    3  A    between atoms: N_18  and  C_19
REMARK                            x       y       z     vdW  Elec       q    Type
REMARK                         _______ _______ _______ _____ _____    ______ ____
ROOT
ATOM      1  N   UNL     1       1.043   9.193  19.932  0.00  0.00    +0.000 N 
ATOM      2  C   UNL     1       0.338   9.706  21.100  0.00  0.00    +0.000 A 
ATOM      3  C   UNL     1       0.388   9.192  22.394  0.00  0.00    +0.000 A 
ATOM      4  C   UNL     1      -0.406   9.819  23.371  0.00  0.00    +0.000 A 
ATOM      5  C   UNL     1      -1.220  10.925  23.075  0.00  0.00    +0.000 A 
ATOM      6  C   UNL     1      -1.254  11.443  21.773  0.00  0.00    +0.000 A 
ATOM      7  C   UNL     1      -2.022  12.545  21.349  0.00  0.00    +0.000 A 
ATOM      8  C   UNL     1      -1.966  12.983  20.012  0.00  0.00    +0.000 A 
ATOM      9  C   UNL     1      -1.145  12.351  19.066  0.00  0.00    +0.000 A 
ATOM     10  C   UNL     1      -0.401  11.269  19.517  0.00  0.00    +0.000 A 
ATOM     11  C   UNL     1      -0.466  10.821  20.824  0.00  0.00    +0.000 A 
ATOM     12  S   UNL     1       0.747  10.254  18.650  0.00  0.00    +0.000 S 
ATOM     13  O   UNL     1       1.788  11.227  18.429  0.00  0.00    +0.000 OA
ATOM     14  O   UNL     1      -0.132   9.705  17.650  0.00  0.00    +0.000 OA
ENDROOT
BRANCH   1  15
ATOM     15  C   UNL     1       2.191   8.301  19.961  0.00  0.00    +0.000 C 
BRANCH  15  17
ATOM     16  O   UNL     1       2.072   7.285  17.808  0.00  0.00    +0.000 OA
ATOM     17  C   UNL     1       2.143   7.103  19.022  0.00  0.00    +0.000 C 
ATOM     18  N   UNL     1       2.279   5.870  19.643  0.00  0.00    +0.000 N 
ATOM     19  H   UNL     1       2.430   5.842  20.649  0.00  0.00    +0.000 HD
BRANCH  18  20
ATOM     20  C   UNL     1       2.383   4.617  18.986  0.00  0.00    +0.000 A 
ATOM     21  C   UNL     1       3.412   4.289  18.098  0.00  0.00    +0.000 A 
ATOM     22  C   UNL     1       3.502   3.003  17.550  0.00  0.00    +0.000 A 
ATOM     23  C   UNL     1       2.560   2.030  17.877  0.00  0.00    +0.000 A 
ATOM     24  C   UNL     1       1.505   2.353  18.728  0.00  0.00    +0.000 A 
ATOM     25  C   UNL     1       1.418   3.639  19.262  0.00  0.00    +0.000 A 
ATOM     26  F   UNL     1       0.408   3.922  20.100  0.00  0.00    +0.000 F 
ENDBRANCH  18  20
ENDBRANCH  15  17
ENDBRANCH   1  15
TORSDOF 3
ENDMDL
MODEL 7
REMARK VINA RESULT:      -7.9      5.069      6.624
REMARK  Name = 
REMARK  3 active torsions:
REMARK  status: ('A' for Active; 'I' for Inactive)
REMARK    1  A    between atoms: C_2  and  C_3
REMARK    2  A    between atoms: C_3  and  N_4
REMARK    3  A    between atoms: N_18  and  C_19
REMARK                            x       y       z     vdW  Elec       q    Type
REMARK                         _______ _______ _______ _____ _____    ______ ____
ROOT
ATOM      1  N   UNL     1       2.206   6.217  19.949  0.00  0.00    +0.000 N 
ATOM      2  C   UNL     1       3.080   5.986  18.806  0.00  0.00    +0.000 A 
ATOM      3  C   UNL     1       3.744   6.956  18.057  0.00  0.00    +0.000 A 
ATOM      4  C   UNL     1       4.511   6.516  16.963  0.00  0.00    +0.000 A 
ATOM      5  C   UNL     1       4.619   5.156  16.625  0.00  0.00    +0.000 A 
ATOM      6  C   UNL     1       3.958   4.187  17.392  0.00  0.00    +0.000 A 
ATOM      7  C   UNL     1       3.989   2.798  17.162  0.00  0.00    +0.000 A 
ATOM      8  C   UNL     1       3.291   1.918  18.010  0.00  0.00    +0.000 A 
ATOM      9  C   UNL     1       2.555   2.385  19.109  0.00  0.00    +0.000 A 
ATOM     10  C   UNL     1       2.545   3.759  19.307  0.00  0.00    +0.000 A 
ATOM     11  C   UNL     1       3.213   4.632  18.466  0.00  0.00    +0.000 A 
ATOM     12  S   UNL     1       1.771   4.708  20.573  0.00  0.00    +0.000 S 
ATOM     13  O   UNL     1       2.564   4.275  21.697  0.00  0.00    +0.000 OA
ATOM     14  O   UNL     1       0.397   4.363  20.318  0.00  0.00    +0.000 OA
ENDROOT
BRANCH   1  15
ATOM     15  C   UNL     1       2.153   7.436  20.741  0.00  0.00    +0.000 C 
BRANCH  15  17
ATOM     16  O   UNL     1       0.036   8.404  21.251  0.00  0.00    +0.000 OA
ATOM     17  C   UNL     1       0.984   8.371  20.468  0.00  0.00    +0.000 C 
ATOM     18  N   UNL     1       1.143   9.197  19.364  0.00  0.00    +0.000 N 
ATOM     19  H   UNL     1       2.014   9.152  18.841  0.00  0.00    +0.000 HD
BRANCH  18  20
ATOM     20  C   UNL     1       0.255  10.231  18.967  0.00  0.00    +0.000 A 
ATOM     21  C   UNL     1      -0.809  10.043  18.081  0.00  0.00    +0.000 A 
ATOM     22  C   UNL     1      -1.698  11.087  17.797  0.00  0.00    +0.000 A 
ATOM     23  C   UNL     1      -1.530  12.337  18.391  0.00  0.00    +0.000 A 
ATOM     24  C   UNL     1      -0.451  12.552  19.245  0.00  0.00    +0.000 A 
ATOM     25  C   UNL     1       0.436  11.508  19.515  0.00  0.00    +0.000 A 
ATOM     26  F   UNL     1       1.456  11.730  20.360  0.00  0.00    +0.000 F 
ENDBRANCH  18  20
ENDBRANCH  15  17
ENDBRANCH   1  15
TORSDOF 3
ENDMDL
MODEL 8
REMARK VINA RESULT:      -7.9      5.643      8.870
REMARK  Name = 
REMARK  3 active torsions:
REMARK  status: ('A' for Active; 'I' for Inactive)
REMARK    1  A    between atoms: C_2  and  C_3
REMARK    2  A    between atoms: C_3  and  N_4
REMARK    3  A    between atoms: N_18  and  C_19
REMARK                            x       y       z     vdW  Elec       q    Type
REMARK                         _______ _______ _______ _____ _____    ______ ____
ROOT
ATOM      1  N   UNL     1       1.073   9.352  19.827  0.00  0.00    +0.000 N 
ATOM      2  C   UNL     1       0.405   9.733  21.065  0.00  0.00    +0.000 A 
ATOM      3  C   UNL     1       0.584   9.154  22.320  0.00  0.00    +0.000 A 
ATOM      4  C   UNL     1      -0.195   9.651  23.380  0.00  0.00    +0.000 A 
ATOM      5  C   UNL     1      -1.121  10.693  23.202  0.00  0.00    +0.000 A 
ATOM      6  C   UNL     1      -1.287  11.277  21.939  0.00  0.00    +0.000 A 
ATOM      7  C   UNL     1      -2.174  12.326  21.631  0.00  0.00    +0.000 A 
ATOM      8  C   UNL     1      -2.246  12.840  20.322  0.00  0.00    +0.000 A 
ATOM      9  C   UNL     1      -1.437  12.340  19.291  0.00  0.00    +0.000 A 
ATOM     10  C   UNL     1      -0.573  11.307  19.629  0.00  0.00    +0.000 A 
ATOM     11  C   UNL     1      -0.512  10.783  20.908  0.00  0.00    +0.000 A 
ATOM     12  S   UNL     1       0.600  10.451  18.633  0.00  0.00    +0.000 S 
ATOM     13  O   UNL     1       1.535  11.526  18.409  0.00  0.00    +0.000 OA
ATOM     14  O   UNL     1      -0.291   9.881  17.657  0.00  0.00    +0.000 OA
ENDROOT
BRANCH   1  15
ATOM     15  C   UNL     1       2.294   8.569  19.732  0.00  0.00    +0.000 C 
BRANCH  15  17
ATOM     16  O   UNL     1       2.119   6.889  18.050  0.00  0.00    +0.000 OA
ATOM     17  C   UNL     1       2.142   7.131  19.255  0.00  0.00    +0.000 C 
ATOM     18  N   UNL     1       2.132   6.180  20.265  0.00  0.00    +0.000 N 
ATOM     19  H   UNL     1       2.256   6.487  21.228  0.00  0.00    +0.000 HD
BRANCH  18  20
ATOM     20  C   UNL     1       2.119   4.773  20.080  0.00  0.00    +0.000 A 
ATOM     21  C   UNL     1       0.962   3.993  20.145  0.00  0.00    +0.000 A 
ATOM     22  C   UNL     1       1.006   2.621  19.868  0.00  0.00    +0.000 A 
ATOM     23  C   UNL     1       2.212   2.009  19.529  0.00  0.00    +0.000 A 
ATOM     24  C   UNL     1       3.382   2.765  19.501  0.00  0.00    +0.000 A 
ATOM     25  C   UNL     1       3.330   4.130  19.787  0.00  0.00    +0.000 A 
ATOM     26  F   UNL     1       4.465   4.845  19.730  0.00  0.00    +0.000 F 
ENDBRANCH  18  20
ENDBRANCH  15  17
ENDBRANCH   1  15
TORSDOF 3
ENDMDL
MODEL 9
REMARK VINA RESULT:      -7.8      4.104      6.163
REMARK  Name = 
REMARK  3 active torsions:
REMARK  status: ('A' for Active; 'I' for Inactive)
REMARK    1  A    between atoms: C_2  and  C_3
REMARK    2  A    between atoms: C_3  and  N_4
REMARK    3  A    between atoms: N_18  and  C_19
REMARK                            x       y       z     vdW  Elec       q    Type
REMARK                         _______ _______ _______ _____ _____    ______ ____
ROOT
ATOM      1  N   UNL     1       3.909   4.612  18.554  0.00  0.00    +0.000 N 
ATOM      2  C   UNL     1       5.160   5.232  18.137  0.00  0.00    +0.000 A 
ATOM      3  C   UNL     1       5.903   6.169  18.852  0.00  0.00    +0.000 A 
ATOM      4  C   UNL     1       7.069   6.671  18.246  0.00  0.00    +0.000 A 
ATOM      5  C   UNL     1       7.486   6.254  16.971  0.00  0.00    +0.000 A 
ATOM      6  C   UNL     1       6.739   5.302  16.264  0.00  0.00    +0.000 A 
ATOM      7  C   UNL     1       7.051   4.800  14.986  0.00  0.00    +0.000 A 
ATOM      8  C   UNL     1       6.227   3.833  14.377  0.00  0.00    +0.000 A 
ATOM      9  C   UNL     1       5.085   3.333  15.019  0.00  0.00    +0.000 A 
ATOM     10  C   UNL     1       4.806   3.849  16.278  0.00  0.00    +0.000 A 
ATOM     11  C   UNL     1       5.600   4.813  16.873  0.00  0.00    +0.000 A 
ATOM     12  S   UNL     1       3.500   3.456  17.390  0.00  0.00    +0.000 S 
ATOM     13  O   UNL     1       3.886   2.108  17.727  0.00  0.00    +0.000 OA
ATOM     14  O   UNL     1       2.375   3.842  16.578  0.00  0.00    +0.000 OA
ENDROOT
BRANCH   1  15
ATOM     15  C   UNL     1       3.399   4.568  19.914  0.00  0.00    +0.000 C 
BRANCH  15  17
ATOM     16  O   UNL     1       1.239   5.090  20.776  0.00  0.00    +0.000 OA
ATOM     17  C   UNL     1       2.259   5.522  20.242  0.00  0.00    +0.000 C 
ATOM     18  N   UNL     1       2.523   6.858  19.979  0.00  0.00    +0.000 N 
ATOM     19  H   UNL     1       3.441   7.115  19.625  0.00  0.00    +0.000 HD
BRANCH  18  20
ATOM     20  C   UNL     1       1.676   7.951  20.301  0.00  0.00    +0.000 A 
ATOM     21  C   UNL     1       1.169   8.189  21.581  0.00  0.00    +0.000 A 
ATOM     22  C   UNL     1       0.408   9.334  21.849  0.00  0.00    +0.000 A 
ATOM     23  C   UNL     1       0.139  10.254  20.836  0.00  0.00    +0.000 A 
ATOM     24  C   UNL     1       0.602  10.010  19.546  0.00  0.00    +0.000 A 
ATOM     25  C   UNL     1       1.352   8.862  19.286  0.00  0.00    +0.000 A 
ATOM     26  F   UNL     1       1.811   8.659  18.040  0.00  0.00    +0.000 F 
ENDBRANCH  18  20
ENDBRANCH  15  17
ENDBRANCH   1  15
TORSDOF 3
ENDMDL
