MODEL 1
REMARK VINA RESULT:      -6.2      0.000      0.000
REMARK  Name = 
REMARK  12 active torsions:
REMARK  status: ('A' for Active; 'I' for Inactive)
REMARK    1  A    between atoms: C_1  and  S_2
REMARK    2  A    between atoms: S_2  and  C_3
REMARK    3  A    between atoms: S_2  and  C_4
REMARK    4  A    between atoms: C_4  and  C_5
REMARK    5  A    between atoms: C_5  and  C_6
REMARK    6  A    between atoms: N_8  and  C_9
REMARK    7  A    between atoms: C_12  and  O_13
REMARK    8  A    between atoms: O_13  and  C_14
REMARK    9  A    between atoms: C_14  and  C_15
REMARK   10  A    between atoms: C_15  and  O_16
REMARK   11  A    between atoms: C_15  and  C_17
REMARK   12  A    between atoms: C_17  and  O_18
REMARK                            x       y       z     vdW  Elec       q    Type
REMARK                         _______ _______ _______ _____ _____    ______ ____
ROOT
ATOM      1  C   UNL     1       6.192   6.706  17.004  0.00  0.00    +0.000 A 
ATOM      2  C   UNL     1       6.764   5.513  16.578  0.00  0.00    +0.000 A 
ATOM      3  C   UNL     1       6.017   4.359  16.492  0.00  0.00    +0.000 A 
ATOM      4  C   UNL     1       4.677   4.354  16.871  0.00  0.00    +0.000 A 
ATOM      5  C   UNL     1       4.097   5.538  17.339  0.00  0.00    +0.000 A 
ATOM      6  C   UNL     1       4.856   6.716  17.407  0.00  0.00    +0.000 A 
ENDROOT
BRANCH   1   9
ATOM      7  C   UNL     1       7.939   8.152  17.950  0.00  0.00    +0.000 C 
ATOM      8  O   UNL     1       8.403   7.378  18.785  0.00  0.00    +0.000 OA
ATOM      9  N   UNL     1       6.937   7.887  17.031  0.00  0.00    +0.000 N 
ATOM     10  H   UNL     1       6.850   8.546  16.257  0.00  0.00    +0.000 HD
BRANCH   7  11
ATOM     11  C   UNL     1       8.505   9.518  17.764  0.00  0.00    +0.000 C 
BRANCH  11  12
ATOM     12  C   UNL     1       9.118  10.005  19.058  0.00  0.00    +0.000 C 
BRANCH  12  14
ATOM     13  C   UNL     1       9.786  11.742  20.936  0.00  0.00    +0.000 C 
ATOM     14  S   UNL     1       9.681  11.770  19.092  0.00  0.00    +0.000 S 
ATOM     15  C   UNL     1      11.821  12.394  17.790  0.00  0.00    +0.000 C 
ENDBRANCH  12  14
ENDBRANCH  11  12
ENDBRANCH   7  11
ENDBRANCH   1   9
BRANCH   4  16
ATOM     16  O   UNL     1       3.882   3.240  16.816  0.00  0.00    +0.000 OA
BRANCH  16  17
ATOM     17  C   UNL     1       2.655   3.392  17.532  0.00  0.00    +0.000 C 
BRANCH  17  18
ATOM     18  C   UNL     1       2.549   2.405  18.680  0.00  0.00    +0.000 C 
BRANCH  18  19
ATOM     19  O   UNL     1       1.319   1.676  18.556  0.00  0.00    +0.000 OA
ATOM     20  H   UNL     1       1.120   1.279  19.423  0.00  0.00    +0.000 HD
ENDBRANCH  18  19
BRANCH  18  21
ATOM     21  C   UNL     1       3.743   1.444  18.686  0.00  0.00    +0.000 C 
BRANCH  21  22
ATOM     22  O   UNL     1       4.849   2.003  19.390  0.00  0.00    +0.000 OA
ATOM     23  H   UNL     1       5.658   1.731  18.921  0.00  0.00    +0.000 HD
ENDBRANCH  21  22
ENDBRANCH  18  21
ENDBRANCH  17  18
ENDBRANCH  16  17
ENDBRANCH   4  16
TORSDOF 10
ENDMDL
MODEL 2
REMARK VINA RESULT:      -6.0      5.640      7.834
REMARK  Name = 
REMARK  12 active torsions:
REMARK  status: ('A' for Active; 'I' for Inactive)
REMARK    1  A    between atoms: C_1  and  S_2
REMARK    2  A    between atoms: S_2  and  C_3
REMARK    3  A    between atoms: S_2  and  C_4
REMARK    4  A    between atoms: C_4  and  C_5
REMARK    5  A    between atoms: C_5  and  C_6
REMARK    6  A    between atoms: N_8  and  C_9
REMARK    7  A    between atoms: C_12  and  O_13
REMARK    8  A    between atoms: O_13  and  C_14
REMARK    9  A    between atoms: C_14  and  C_15
REMARK   10  A    between atoms: C_15  and  O_16
REMARK   11  A    between atoms: C_15  and  C_17
REMARK   12  A    between atoms: C_17  and  O_18
REMARK                            x       y       z     vdW  Elec       q    Type
REMARK                         _______ _______ _______ _____ _____    ______ ____
ROOT
ATOM      1  C   UNL     1       2.769   7.176  18.741  0.00  0.00    +0.000 A 
ATOM      2  C   UNL     1       2.197   7.253  20.006  0.00  0.00    +0.000 A 
ATOM      3  C   UNL     1       1.368   8.299  20.348  0.00  0.00    +0.000 A 
ATOM      4  C   UNL     1       1.118   9.327  19.443  0.00  0.00    +0.000 A 
ATOM      5  C   UNL     1       1.718   9.285  18.180  0.00  0.00    +0.000 A 
ATOM      6  C   UNL     1       2.546   8.208  17.828  0.00  0.00    +0.000 A 
ENDROOT
BRANCH   1   9
ATOM      7  C   UNL     1       3.057   4.895  17.875  0.00  0.00    +0.000 C 
ATOM      8  O   UNL     1       1.892   4.654  17.564  0.00  0.00    +0.000 OA
ATOM      9  N   UNL     1       3.559   6.083  18.378  0.00  0.00    +0.000 N 
ATOM     10  H   UNL     1       4.573   6.195  18.343  0.00  0.00    +0.000 HD
BRANCH   7  11
ATOM     11  C   UNL     1       4.140   3.897  17.644  0.00  0.00    +0.000 C 
BRANCH  11  12
ATOM     12  C   UNL     1       4.844   4.189  16.338  0.00  0.00    +0.000 C 
BRANCH  12  14
ATOM     13  C   UNL     1       6.775   4.700  14.606  0.00  0.00    +0.000 C 
ATOM     14  S   UNL     1       6.646   4.601  16.447  0.00  0.00    +0.000 S 
ATOM     15  C   UNL     1       7.343   6.687  17.800  0.00  0.00    +0.000 C 
ENDBRANCH  12  14
ENDBRANCH  11  12
ENDBRANCH   7  11
ENDBRANCH   1   9
BRANCH   4  16
ATOM     16  O   UNL     1       0.311  10.398  19.723  0.00  0.00    +0.000 OA
BRANCH  16  17
ATOM     17  C   UNL     1       0.336  11.400  18.705  0.00  0.00    +0.000 C 
BRANCH  17  18
ATOM     18  C   UNL     1      -1.029  12.032  18.505  0.00  0.00    +0.000 C 
BRANCH  18  19
ATOM     19  O   UNL     1      -0.908  13.120  17.578  0.00  0.00    +0.000 OA
ATOM     20  H   UNL     1      -1.806  13.442  17.377  0.00  0.00    +0.000 HD
ENDBRANCH  18  19
BRANCH  18  21
ATOM     21  C   UNL     1      -2.038  10.999  17.989  0.00  0.00    +0.000 C 
BRANCH  21  22
ATOM     22  O   UNL     1      -1.426  10.099  17.067  0.00  0.00    +0.000 OA
ATOM     23  H   UNL     1      -0.851   9.505  17.582  0.00  0.00    +0.000 HD
ENDBRANCH  21  22
ENDBRANCH  18  21
ENDBRANCH  17  18
ENDBRANCH  16  17
ENDBRANCH   4  16
TORSDOF 10
ENDMDL
MODEL 3
REMARK VINA RESULT:      -5.9      5.718      8.007
REMARK  Name = 
REMARK  12 active torsions:
REMARK  status: ('A' for Active; 'I' for Inactive)
REMARK    1  A    between atoms: C_1  and  S_2
REMARK    2  A    between atoms: S_2  and  C_3
REMARK    3  A    between atoms: S_2  and  C_4
REMARK    4  A    between atoms: C_4  and  C_5
REMARK    5  A    between atoms: C_5  and  C_6
REMARK    6  A    between atoms: N_8  and  C_9
REMARK    7  A    between atoms: C_12  and  O_13
REMARK    8  A    between atoms: O_13  and  C_14
REMARK    9  A    between atoms: C_14  and  C_15
REMARK   10  A    between atoms: C_15  and  O_16
REMARK   11  A    between atoms: C_15  and  C_17
REMARK   12  A    between atoms: C_17  and  O_18
REMARK                            x       y       z     vdW  Elec       q    Type
REMARK                         _______ _______ _______ _____ _____    ______ ____
ROOT
ATOM      1  C   UNL     1       2.601   7.125  18.613  0.00  0.00    +0.000 A 
ATOM      2  C   UNL     1       2.153   7.227  19.925  0.00  0.00    +0.000 A 
ATOM      3  C   UNL     1       1.413   8.313  20.340  0.00  0.00    +0.000 A 
ATOM      4  C   UNL     1       1.133   9.354  19.460  0.00  0.00    +0.000 A 
ATOM      5  C   UNL     1       1.610   9.285  18.147  0.00  0.00    +0.000 A 
ATOM      6  C   UNL     1       2.347   8.169  17.722  0.00  0.00    +0.000 A 
ENDROOT
BRANCH   1   9
ATOM      7  C   UNL     1       2.692   4.819  17.767  0.00  0.00    +0.000 C 
ATOM      8  O   UNL     1       1.489   4.623  17.604  0.00  0.00    +0.000 OA
ATOM      9  N   UNL     1       3.298   5.994  18.181  0.00  0.00    +0.000 N 
ATOM     10  H   UNL     1       4.303   6.063  18.021  0.00  0.00    +0.000 HD
BRANCH   7  11
ATOM     11  C   UNL     1       3.699   3.773  17.428  0.00  0.00    +0.000 C 
BRANCH  11  12
ATOM     12  C   UNL     1       5.069   4.200  17.903  0.00  0.00    +0.000 C 
BRANCH  12  14
ATOM     13  C   UNL     1       7.673   4.606  17.690  0.00  0.00    +0.000 C 
ATOM     14  S   UNL     1       6.197   4.924  16.625  0.00  0.00    +0.000 S 
ATOM     15  C   UNL     1       6.192   3.883  14.262  0.00  0.00    +0.000 C 
ENDBRANCH  12  14
ENDBRANCH  11  12
ENDBRANCH   7  11
ENDBRANCH   1   9
BRANCH   4  16
ATOM     16  O   UNL     1       0.410  10.464  19.811  0.00  0.00    +0.000 OA
BRANCH  16  17
ATOM     17  C   UNL     1       0.381  11.461  18.788  0.00  0.00    +0.000 C 
BRANCH  17  18
ATOM     18  C   UNL     1      -1.038  11.886  18.459  0.00  0.00    +0.000 C 
BRANCH  18  19
ATOM     19  O   UNL     1      -0.993  13.011  17.569  0.00  0.00    +0.000 OA
ATOM     20  H   UNL     1      -1.616  12.837  16.839  0.00  0.00    +0.000 HD
ENDBRANCH  18  19
BRANCH  18  21
ATOM     21  C   UNL     1      -1.820  10.731  17.823  0.00  0.00    +0.000 C 
BRANCH  21  22
ATOM     22  O   UNL     1      -2.046  10.965  16.435  0.00  0.00    +0.000 OA
ATOM     23  H   UNL     1      -1.622  10.238  15.946  0.00  0.00    +0.000 HD
ENDBRANCH  21  22
ENDBRANCH  18  21
ENDBRANCH  17  18
ENDBRANCH  16  17
ENDBRANCH   4  16
TORSDOF 10
ENDMDL
MODEL 4
REMARK VINA RESULT:      -5.9      1.093      1.171
REMARK  Name = 
REMARK  12 active torsions:
REMARK  status: ('A' for Active; 'I' for Inactive)
REMARK    1  A    between atoms: C_1  and  S_2
REMARK    2  A    between atoms: S_2  and  C_3
REMARK    3  A    between atoms: S_2  and  C_4
REMARK    4  A    between atoms: C_4  and  C_5
REMARK    5  A    between atoms: C_5  and  C_6
REMARK    6  A    between atoms: N_8  and  C_9
REMARK    7  A    between atoms: C_12  and  O_13
REMARK    8  A    between atoms: O_13  and  C_14
REMARK    9  A    between atoms: C_14  and  C_15
REMARK   10  A    between atoms: C_15  and  O_16
REMARK   11  A    between atoms: C_15  and  C_17
REMARK   12  A    between atoms: C_17  and  O_18
REMARK                            x       y       z     vdW  Elec       q    Type
REMARK                         _______ _______ _______ _____ _____    ______ ____
ROOT
ATOM      1  C   UNL     1       6.028   6.804  17.072  0.00  0.00    +0.000 A 
ATOM      2  C   UNL     1       6.515   5.570  16.657  0.00  0.00    +0.000 A 
ATOM      3  C   UNL     1       5.686   4.472  16.571  0.00  0.00    +0.000 A 
ATOM      4  C   UNL     1       4.347   4.568  16.940  0.00  0.00    +0.000 A 
ATOM      5  C   UNL     1       3.852   5.793  17.397  0.00  0.00    +0.000 A 
ATOM      6  C   UNL     1       4.694   6.913  17.465  0.00  0.00    +0.000 A 
ENDROOT
BRANCH   1   9
ATOM      7  C   UNL     1       7.906   8.097  17.988  0.00  0.00    +0.000 C 
ATOM      8  O   UNL     1       8.341   7.272  18.789  0.00  0.00    +0.000 OA
ATOM      9  N   UNL     1       6.858   7.928  17.099  0.00  0.00    +0.000 N 
ATOM     10  H   UNL     1       6.793   8.609  16.343  0.00  0.00    +0.000 HD
BRANCH   7  11
ATOM     11  C   UNL     1       8.564   9.424  17.813  0.00  0.00    +0.000 C 
BRANCH  11  12
ATOM     12  C   UNL     1       9.156   9.886  19.124  0.00  0.00    +0.000 C 
BRANCH  12  14
ATOM     13  C   UNL     1      11.260  11.486  19.073  0.00  0.00    +0.000 C 
ATOM     14  S   UNL     1       9.440  11.707  19.306  0.00  0.00    +0.000 S 
ATOM     15  C   UNL     1       8.220  13.301  17.681  0.00  0.00    +0.000 C 
ENDBRANCH  12  14
ENDBRANCH  11  12
ENDBRANCH   7  11
ENDBRANCH   1   9
BRANCH   4  16
ATOM     16  O   UNL     1       3.473   3.514  16.885  0.00  0.00    +0.000 OA
BRANCH  16  17
ATOM     17  C   UNL     1       3.785   2.479  17.819  0.00  0.00    +0.000 C 
BRANCH  17  18
ATOM     18  C   UNL     1       2.898   2.545  19.047  0.00  0.00    +0.000 C 
BRANCH  18  19
ATOM     19  O   UNL     1       1.877   1.542  18.941  0.00  0.00    +0.000 OA
ATOM     20  H   UNL     1       1.833   1.260  18.009  0.00  0.00    +0.000 HD
ENDBRANCH  18  19
BRANCH  18  21
ATOM     21  C   UNL     1       3.719   2.339  20.325  0.00  0.00    +0.000 C 
BRANCH  21  22
ATOM     22  O   UNL     1       5.011   1.816  20.027  0.00  0.00    +0.000 OA
ATOM     23  H   UNL     1       5.296   2.212  19.184  0.00  0.00    +0.000 HD
ENDBRANCH  21  22
ENDBRANCH  18  21
ENDBRANCH  17  18
ENDBRANCH  16  17
ENDBRANCH   4  16
TORSDOF 10
ENDMDL
MODEL 5
REMARK VINA RESULT:      -5.9      6.128      8.273
REMARK  Name = 
REMARK  12 active torsions:
REMARK  status: ('A' for Active; 'I' for Inactive)
REMARK    1  A    between atoms: C_1  and  S_2
REMARK    2  A    between atoms: S_2  and  C_3
REMARK    3  A    between atoms: S_2  and  C_4
REMARK    4  A    between atoms: C_4  and  C_5
REMARK    5  A    between atoms: C_5  and  C_6
REMARK    6  A    between atoms: N_8  and  C_9
REMARK    7  A    between atoms: C_12  and  O_13
REMARK    8  A    between atoms: O_13  and  C_14
REMARK    9  A    between atoms: C_14  and  C_15
REMARK   10  A    between atoms: C_15  and  O_16
REMARK   11  A    between atoms: C_15  and  C_17
REMARK   12  A    between atoms: C_17  and  O_18
REMARK                            x       y       z     vdW  Elec       q    Type
REMARK                         _______ _______ _______ _____ _____    ______ ____
ROOT
ATOM      1  C   UNL     1       2.307   7.594  19.026  0.00  0.00    +0.000 A 
ATOM      2  C   UNL     1       2.092   8.288  17.842  0.00  0.00    +0.000 A 
ATOM      3  C   UNL     1       1.306   9.420  17.814  0.00  0.00    +0.000 A 
ATOM      4  C   UNL     1       0.675   9.869  18.971  0.00  0.00    +0.000 A 
ATOM      5  C   UNL     1       0.849   9.159  20.163  0.00  0.00    +0.000 A 
ATOM      6  C   UNL     1       1.665   8.018  20.191  0.00  0.00    +0.000 A 
ENDROOT
BRANCH   1   9
ATOM      7  C   UNL     1       2.831   5.245  18.533  0.00  0.00    +0.000 C 
ATOM      8  O   UNL     1       1.838   4.958  17.868  0.00  0.00    +0.000 OA
ATOM      9  N   UNL     1       3.153   6.483  19.062  0.00  0.00    +0.000 N 
ATOM     10  H   UNL     1       4.120   6.606  19.364  0.00  0.00    +0.000 HD
BRANCH   7  11
ATOM     11  C   UNL     1       3.909   4.245  18.782  0.00  0.00    +0.000 C 
BRANCH  11  12
ATOM     12  C   UNL     1       4.395   3.671  17.471  0.00  0.00    +0.000 C 
BRANCH  12  14
ATOM     13  C   UNL     1       6.812   4.717  17.703  0.00  0.00    +0.000 C 
ATOM     14  S   UNL     1       5.468   4.769  16.436  0.00  0.00    +0.000 S 
ATOM     15  C   UNL     1       6.061   3.996  14.044  0.00  0.00    +0.000 C 
ENDBRANCH  12  14
ENDBRANCH  11  12
ENDBRANCH   7  11
ENDBRANCH   1   9
BRANCH   4  16
ATOM     16  O   UNL     1      -0.124  10.981  19.009  0.00  0.00    +0.000 OA
BRANCH  16  17
ATOM     17  C   UNL     1      -1.500  10.691  18.757  0.00  0.00    +0.000 C 
BRANCH  17  18
ATOM     18  C   UNL     1      -2.072  11.582  17.669  0.00  0.00    +0.000 C 
BRANCH  18  19
ATOM     19  O   UNL     1      -1.128  12.622  17.373  0.00  0.00    +0.000 OA
ATOM     20  H   UNL     1      -1.630  13.410  17.099  0.00  0.00    +0.000 HD
ENDBRANCH  18  19
BRANCH  18  21
ATOM     21  C   UNL     1      -2.386  10.769  16.408  0.00  0.00    +0.000 C 
BRANCH  21  22
ATOM     22  O   UNL     1      -3.063  11.566  15.439  0.00  0.00    +0.000 OA
ATOM     23  H   UNL     1      -3.053  11.071  14.600  0.00  0.00    +0.000 HD
ENDBRANCH  21  22
ENDBRANCH  18  21
ENDBRANCH  17  18
ENDBRANCH  16  17
ENDBRANCH   4  16
TORSDOF 10
ENDMDL
MODEL 6
REMARK VINA RESULT:      -5.9      1.398      1.798
REMARK  Name = 
REMARK  12 active torsions:
REMARK  status: ('A' for Active; 'I' for Inactive)
REMARK    1  A    between atoms: C_1  and  S_2
REMARK    2  A    between atoms: S_2  and  C_3
REMARK    3  A    between atoms: S_2  and  C_4
REMARK    4  A    between atoms: C_4  and  C_5
REMARK    5  A    between atoms: C_5  and  C_6
REMARK    6  A    between atoms: N_8  and  C_9
REMARK    7  A    between atoms: C_12  and  O_13
REMARK    8  A    between atoms: O_13  and  C_14
REMARK    9  A    between atoms: C_14  and  C_15
REMARK   10  A    between atoms: C_15  and  O_16
REMARK   11  A    between atoms: C_15  and  C_17
REMARK   12  A    between atoms: C_17  and  O_18
REMARK                            x       y       z     vdW  Elec       q    Type
REMARK                         _______ _______ _______ _____ _____    ______ ____
ROOT
ATOM      1  C   UNL     1       5.645   6.474  16.978  0.00  0.00    +0.000 A 
ATOM      2  C   UNL     1       5.879   5.331  16.223  0.00  0.00    +0.000 A 
ATOM      3  C   UNL     1       4.970   4.295  16.205  0.00  0.00    +0.000 A 
ATOM      4  C   UNL     1       3.814   4.356  16.978  0.00  0.00    +0.000 A 
ATOM      5  C   UNL     1       3.585   5.482  17.774  0.00  0.00    +0.000 A 
ATOM      6  C   UNL     1       4.502   6.544  17.776  0.00  0.00    +0.000 A 
ENDROOT
BRANCH   1   9
ATOM      7  C   UNL     1       7.610   7.692  17.812  0.00  0.00    +0.000 C 
ATOM      8  O   UNL     1       8.009   6.876  18.641  0.00  0.00    +0.000 OA
ATOM      9  N   UNL     1       6.540   7.548  16.947  0.00  0.00    +0.000 N 
ATOM     10  H   UNL     1       6.502   8.200  16.163  0.00  0.00    +0.000 HD
BRANCH   7  11
ATOM     11  C   UNL     1       8.341   8.969  17.572  0.00  0.00    +0.000 C 
BRANCH  11  12
ATOM     12  C   UNL     1       8.926   9.483  18.868  0.00  0.00    +0.000 C 
BRANCH  12  14
ATOM     13  C   UNL     1      10.846  11.276  19.164  0.00  0.00    +0.000 C 
ATOM     14  S   UNL     1       9.002  11.322  19.067  0.00  0.00    +0.000 S 
ATOM     15  C   UNL     1       7.946  12.794  17.227  0.00  0.00    +0.000 C 
ENDBRANCH  12  14
ENDBRANCH  11  12
ENDBRANCH   7  11
ENDBRANCH   1   9
BRANCH   4  16
ATOM     16  O   UNL     1       2.876   3.358  17.010  0.00  0.00    +0.000 OA
BRANCH  16  17
ATOM     17  C   UNL     1       1.820   3.611  17.938  0.00  0.00    +0.000 C 
BRANCH  17  18
ATOM     18  C   UNL     1       1.409   2.353  18.678  0.00  0.00    +0.000 C 
BRANCH  18  19
ATOM     19  O   UNL     1       2.468   1.388  18.585  0.00  0.00    +0.000 OA
ATOM     20  H   UNL     1       2.584   1.165  17.643  0.00  0.00    +0.000 HD
ENDBRANCH  18  19
BRANCH  18  21
ATOM     21  C   UNL     1       1.094   2.661  20.147  0.00  0.00    +0.000 C 
BRANCH  21  22
ATOM     22  O   UNL     1       0.575   3.981  20.295  0.00  0.00    +0.000 OA
ATOM     23  H   UNL     1       1.141   4.443  20.939  0.00  0.00    +0.000 HD
ENDBRANCH  21  22
ENDBRANCH  18  21
ENDBRANCH  17  18
ENDBRANCH  16  17
ENDBRANCH   4  16
TORSDOF 10
ENDMDL
MODEL 7
REMARK VINA RESULT:      -5.9      5.799      7.908
REMARK  Name = 
REMARK  12 active torsions:
REMARK  status: ('A' for Active; 'I' for Inactive)
REMARK    1  A    between atoms: C_1  and  S_2
REMARK    2  A    between atoms: S_2  and  C_3
REMARK    3  A    between atoms: S_2  and  C_4
REMARK    4  A    between atoms: C_4  and  C_5
REMARK    5  A    between atoms: C_5  and  C_6
REMARK    6  A    between atoms: N_8  and  C_9
REMARK    7  A    between atoms: C_12  and  O_13
REMARK    8  A    between atoms: O_13  and  C_14
REMARK    9  A    between atoms: C_14  and  C_15
REMARK   10  A    between atoms: C_15  and  O_16
REMARK   11  A    between atoms: C_15  and  C_17
REMARK   12  A    between atoms: C_17  and  O_18
REMARK                            x       y       z     vdW  Elec       q    Type
REMARK                         _______ _______ _______ _____ _____    ______ ____
ROOT
ATOM      1  C   UNL     1       2.694   7.204  18.514  0.00  0.00    +0.000 A 
ATOM      2  C   UNL     1       2.354   8.240  17.653  0.00  0.00    +0.000 A 
ATOM      3  C   UNL     1       1.622   9.320  18.096  0.00  0.00    +0.000 A 
ATOM      4  C   UNL     1       1.171   9.375  19.411  0.00  0.00    +0.000 A 
ATOM      5  C   UNL     1       1.471   8.321  20.280  0.00  0.00    +0.000 A 
ATOM      6  C   UNL     1       2.233   7.232  19.831  0.00  0.00    +0.000 A 
ENDROOT
BRANCH   1   9
ATOM      7  C   UNL     1       2.997   4.889  17.747  0.00  0.00    +0.000 C 
ATOM      8  O   UNL     1       1.818   4.550  17.673  0.00  0.00    +0.000 OA
ATOM      9  N   UNL     1       3.488   6.141  18.076  0.00  0.00    +0.000 N 
ATOM     10  H   UNL     1       4.467   6.316  17.846  0.00  0.00    +0.000 HD
BRANCH   7  11
ATOM     11  C   UNL     1       4.094   3.949  17.378  0.00  0.00    +0.000 C 
BRANCH  11  12
ATOM     12  C   UNL     1       4.861   4.489  16.192  0.00  0.00    +0.000 C 
BRANCH  12  14
ATOM     13  C   UNL     1       6.974   4.732  14.621  0.00  0.00    +0.000 C 
ATOM     14  S   UNL     1       6.672   4.781  16.444  0.00  0.00    +0.000 S 
ATOM     15  C   UNL     1       7.402   6.908  17.712  0.00  0.00    +0.000 C 
ENDBRANCH  12  14
ENDBRANCH  11  12
ENDBRANCH   7  11
ENDBRANCH   1   9
BRANCH   4  16
ATOM     16  O   UNL     1       0.433  10.415  19.912  0.00  0.00    +0.000 OA
BRANCH  16  17
ATOM     17  C   UNL     1       0.189  11.443  18.951  0.00  0.00    +0.000 C 
BRANCH  17  18
ATOM     18  C   UNL     1      -1.294  11.707  18.774  0.00  0.00    +0.000 C 
BRANCH  18  19
ATOM     19  O   UNL     1      -1.497  13.111  18.559  0.00  0.00    +0.000 OA
ATOM     20  H   UNL     1      -1.270  13.574  19.386  0.00  0.00    +0.000 HD
ENDBRANCH  18  19
BRANCH  18  21
ATOM     21  C   UNL     1      -1.856  10.899  17.598  0.00  0.00    +0.000 C 
BRANCH  21  22
ATOM     22  O   UNL     1      -2.057  11.726  16.455  0.00  0.00    +0.000 OA
ATOM     23  H   UNL     1      -1.189  12.090  16.206  0.00  0.00    +0.000 HD
ENDBRANCH  21  22
ENDBRANCH  18  21
ENDBRANCH  17  18
ENDBRANCH  16  17
ENDBRANCH   4  16
TORSDOF 10
ENDMDL
MODEL 8
REMARK VINA RESULT:      -5.8      0.951      1.772
REMARK  Name = 
REMARK  12 active torsions:
REMARK  status: ('A' for Active; 'I' for Inactive)
REMARK    1  A    between atoms: C_1  and  S_2
REMARK    2  A    between atoms: S_2  and  C_3
REMARK    3  A    between atoms: S_2  and  C_4
REMARK    4  A    between atoms: C_4  and  C_5
REMARK    5  A    between atoms: C_5  and  C_6
REMARK    6  A    between atoms: N_8  and  C_9
REMARK    7  A    between atoms: C_12  and  O_13
REMARK    8  A    between atoms: O_13  and  C_14
REMARK    9  A    between atoms: C_14  and  C_15
REMARK   10  A    between atoms: C_15  and  O_16
REMARK   11  A    between atoms: C_15  and  C_17
REMARK   12  A    between atoms: C_17  and  O_18
REMARK                            x       y       z     vdW  Elec       q    Type
REMARK                         _______ _______ _______ _____ _____    ______ ____
ROOT
ATOM      1  C   UNL     1       5.832   6.635  17.134  0.00  0.00    +0.000 A 
ATOM      2  C   UNL     1       6.276   5.397  16.684  0.00  0.00    +0.000 A 
ATOM      3  C   UNL     1       5.434   4.306  16.665  0.00  0.00    +0.000 A 
ATOM      4  C   UNL     1       4.128   4.413  17.135  0.00  0.00    +0.000 A 
ATOM      5  C   UNL     1       3.679   5.642  17.628  0.00  0.00    +0.000 A 
ATOM      6  C   UNL     1       4.532   6.756  17.629  0.00  0.00    +0.000 A 
ENDROOT
BRANCH   1   9
ATOM      7  C   UNL     1       7.777   7.921  17.909  0.00  0.00    +0.000 C 
ATOM      8  O   UNL     1       8.259   7.099  18.686  0.00  0.00    +0.000 OA
ATOM      9  N   UNL     1       6.670   7.753  17.095  0.00  0.00    +0.000 N 
ATOM     10  H   UNL     1       6.559   8.428  16.339  0.00  0.00    +0.000 HD
BRANCH   7  11
ATOM     11  C   UNL     1       8.431   9.241  17.678  0.00  0.00    +0.000 C 
BRANCH  11  12
ATOM     12  C   UNL     1       9.016   9.762  18.971  0.00  0.00    +0.000 C 
BRANCH  12  14
ATOM     13  C   UNL     1       8.663  12.055  17.701  0.00  0.00    +0.000 C 
ATOM     14  S   UNL     1       9.918  11.377  18.876  0.00  0.00    +0.000 S 
ATOM     15  C   UNL     1      10.319  12.682  21.068  0.00  0.00    +0.000 C 
ENDBRANCH  12  14
ENDBRANCH  11  12
ENDBRANCH   7  11
ENDBRANCH   1   9
BRANCH   4  16
ATOM     16  O   UNL     1       3.245   3.366  17.150  0.00  0.00    +0.000 OA
BRANCH  16  17
ATOM     17  C   UNL     1       3.866   2.112  17.436  0.00  0.00    +0.000 C 
BRANCH  17  18
ATOM     18  C   UNL     1       3.649   1.693  18.878  0.00  0.00    +0.000 C 
BRANCH  18  19
ATOM     19  O   UNL     1       4.759   2.145  19.668  0.00  0.00    +0.000 OA
ATOM     20  H   UNL     1       4.403   2.516  20.496  0.00  0.00    +0.000 HD
ENDBRANCH  18  19
BRANCH  18  21
ATOM     21  C   UNL     1       2.336   2.269  19.421  0.00  0.00    +0.000 C 
BRANCH  21  22
ATOM     22  O   UNL     1       1.222   1.823  18.651  0.00  0.00    +0.000 OA
ATOM     23  H   UNL     1       0.624   1.349  19.256  0.00  0.00    +0.000 HD
ENDBRANCH  21  22
ENDBRANCH  18  21
ENDBRANCH  17  18
ENDBRANCH  16  17
ENDBRANCH   4  16
TORSDOF 10
ENDMDL
MODEL 9
REMARK VINA RESULT:      -5.8      5.915      7.396
REMARK  Name = 
REMARK  12 active torsions:
REMARK  status: ('A' for Active; 'I' for Inactive)
REMARK    1  A    between atoms: C_1  and  S_2
REMARK    2  A    between atoms: S_2  and  C_3
REMARK    3  A    between atoms: S_2  and  C_4
REMARK    4  A    between atoms: C_4  and  C_5
REMARK    5  A    between atoms: C_5  and  C_6
REMARK    6  A    between atoms: N_8  and  C_9
REMARK    7  A    between atoms: C_12  and  O_13
REMARK    8  A    between atoms: O_13  and  C_14
REMARK    9  A    between atoms: C_14  and  C_15
REMARK   10  A    between atoms: C_15  and  O_16
REMARK   11  A    between atoms: C_15  and  C_17
REMARK   12  A    between atoms: C_17  and  O_18
REMARK                            x       y       z     vdW  Elec       q    Type
REMARK                         _______ _______ _______ _____ _____    ______ ____
ROOT
ATOM      1  C   UNL     1       1.849   7.022  20.376  0.00  0.00    +0.000 A 
ATOM      2  C   UNL     1       1.487   5.752  20.807  0.00  0.00    +0.000 A 
ATOM      3  C   UNL     1       1.731   4.642  20.027  0.00  0.00    +0.000 A 
ATOM      4  C   UNL     1       2.312   4.776  18.769  0.00  0.00    +0.000 A 
ATOM      5  C   UNL     1       2.646   6.052  18.305  0.00  0.00    +0.000 A 
ATOM      6  C   UNL     1       2.413   7.178  19.109  0.00  0.00    +0.000 A 
ENDROOT
BRANCH   1   9
ATOM      7  C   UNL     1       0.416   8.569  21.638  0.00  0.00    +0.000 C 
ATOM      8  O   UNL     1      -0.664   8.000  21.491  0.00  0.00    +0.000 OA
ATOM      9  N   UNL     1       1.655   8.138  21.195  0.00  0.00    +0.000 N 
ATOM     10  H   UNL     1       2.466   8.591  21.614  0.00  0.00    +0.000 HD
BRANCH   7  11
ATOM     11  C   UNL     1       0.526   9.821  22.440  0.00  0.00    +0.000 C 
BRANCH  11  12
ATOM     12  C   UNL     1      -0.802  10.140  23.087  0.00  0.00    +0.000 C 
BRANCH  12  14
ATOM     13  C   UNL     1      -1.299  11.795  21.086  0.00  0.00    +0.000 C 
ATOM     14  S   UNL     1      -1.399  11.886  22.929  0.00  0.00    +0.000 S 
ATOM     15  C   UNL     1      -3.684  12.495  23.966  0.00  0.00    +0.000 C 
ENDBRANCH  12  14
ENDBRANCH  11  12
ENDBRANCH   7  11
ENDBRANCH   1   9
BRANCH   4  16
ATOM     16  O   UNL     1       2.575   3.715  17.944  0.00  0.00    +0.000 OA
BRANCH  16  17
ATOM     17  C   UNL     1       2.255   2.453  18.533  0.00  0.00    +0.000 C 
BRANCH  17  18
ATOM     18  C   UNL     1       3.495   1.609  18.761  0.00  0.00    +0.000 C 
BRANCH  18  19
ATOM     19  O   UNL     1       4.255   1.557  17.544  0.00  0.00    +0.000 OA
ATOM     20  H   UNL     1       5.197   1.493  17.784  0.00  0.00    +0.000 HD
ENDBRANCH  18  19
BRANCH  18  21
ATOM     21  C   UNL     1       4.347   2.186  19.898  0.00  0.00    +0.000 C 
BRANCH  21  22
ATOM     22  O   UNL     1       5.306   3.116  19.401  0.00  0.00    +0.000 OA
ATOM     23  H   UNL     1       5.286   3.893  19.988  0.00  0.00    +0.000 HD
ENDBRANCH  21  22
ENDBRANCH  18  21
ENDBRANCH  17  18
ENDBRANCH  16  17
ENDBRANCH   4  16
TORSDOF 10
ENDMDL
