MODEL 1
REMARK VINA RESULT:      -7.8      0.000      0.000
REMARK  Name = 
REMARK  7 active torsions:
REMARK  status: ('A' for Active; 'I' for Inactive)
REMARK    1  A    between atoms: C_2  and  C_3
REMARK    2  A    between atoms: C_3  and  N_4
REMARK    3  A    between atoms: N_4  and  C_5
REMARK    4  A    between atoms: N_4  and  S_11
REMARK    5  A    between atoms: S_11  and  C_14
REMARK    6  A    between atoms: N_21  and  C_22
REMARK    7  A    between atoms: C_22  and  C_23
REMARK                            x       y       z     vdW  Elec       q    Type
REMARK                         _______ _______ _______ _____ _____    ______ ____
ROOT
ATOM      1  N   UNL     1       3.426   5.339  18.953  0.00  0.00    +0.000 N 
ENDROOT
BRANCH   1   2
ATOM      2  C   UNL     1       2.441   4.337  19.250  0.00  0.00    +0.000 A 
ATOM      3  C   UNL     1       2.144   4.091  20.593  0.00  0.00    +0.000 A 
ATOM      4  C   UNL     1       1.191   3.134  20.938  0.00  0.00    +0.000 A 
ATOM      5  C   UNL     1       0.545   2.408  19.941  0.00  0.00    +0.000 A 
ATOM      6  C   UNL     1       0.849   2.641  18.598  0.00  0.00    +0.000 A 
ATOM      7  C   UNL     1       1.798   3.606  18.249  0.00  0.00    +0.000 A 
ENDBRANCH   1   2
BRANCH   1   8
ATOM      8  S   UNL     1       5.047   4.846  18.877  0.00  0.00    +0.000 S 
ATOM      9  O   UNL     1       5.839   5.819  19.602  0.00  0.00    +0.000 OA
ATOM     10  O   UNL     1       5.120   3.445  19.240  0.00  0.00    +0.000 OA
BRANCH   8  11
ATOM     11  C   UNL     1       5.546   4.958  17.157  0.00  0.00    +0.000 A 
ATOM     12  C   UNL     1       6.749   5.596  16.825  0.00  0.00    +0.000 A 
ATOM     13  C   UNL     1       7.260   5.483  15.523  0.00  0.00    +0.000 A 
ATOM     14  C   UNL     1       6.581   4.720  14.578  0.00  0.00    +0.000 A 
ATOM     15  F   UNL     1       7.099   4.571  13.352  0.00  0.00    +0.000 F 
ATOM     16  C   UNL     1       5.387   4.083  14.900  0.00  0.00    +0.000 A 
ATOM     17  C   UNL     1       4.867   4.199  16.193  0.00  0.00    +0.000 A 
ENDBRANCH   8  11
ENDBRANCH   1   8
BRANCH   1  18
ATOM     18  C   UNL     1       3.006   6.517  18.161  0.00  0.00    +0.000 C 
BRANCH  18  20
ATOM     19  O   UNL     1       2.219   7.489  20.223  0.00  0.00    +0.000 OA
ATOM     20  C   UNL     1       2.405   7.634  19.015  0.00  0.00    +0.000 C 
ATOM     21  N   UNL     1       2.018   8.776  18.346  0.00  0.00    +0.000 N 
ATOM     22  H   UNL     1       2.041   8.779  17.334  0.00  0.00    +0.000 HD
BRANCH  21  23
ATOM     23  C   UNL     1       1.376   9.866  19.047  0.00  0.00    +0.000 C 
BRANCH  23  24
ATOM     24  C   UNL     1       0.052  10.163  18.412  0.00  0.00    +0.000 A 
ATOM     25  C   UNL     1      -0.657   9.400  17.501  0.00  0.00    +0.000 A 
ATOM     26  C   UNL     1      -1.873  10.027  17.091  0.00  0.00    +0.000 A 
ATOM     27  C   UNL     1      -2.052  11.246  17.704  0.00  0.00    +0.000 A 
ATOM     28  S   UNL     1      -0.765  11.629  18.764  0.00  0.00    +0.000 S 
ENDBRANCH  23  24
ENDBRANCH  21  23
ENDBRANCH  18  20
ENDBRANCH   1  18
TORSDOF 7
ENDMDL
MODEL 2
REMARK VINA RESULT:      -7.8      1.095      1.551
REMARK  Name = 
REMARK  7 active torsions:
REMARK  status: ('A' for Active; 'I' for Inactive)
REMARK    1  A    between atoms: C_2  and  C_3
REMARK    2  A    between atoms: C_3  and  N_4
REMARK    3  A    between atoms: N_4  and  C_5
REMARK    4  A    between atoms: N_4  and  S_11
REMARK    5  A    between atoms: S_11  and  C_14
REMARK    6  A    between atoms: N_21  and  C_22
REMARK    7  A    between atoms: C_22  and  C_23
REMARK                            x       y       z     vdW  Elec       q    Type
REMARK                         _______ _______ _______ _____ _____    ______ ____
ROOT
ATOM      1  N   UNL     1       3.699   5.474  18.991  0.00  0.00    +0.000 N 
ENDROOT
BRANCH   1   2
ATOM      2  C   UNL     1       2.632   4.556  19.276  0.00  0.00    +0.000 A 
ATOM      3  C   UNL     1       2.348   4.280  20.616  0.00  0.00    +0.000 A 
ATOM      4  C   UNL     1       1.319   3.401  20.950  0.00  0.00    +0.000 A 
ATOM      5  C   UNL     1       0.581   2.784  19.943  0.00  0.00    +0.000 A 
ATOM      6  C   UNL     1       0.869   3.046  18.603  0.00  0.00    +0.000 A 
ATOM      7  C   UNL     1       1.896   3.933  18.265  0.00  0.00    +0.000 A 
ENDBRANCH   1   2
BRANCH   1   8
ATOM      8  S   UNL     1       5.268   4.839  18.875  0.00  0.00    +0.000 S 
ATOM      9  O   UNL     1       6.163   5.744  19.568  0.00  0.00    +0.000 OA
ATOM     10  O   UNL     1       5.228   3.440  19.250  0.00  0.00    +0.000 OA
BRANCH   8  11
ATOM     11  C   UNL     1       5.726   4.893  17.141  0.00  0.00    +0.000 A 
ATOM     12  C   UNL     1       7.010   5.323  16.776  0.00  0.00    +0.000 A 
ATOM     13  C   UNL     1       7.453   5.147  15.457  0.00  0.00    +0.000 A 
ATOM     14  C   UNL     1       6.625   4.526  14.526  0.00  0.00    +0.000 A 
ATOM     15  F   UNL     1       7.072   4.312  13.283  0.00  0.00    +0.000 F 
ATOM     16  C   UNL     1       5.351   4.096  14.880  0.00  0.00    +0.000 A 
ATOM     17  C   UNL     1       4.898   4.277  16.192  0.00  0.00    +0.000 A 
ENDBRANCH   8  11
ENDBRANCH   1   8
BRANCH   1  18
ATOM     18  C   UNL     1       3.377   6.707  18.238  0.00  0.00    +0.000 C 
BRANCH  18  20
ATOM     19  O   UNL     1       2.199   7.495  20.190  0.00  0.00    +0.000 OA
ATOM     20  C   UNL     1       2.422   7.637  18.987  0.00  0.00    +0.000 C 
ATOM     21  N   UNL     1       1.774   8.590  18.230  0.00  0.00    +0.000 N 
ATOM     22  H   UNL     1       1.868   8.557  17.222  0.00  0.00    +0.000 HD
BRANCH  21  23
ATOM     23  C   UNL     1       0.798   9.476  18.826  0.00  0.00    +0.000 C 
BRANCH  23  24
ATOM     24  C   UNL     1       1.243  10.897  18.665  0.00  0.00    +0.000 A 
ATOM     25  C   UNL     1       2.390  11.378  18.059  0.00  0.00    +0.000 A 
ATOM     26  C   UNL     1       2.491  12.800  18.128  0.00  0.00    +0.000 A 
ATOM     27  C   UNL     1       1.416  13.358  18.783  0.00  0.00    +0.000 A 
ATOM     28  S   UNL     1       0.297  12.175  19.308  0.00  0.00    +0.000 S 
ENDBRANCH  23  24
ENDBRANCH  21  23
ENDBRANCH  18  20
ENDBRANCH   1  18
TORSDOF 7
ENDMDL
MODEL 3
REMARK VINA RESULT:      -7.6      1.574      2.308
REMARK  Name = 
REMARK  7 active torsions:
REMARK  status: ('A' for Active; 'I' for Inactive)
REMARK    1  A    between atoms: C_2  and  C_3
REMARK    2  A    between atoms: C_3  and  N_4
REMARK    3  A    between atoms: N_4  and  C_5
REMARK    4  A    between atoms: N_4  and  S_11
REMARK    5  A    between atoms: S_11  and  C_14
REMARK    6  A    between atoms: N_21  and  C_22
REMARK    7  A    between atoms: C_22  and  C_23
REMARK                            x       y       z     vdW  Elec       q    Type
REMARK                         _______ _______ _______ _____ _____    ______ ____
ROOT
ATOM      1  N   UNL     1       3.771   5.092  18.679  0.00  0.00    +0.000 N 
ENDROOT
BRANCH   1   2
ATOM      2  C   UNL     1       2.743   4.317  19.315  0.00  0.00    +0.000 A 
ATOM      3  C   UNL     1       1.977   3.466  18.514  0.00  0.00    +0.000 A 
ATOM      4  C   UNL     1       0.970   2.685  19.081  0.00  0.00    +0.000 A 
ATOM      5  C   UNL     1       0.716   2.767  20.447  0.00  0.00    +0.000 A 
ATOM      6  C   UNL     1       1.469   3.626  21.249  0.00  0.00    +0.000 A 
ATOM      7  C   UNL     1       2.485   4.403  20.685  0.00  0.00    +0.000 A 
ENDBRANCH   1   2
BRANCH   1   8
ATOM      8  S   UNL     1       5.375   4.574  18.871  0.00  0.00    +0.000 S 
ATOM      9  O   UNL     1       6.087   5.604  19.601  0.00  0.00    +0.000 OA
ATOM     10  O   UNL     1       5.362   3.215  19.373  0.00  0.00    +0.000 OA
BRANCH   8  11
ATOM     11  C   UNL     1       6.102   4.512  17.232  0.00  0.00    +0.000 A 
ATOM     12  C   UNL     1       5.558   3.656  16.265  0.00  0.00    +0.000 A 
ATOM     13  C   UNL     1       5.964   3.771  14.927  0.00  0.00    +0.000 A 
ATOM     14  C   UNL     1       6.886   4.749  14.566  0.00  0.00    +0.000 A 
ATOM     15  F   UNL     1       7.230   4.890  13.280  0.00  0.00    +0.000 F 
ATOM     16  C   UNL     1       7.429   5.603  15.519  0.00  0.00    +0.000 A 
ATOM     17  C   UNL     1       7.037   5.488  16.857  0.00  0.00    +0.000 A 
ENDBRANCH   8  11
ENDBRANCH   1   8
BRANCH   1  18
ATOM     18  C   UNL     1       3.415   5.860  17.465  0.00  0.00    +0.000 C 
BRANCH  18  20
ATOM     19  O   UNL     1       4.206   8.116  17.791  0.00  0.00    +0.000 OA
ATOM     20  C   UNL     1       3.238   7.357  17.729  0.00  0.00    +0.000 C 
ATOM     21  N   UNL     1       1.951   7.790  17.963  0.00  0.00    +0.000 N 
ATOM     22  H   UNL     1       1.216   7.101  18.064  0.00  0.00    +0.000 HD
BRANCH  21  23
ATOM     23  C   UNL     1       1.680   9.173  18.292  0.00  0.00    +0.000 C 
BRANCH  23  24
ATOM     24  C   UNL     1       1.184   9.268  19.701  0.00  0.00    +0.000 A 
ATOM     25  C   UNL     1       1.369   8.376  20.742  0.00  0.00    +0.000 A 
ATOM     26  C   UNL     1       0.716   8.791  21.942  0.00  0.00    +0.000 A 
ATOM     27  C   UNL     1       0.055   9.988  21.777  0.00  0.00    +0.000 A 
ATOM     28  S   UNL     1       0.224  10.603  20.190  0.00  0.00    +0.000 S 
ENDBRANCH  23  24
ENDBRANCH  21  23
ENDBRANCH  18  20
ENDBRANCH   1  18
TORSDOF 7
ENDMDL
MODEL 4
REMARK VINA RESULT:      -7.6      2.837      5.005
REMARK  Name = 
REMARK  7 active torsions:
REMARK  status: ('A' for Active; 'I' for Inactive)
REMARK    1  A    between atoms: C_2  and  C_3
REMARK    2  A    between atoms: C_3  and  N_4
REMARK    3  A    between atoms: N_4  and  C_5
REMARK    4  A    between atoms: N_4  and  S_11
REMARK    5  A    between atoms: S_11  and  C_14
REMARK    6  A    between atoms: N_21  and  C_22
REMARK    7  A    between atoms: C_22  and  C_23
REMARK                            x       y       z     vdW  Elec       q    Type
REMARK                         _______ _______ _______ _____ _____    ______ ____
ROOT
ATOM      1  N   UNL     1       3.696   5.602  17.966  0.00  0.00    +0.000 N 
ENDROOT
BRANCH   1   2
ATOM      2  C   UNL     1       5.101   5.871  18.093  0.00  0.00    +0.000 A 
ATOM      3  C   UNL     1       5.752   5.415  19.243  0.00  0.00    +0.000 A 
ATOM      4  C   UNL     1       7.117   5.643  19.415  0.00  0.00    +0.000 A 
ATOM      5  C   UNL     1       7.830   6.342  18.444  0.00  0.00    +0.000 A 
ATOM      6  C   UNL     1       7.181   6.811  17.301  0.00  0.00    +0.000 A 
ATOM      7  C   UNL     1       5.814   6.576  17.122  0.00  0.00    +0.000 A 
ENDBRANCH   1   2
BRANCH   1   8
ATOM      8  S   UNL     1       3.234   4.018  17.572  0.00  0.00    +0.000 S 
ATOM      9  O   UNL     1       2.147   4.100  16.617  0.00  0.00    +0.000 OA
ATOM     10  O   UNL     1       4.425   3.259  17.243  0.00  0.00    +0.000 OA
BRANCH   8  11
ATOM     11  C   UNL     1       2.553   3.287  19.062  0.00  0.00    +0.000 A 
ATOM     12  C   UNL     1       3.403   2.980  20.134  0.00  0.00    +0.000 A 
ATOM     13  C   UNL     1       2.855   2.632  21.378  0.00  0.00    +0.000 A 
ATOM     14  C   UNL     1       1.474   2.617  21.545  0.00  0.00    +0.000 A 
ATOM     15  F   UNL     1       0.956   2.337  22.748  0.00  0.00    +0.000 F 
ATOM     16  C   UNL     1       0.624   2.922  20.488  0.00  0.00    +0.000 A 
ATOM     17  C   UNL     1       1.162   3.260  19.241  0.00  0.00    +0.000 A 
ENDBRANCH   8  11
ENDBRANCH   1   8
BRANCH   1  18
ATOM     18  C   UNL     1       2.752   6.444  18.734  0.00  0.00    +0.000 C 
BRANCH  18  20
ATOM     19  O   UNL     1       2.879   8.051  16.940  0.00  0.00    +0.000 OA
ATOM     20  C   UNL     1       2.483   7.799  18.078  0.00  0.00    +0.000 C 
ATOM     21  N   UNL     1       1.841   8.740  18.855  0.00  0.00    +0.000 N 
ATOM     22  H   UNL     1       1.685   8.538  19.835  0.00  0.00    +0.000 HD
BRANCH  21  23
ATOM     23  C   UNL     1       1.598  10.076  18.356  0.00  0.00    +0.000 C 
BRANCH  23  24
ATOM     24  C   UNL     1       0.132  10.374  18.404  0.00  0.00    +0.000 A 
ATOM     25  C   UNL     1      -0.898   9.744  17.728  0.00  0.00    +0.000 A 
ATOM     26  C   UNL     1      -2.171  10.329  18.001  0.00  0.00    +0.000 A 
ATOM     27  C   UNL     1      -2.071  11.385  18.879  0.00  0.00    +0.000 A 
ATOM     28  S   UNL     1      -0.456  11.665  19.369  0.00  0.00    +0.000 S 
ENDBRANCH  23  24
ENDBRANCH  21  23
ENDBRANCH  18  20
ENDBRANCH   1  18
TORSDOF 7
ENDMDL
MODEL 5
REMARK VINA RESULT:      -7.6      1.157      1.577
REMARK  Name = 
REMARK  7 active torsions:
REMARK  status: ('A' for Active; 'I' for Inactive)
REMARK    1  A    between atoms: C_2  and  C_3
REMARK    2  A    between atoms: C_3  and  N_4
REMARK    3  A    between atoms: N_4  and  C_5
REMARK    4  A    between atoms: N_4  and  S_11
REMARK    5  A    between atoms: S_11  and  C_14
REMARK    6  A    between atoms: N_21  and  C_22
REMARK    7  A    between atoms: C_22  and  C_23
REMARK                            x       y       z     vdW  Elec       q    Type
REMARK                         _______ _______ _______ _____ _____    ______ ____
ROOT
ATOM      1  N   UNL     1       3.097   6.398  18.475  0.00  0.00    +0.000 N 
ENDROOT
BRANCH   1   2
ATOM      2  C   UNL     1       2.353   5.251  18.914  0.00  0.00    +0.000 A 
ATOM      3  C   UNL     1       1.932   4.335  17.945  0.00  0.00    +0.000 A 
ATOM      4  C   UNL     1       1.212   3.201  18.317  0.00  0.00    +0.000 A 
ATOM      5  C   UNL     1       0.896   2.988  19.656  0.00  0.00    +0.000 A 
ATOM      6  C   UNL     1       1.302   3.907  20.625  0.00  0.00    +0.000 A 
ATOM      7  C   UNL     1       2.031   5.041  20.257  0.00  0.00    +0.000 A 
ENDBRANCH   1   2
BRANCH   1   8
ATOM      8  S   UNL     1       4.771   6.214  18.267  0.00  0.00    +0.000 S 
ATOM      9  O   UNL     1       5.342   7.535  18.098  0.00  0.00    +0.000 OA
ATOM     10  O   UNL     1       5.271   5.343  19.312  0.00  0.00    +0.000 OA
BRANCH   8  11
ATOM     11  C   UNL     1       5.011   5.348  16.715  0.00  0.00    +0.000 A 
ATOM     12  C   UNL     1       5.246   6.079  15.543  0.00  0.00    +0.000 A 
ATOM     13  C   UNL     1       5.666   5.414  14.381  0.00  0.00    +0.000 A 
ATOM     14  C   UNL     1       5.868   4.037  14.407  0.00  0.00    +0.000 A 
ATOM     15  F   UNL     1       6.320   3.415  13.311  0.00  0.00    +0.000 F 
ATOM     16  C   UNL     1       5.639   3.305  15.566  0.00  0.00    +0.000 A 
ATOM     17  C   UNL     1       5.210   3.959  16.727  0.00  0.00    +0.000 A 
ENDBRANCH   8  11
ENDBRANCH   1   8
BRANCH   1  18
ATOM     18  C   UNL     1       2.392   7.421  17.671  0.00  0.00    +0.000 C 
BRANCH  18  20
ATOM     19  O   UNL     1       1.736   8.466  19.743  0.00  0.00    +0.000 OA
ATOM     20  C   UNL     1       1.800   8.550  18.516  0.00  0.00    +0.000 C 
ATOM     21  N   UNL     1       1.281   9.625  17.827  0.00  0.00    +0.000 N 
ATOM     22  H   UNL     1       1.211   9.569  16.819  0.00  0.00    +0.000 HD
BRANCH  21  23
ATOM     23  C   UNL     1       0.636  10.715  18.526  0.00  0.00    +0.000 C 
BRANCH  23  24
ATOM     24  C   UNL     1      -0.832  10.703  18.232  0.00  0.00    +0.000 A 
ATOM     25  C   UNL     1      -1.536   9.860  17.390  0.00  0.00    +0.000 A 
ATOM     26  C   UNL     1      -2.928  10.174  17.339  0.00  0.00    +0.000 A 
ATOM     27  C   UNL     1      -3.241  11.244  18.147  0.00  0.00    +0.000 A 
ATOM     28  S   UNL     1      -1.868  11.862  18.958  0.00  0.00    +0.000 S 
ENDBRANCH  23  24
ENDBRANCH  21  23
ENDBRANCH  18  20
ENDBRANCH   1  18
TORSDOF 7
ENDMDL
MODEL 6
REMARK VINA RESULT:      -7.5      1.973      2.457
REMARK  Name = 
REMARK  7 active torsions:
REMARK  status: ('A' for Active; 'I' for Inactive)
REMARK    1  A    between atoms: C_2  and  C_3
REMARK    2  A    between atoms: C_3  and  N_4
REMARK    3  A    between atoms: N_4  and  C_5
REMARK    4  A    between atoms: N_4  and  S_11
REMARK    5  A    between atoms: S_11  and  C_14
REMARK    6  A    between atoms: N_21  and  C_22
REMARK    7  A    between atoms: C_22  and  C_23
REMARK                            x       y       z     vdW  Elec       q    Type
REMARK                         _______ _______ _______ _____ _____    ______ ____
ROOT
ATOM      1  N   UNL     1       3.152   4.899  18.379  0.00  0.00    +0.000 N 
ENDROOT
BRANCH   1   2
ATOM      2  C   UNL     1       2.477   4.154  19.403  0.00  0.00    +0.000 A 
ATOM      3  C   UNL     1       2.922   4.301  20.720  0.00  0.00    +0.000 A 
ATOM      4  C   UNL     1       2.298   3.606  21.755  0.00  0.00    +0.000 A 
ATOM      5  C   UNL     1       1.238   2.748  21.473  0.00  0.00    +0.000 A 
ATOM      6  C   UNL     1       0.799   2.587  20.158  0.00  0.00    +0.000 A 
ATOM      7  C   UNL     1       1.417   3.289  19.120  0.00  0.00    +0.000 A 
ENDBRANCH   1   2
BRANCH   1   8
ATOM      8  S   UNL     1       4.437   4.138  17.574  0.00  0.00    +0.000 S 
ATOM      9  O   UNL     1       4.736   2.910  18.282  0.00  0.00    +0.000 OA
ATOM     10  O   UNL     1       4.132   4.096  16.158  0.00  0.00    +0.000 OA
BRANCH   8  11
ATOM     11  C   UNL     1       5.871   5.200  17.760  0.00  0.00    +0.000 A 
ATOM     12  C   UNL     1       5.957   6.385  17.017  0.00  0.00    +0.000 A 
ATOM     13  C   UNL     1       6.948   7.329  17.326  0.00  0.00    +0.000 A 
ATOM     14  C   UNL     1       7.823   7.093  18.382  0.00  0.00    +0.000 A 
ATOM     15  F   UNL     1       8.732   8.020  18.707  0.00  0.00    +0.000 F 
ATOM     16  C   UNL     1       7.743   5.920  19.125  0.00  0.00    +0.000 A 
ATOM     17  C   UNL     1       6.764   4.969  18.817  0.00  0.00    +0.000 A 
ENDBRANCH   8  11
ENDBRANCH   1   8
BRANCH   1  18
ATOM     18  C   UNL     1       2.392   5.950  17.665  0.00  0.00    +0.000 C 
BRANCH  18  20
ATOM     19  O   UNL     1       2.853   7.450  19.496  0.00  0.00    +0.000 OA
ATOM     20  C   UNL     1       2.505   7.326  18.322  0.00  0.00    +0.000 C 
ATOM     21  N   UNL     1       2.126   8.405  17.552  0.00  0.00    +0.000 N 
ATOM     22  H   UNL     1       1.692   8.235  16.654  0.00  0.00    +0.000 HD
BRANCH  21  23
ATOM     23  C   UNL     1       2.127   9.745  18.099  0.00  0.00    +0.000 C 
BRANCH  23  24
ATOM     24  C   UNL     1       0.743  10.113  18.535  0.00  0.00    +0.000 A 
ATOM     25  C   UNL     1      -0.451   9.927  17.862  0.00  0.00    +0.000 A 
ATOM     26  C   UNL     1      -1.572  10.439  18.582  0.00  0.00    +0.000 A 
ATOM     27  C   UNL     1      -1.197  10.998  19.783  0.00  0.00    +0.000 A 
ATOM     28  S   UNL     1       0.492  10.903  20.037  0.00  0.00    +0.000 S 
ENDBRANCH  23  24
ENDBRANCH  21  23
ENDBRANCH  18  20
ENDBRANCH   1  18
TORSDOF 7
ENDMDL
MODEL 7
REMARK VINA RESULT:      -7.5      1.929      2.543
REMARK  Name = 
REMARK  7 active torsions:
REMARK  status: ('A' for Active; 'I' for Inactive)
REMARK    1  A    between atoms: C_2  and  C_3
REMARK    2  A    between atoms: C_3  and  N_4
REMARK    3  A    between atoms: N_4  and  C_5
REMARK    4  A    between atoms: N_4  and  S_11
REMARK    5  A    between atoms: S_11  and  C_14
REMARK    6  A    between atoms: N_21  and  C_22
REMARK    7  A    between atoms: C_22  and  C_23
REMARK                            x       y       z     vdW  Elec       q    Type
REMARK                         _______ _______ _______ _____ _____    ______ ____
ROOT
ATOM      1  N   UNL     1       3.236   5.224  18.292  0.00  0.00    +0.000 N 
ENDROOT
BRANCH   1   2
ATOM      2  C   UNL     1       2.536   4.458  19.285  0.00  0.00    +0.000 A 
ATOM      3  C   UNL     1       1.430   3.709  18.872  0.00  0.00    +0.000 A 
ATOM      4  C   UNL     1       0.717   2.943  19.793  0.00  0.00    +0.000 A 
ATOM      5  C   UNL     1       1.099   2.936  21.132  0.00  0.00    +0.000 A 
ATOM      6  C   UNL     1       2.194   3.693  21.552  0.00  0.00    +0.000 A 
ATOM      7  C   UNL     1       2.915   4.456  20.629  0.00  0.00    +0.000 A 
ENDBRANCH   1   2
BRANCH   1   8
ATOM      8  S   UNL     1       4.510   4.463  17.471  0.00  0.00    +0.000 S 
ATOM      9  O   UNL     1       4.774   3.203  18.136  0.00  0.00    +0.000 OA
ATOM     10  O   UNL     1       4.218   4.480  16.052  0.00  0.00    +0.000 OA
BRANCH   8  11
ATOM     11  C   UNL     1       5.967   5.483  17.709  0.00  0.00    +0.000 A 
ATOM     12  C   UNL     1       6.076   6.705  17.030  0.00  0.00    +0.000 A 
ATOM     13  C   UNL     1       7.087   7.610  17.385  0.00  0.00    +0.000 A 
ATOM     14  C   UNL     1       7.959   7.299  18.424  0.00  0.00    +0.000 A 
ATOM     15  F   UNL     1       8.889   8.188  18.795  0.00  0.00    +0.000 F 
ATOM     16  C   UNL     1       7.857   6.090  19.103  0.00  0.00    +0.000 A 
ATOM     17  C   UNL     1       6.858   5.177  18.748  0.00  0.00    +0.000 A 
ENDBRANCH   8  11
ENDBRANCH   1   8
BRANCH   1  18
ATOM     18  C   UNL     1       2.506   6.316  17.611  0.00  0.00    +0.000 C 
BRANCH  18  20
ATOM     19  O   UNL     1       2.428   7.511  19.704  0.00  0.00    +0.000 OA
ATOM     20  C   UNL     1       2.345   7.566  18.477  0.00  0.00    +0.000 C 
ATOM     21  N   UNL     1       2.032   8.734  17.815  0.00  0.00    +0.000 N 
ATOM     22  H   UNL     1       1.814   8.691  16.828  0.00  0.00    +0.000 HD
BRANCH  21  23
ATOM     23  C   UNL     1       1.790   9.960  18.545  0.00  0.00    +0.000 C 
BRANCH  23  24
ATOM     24  C   UNL     1       0.357  10.364  18.390  0.00  0.00    +0.000 A 
ATOM     25  C   UNL     1      -0.668   9.680  17.761  0.00  0.00    +0.000 A 
ATOM     26  C   UNL     1      -1.902  10.399  17.785  0.00  0.00    +0.000 A 
ATOM     27  C   UNL     1      -1.777  11.608  18.433  0.00  0.00    +0.000 A 
ATOM     28  S   UNL     1      -0.187  11.869  19.007  0.00  0.00    +0.000 S 
ENDBRANCH  23  24
ENDBRANCH  21  23
ENDBRANCH  18  20
ENDBRANCH   1  18
TORSDOF 7
ENDMDL
MODEL 8
REMARK VINA RESULT:      -7.5      1.449      2.160
REMARK  Name = 
REMARK  7 active torsions:
REMARK  status: ('A' for Active; 'I' for Inactive)
REMARK    1  A    between atoms: C_2  and  C_3
REMARK    2  A    between atoms: C_3  and  N_4
REMARK    3  A    between atoms: N_4  and  C_5
REMARK    4  A    between atoms: N_4  and  S_11
REMARK    5  A    between atoms: S_11  and  C_14
REMARK    6  A    between atoms: N_21  and  C_22
REMARK    7  A    between atoms: C_22  and  C_23
REMARK                            x       y       z     vdW  Elec       q    Type
REMARK                         _______ _______ _______ _____ _____    ______ ____
ROOT
ATOM      1  N   UNL     1       3.959   5.485  18.789  0.00  0.00    +0.000 N 
ENDROOT
BRANCH   1   2
ATOM      2  C   UNL     1       2.809   4.681  19.095  0.00  0.00    +0.000 A 
ATOM      3  C   UNL     1       2.235   4.817  20.362  0.00  0.00    +0.000 A 
ATOM      4  C   UNL     1       1.113   4.066  20.710  0.00  0.00    +0.000 A 
ATOM      5  C   UNL     1       0.573   3.163  19.797  0.00  0.00    +0.000 A 
ATOM      6  C   UNL     1       1.152   3.014  18.536  0.00  0.00    +0.000 A 
ATOM      7  C   UNL     1       2.271   3.772  18.181  0.00  0.00    +0.000 A 
ENDBRANCH   1   2
BRANCH   1   8
ATOM      8  S   UNL     1       5.484   4.756  18.929  0.00  0.00    +0.000 S 
ATOM      9  O   UNL     1       6.362   5.696  19.596  0.00  0.00    +0.000 OA
ATOM     10  O   UNL     1       5.310   3.424  19.473  0.00  0.00    +0.000 OA
BRANCH   8  11
ATOM     11  C   UNL     1       6.120   4.553  17.264  0.00  0.00    +0.000 A 
ATOM     12  C   UNL     1       5.424   3.751  16.350  0.00  0.00    +0.000 A 
ATOM     13  C   UNL     1       5.779   3.774  14.993  0.00  0.00    +0.000 A 
ATOM     14  C   UNL     1       6.803   4.611  14.561  0.00  0.00    +0.000 A 
ATOM     15  F   UNL     1       7.103   4.670  13.257  0.00  0.00    +0.000 F 
ATOM     16  C   UNL     1       7.498   5.411  15.461  0.00  0.00    +0.000 A 
ATOM     17  C   UNL     1       7.156   5.386  16.818  0.00  0.00    +0.000 A 
ENDBRANCH   8  11
ENDBRANCH   1   8
BRANCH   1  18
ATOM     18  C   UNL     1       3.793   6.604  17.834  0.00  0.00    +0.000 C 
BRANCH  18  20
ATOM     19  O   UNL     1       1.407   6.832  17.567  0.00  0.00    +0.000 OA
ATOM     20  C   UNL     1       2.454   7.329  17.982  0.00  0.00    +0.000 C 
ATOM     21  N   UNL     1       2.499   8.591  18.535  0.00  0.00    +0.000 N 
ATOM     22  H   UNL     1       3.401   9.016  18.706  0.00  0.00    +0.000 HD
BRANCH  21  23
ATOM     23  C   UNL     1       1.300   9.391  18.657  0.00  0.00    +0.000 C 
BRANCH  23  24
ATOM     24  C   UNL     1       0.878   9.451  20.092  0.00  0.00    +0.000 A 
ATOM     25  C   UNL     1       1.257   8.628  21.137  0.00  0.00    +0.000 A 
ATOM     26  C   UNL     1       0.618   8.972  22.367  0.00  0.00    +0.000 A 
ATOM     27  C   UNL     1      -0.227  10.049  22.219  0.00  0.00    +0.000 A 
ATOM     28  S   UNL     1      -0.246  10.638  20.613  0.00  0.00    +0.000 S 
ENDBRANCH  23  24
ENDBRANCH  21  23
ENDBRANCH  18  20
ENDBRANCH   1  18
TORSDOF 7
ENDMDL
MODEL 9
REMARK VINA RESULT:      -7.5      1.137      1.799
REMARK  Name = 
REMARK  7 active torsions:
REMARK  status: ('A' for Active; 'I' for Inactive)
REMARK    1  A    between atoms: C_2  and  C_3
REMARK    2  A    between atoms: C_3  and  N_4
REMARK    3  A    between atoms: N_4  and  C_5
REMARK    4  A    between atoms: N_4  and  S_11
REMARK    5  A    between atoms: S_11  and  C_14
REMARK    6  A    between atoms: N_21  and  C_22
REMARK    7  A    between atoms: C_22  and  C_23
REMARK                            x       y       z     vdW  Elec       q    Type
REMARK                         _______ _______ _______ _____ _____    ______ ____
ROOT
ATOM      1  N   UNL     1       3.745   5.054  18.734  0.00  0.00    +0.000 N 
ENDROOT
BRANCH   1   2
ATOM      2  C   UNL     1       2.739   4.293  19.420  0.00  0.00    +0.000 A 
ATOM      3  C   UNL     1       1.906   3.472  18.655  0.00  0.00    +0.000 A 
ATOM      4  C   UNL     1       0.916   2.707  19.271  0.00  0.00    +0.000 A 
ATOM      5  C   UNL     1       0.747   2.774  20.651  0.00  0.00    +0.000 A 
ATOM      6  C   UNL     1       1.568   3.602  21.418  0.00  0.00    +0.000 A 
ATOM      7  C   UNL     1       2.567   4.365  20.804  0.00  0.00    +0.000 A 
ENDBRANCH   1   2
BRANCH   1   8
ATOM      8  S   UNL     1       5.359   4.561  18.912  0.00  0.00    +0.000 S 
ATOM      9  O   UNL     1       6.063   5.607  19.627  0.00  0.00    +0.000 OA
ATOM     10  O   UNL     1       5.371   3.206  19.425  0.00  0.00    +0.000 OA
BRANCH   8  11
ATOM     11  C   UNL     1       6.070   4.497  17.267  0.00  0.00    +0.000 A 
ATOM     12  C   UNL     1       5.500   3.658  16.298  0.00  0.00    +0.000 A 
ATOM     13  C   UNL     1       5.896   3.775  14.957  0.00  0.00    +0.000 A 
ATOM     14  C   UNL     1       6.834   4.738  14.595  0.00  0.00    +0.000 A 
ATOM     15  F   UNL     1       7.169   4.882  13.307  0.00  0.00    +0.000 F 
ATOM     16  C   UNL     1       7.402   5.574  15.549  0.00  0.00    +0.000 A 
ATOM     17  C   UNL     1       7.020   5.457  16.890  0.00  0.00    +0.000 A 
ENDBRANCH   8  11
ENDBRANCH   1   8
BRANCH   1  18
ATOM     18  C   UNL     1       3.357   5.771  17.498  0.00  0.00    +0.000 C 
BRANCH  18  20
ATOM     19  O   UNL     1       4.540   7.868  17.624  0.00  0.00    +0.000 OA
ATOM     20  C   UNL     1       3.453   7.292  17.628  0.00  0.00    +0.000 C 
ATOM     21  N   UNL     1       2.266   7.966  17.822  0.00  0.00    +0.000 N 
ATOM     22  H   UNL     1       1.422   7.431  17.983  0.00  0.00    +0.000 HD
BRANCH  21  23
ATOM     23  C   UNL     1       2.250   9.398  18.026  0.00  0.00    +0.000 C 
BRANCH  23  24
ATOM     24  C   UNL     1       0.912   9.818  18.552  0.00  0.00    +0.000 A 
ATOM     25  C   UNL     1      -0.291   9.903  17.875  0.00  0.00    +0.000 A 
ATOM     26  C   UNL     1      -1.353  10.377  18.703  0.00  0.00    +0.000 A 
ATOM     27  C   UNL     1      -0.925  10.636  19.986  0.00  0.00    +0.000 A 
ATOM     28  S   UNL     1       0.742  10.308  20.186  0.00  0.00    +0.000 S 
ENDBRANCH  23  24
ENDBRANCH  21  23
ENDBRANCH  18  20
ENDBRANCH   1  18
TORSDOF 7
ENDMDL
