MODEL 1
REMARK VINA RESULT:      -6.4      0.000      0.000
REMARK  Name = 
REMARK  8 active torsions:
REMARK  status: ('A' for Active; 'I' for Inactive)
REMARK    1  A    between atoms: C_2  and  C_3
REMARK    2  A    between atoms: C_3  and  N_4
REMARK    3  A    between atoms: N_4  and  C_5
REMARK    4  A    between atoms: N_4  and  C_8
REMARK    5  A    between atoms: C_5  and  C_6
REMARK    6  A    between atoms: C_8  and  C_9
REMARK    7  A    between atoms: C_9  and  O_10
REMARK    8  A    between atoms: O_10  and  C_11
REMARK                            x       y       z     vdW  Elec       q    Type
REMARK                         _______ _______ _______ _____ _____    ______ ____
ROOT
ATOM      1  C   UNL     1       4.789   3.990  17.974  0.00  0.00    +0.000 C 
ENDROOT
BRANCH   1   2
ATOM      2  C   UNL     1       5.233   4.205  16.518  0.00  0.00    +0.000 C 
BRANCH   2   3
ATOM      3  N   UNL     1       6.701   4.319  16.322  0.00  0.00    +0.000 NA
BRANCH   3   4
ATOM      4  C   UNL     1       6.981   4.641  14.915  0.00  0.00    +0.000 C 
BRANCH   4   6
ATOM      5  C   UNL     1       6.383   3.710  12.657  0.00  0.00    +0.000 C 
ATOM      6  C   UNL     1       6.066   3.955  13.939  0.00  0.00    +0.000 C 
ENDBRANCH   4   6
ENDBRANCH   3   4
BRANCH   3   7
ATOM      7  C   UNL     1       7.344   5.236  17.279  0.00  0.00    +0.000 C 
BRANCH   7   8
ATOM      8  C   UNL     1       7.036   6.695  17.084  0.00  0.00    +0.000 C 
ATOM      9  C   UNL     1       7.725   7.703  17.634  0.00  0.00    +0.000 C 
ENDBRANCH   7   8
ENDBRANCH   3   7
ENDBRANCH   2   3
ENDBRANCH   1   2
BRANCH   1  10
ATOM     10  O   UNL     1       3.758   2.998  18.039  0.00  0.00    +0.000 OA
BRANCH  10  11
ATOM     11  C   UNL     1       3.011   2.999  19.193  0.00  0.00    +0.000 A 
ATOM     12  C   UNL     1       1.717   3.513  19.051  0.00  0.00    +0.000 A 
ATOM     13  C   UNL     1       0.841   3.551  20.143  0.00  0.00    +0.000 A 
ATOM     14  C   UNL     1       1.251   3.080  21.387  0.00  0.00    +0.000 A 
ATOM     15  C   UNL     1       2.540   2.579  21.545  0.00  0.00    +0.000 A 
ATOM     16  C   UNL     1       3.409   2.545  20.457  0.00  0.00    +0.000 A 
ATOM     17  F   UNL     1       4.639   2.055  20.680  0.00  0.00    +0.000 F 
ENDBRANCH  10  11
ENDBRANCH   1  10
TORSDOF 8
ENDMDL
MODEL 2
REMARK VINA RESULT:      -6.3      1.255      3.299
REMARK  Name = 
REMARK  8 active torsions:
REMARK  status: ('A' for Active; 'I' for Inactive)
REMARK    1  A    between atoms: C_2  and  C_3
REMARK    2  A    between atoms: C_3  and  N_4
REMARK    3  A    between atoms: N_4  and  C_5
REMARK    4  A    between atoms: N_4  and  C_8
REMARK    5  A    between atoms: C_5  and  C_6
REMARK    6  A    between atoms: C_8  and  C_9
REMARK    7  A    between atoms: C_9  and  O_10
REMARK    8  A    between atoms: O_10  and  C_11
REMARK                            x       y       z     vdW  Elec       q    Type
REMARK                         _______ _______ _______ _____ _____    ______ ____
ROOT
ATOM      1  C   UNL     1       4.872   3.927  17.942  0.00  0.00    +0.000 C 
ENDROOT
BRANCH   1   2
ATOM      2  C   UNL     1       5.143   4.248  16.464  0.00  0.00    +0.000 C 
BRANCH   2   3
ATOM      3  N   UNL     1       6.352   5.073  16.213  0.00  0.00    +0.000 NA
BRANCH   3   4
ATOM      4  C   UNL     1       7.347   4.813  17.264  0.00  0.00    +0.000 C 
BRANCH   4   6
ATOM      5  C   UNL     1       7.676   7.253  17.776  0.00  0.00    +0.000 C 
ATOM      6  C   UNL     1       7.577   5.979  18.186  0.00  0.00    +0.000 C 
ENDBRANCH   4   6
ENDBRANCH   3   4
BRANCH   3   7
ATOM      7  C   UNL     1       6.882   4.924  14.847  0.00  0.00    +0.000 C 
BRANCH   7   8
ATOM      8  C   UNL     1       6.285   3.804  14.039  0.00  0.00    +0.000 C 
ATOM      9  C   UNL     1       6.363   3.694  12.707  0.00  0.00    +0.000 C 
ENDBRANCH   7   8
ENDBRANCH   3   7
ENDBRANCH   2   3
ENDBRANCH   1   2
BRANCH   1  10
ATOM     10  O   UNL     1       3.891   2.890  18.055  0.00  0.00    +0.000 OA
BRANCH  10  11
ATOM     11  C   UNL     1       2.990   3.041  19.082  0.00  0.00    +0.000 A 
ATOM     12  C   UNL     1       3.430   2.562  20.322  0.00  0.00    +0.000 A 
ATOM     13  C   UNL     1       2.619   2.675  21.458  0.00  0.00    +0.000 A 
ATOM     14  C   UNL     1       1.361   3.264  21.366  0.00  0.00    +0.000 A 
ATOM     15  C   UNL     1       0.907   3.731  20.137  0.00  0.00    +0.000 A 
ATOM     16  C   UNL     1       1.714   3.616  19.008  0.00  0.00    +0.000 A 
ATOM     17  F   UNL     1       1.212   4.083  17.853  0.00  0.00    +0.000 F 
ENDBRANCH  10  11
ENDBRANCH   1  10
TORSDOF 8
ENDMDL
MODEL 3
REMARK VINA RESULT:      -6.3      1.755      2.105
REMARK  Name = 
REMARK  8 active torsions:
REMARK  status: ('A' for Active; 'I' for Inactive)
REMARK    1  A    between atoms: C_2  and  C_3
REMARK    2  A    between atoms: C_3  and  N_4
REMARK    3  A    between atoms: N_4  and  C_5
REMARK    4  A    between atoms: N_4  and  C_8
REMARK    5  A    between atoms: C_5  and  C_6
REMARK    6  A    between atoms: C_8  and  C_9
REMARK    7  A    between atoms: C_9  and  O_10
REMARK    8  A    between atoms: O_10  and  C_11
REMARK                            x       y       z     vdW  Elec       q    Type
REMARK                         _______ _______ _______ _____ _____    ______ ____
ROOT
ATOM      1  C   UNL     1       4.072   6.064  18.323  0.00  0.00    +0.000 C 
ENDROOT
BRANCH   1   2
ATOM      2  C   UNL     1       5.294   5.312  18.874  0.00  0.00    +0.000 C 
BRANCH   2   3
ATOM      3  N   UNL     1       6.120   4.623  17.850  0.00  0.00    +0.000 NA
BRANCH   3   4
ATOM      4  C   UNL     1       5.442   4.695  16.547  0.00  0.00    +0.000 C 
BRANCH   4   6
ATOM      5  C   UNL     1       6.139   4.121  14.200  0.00  0.00    +0.000 C 
ATOM      6  C   UNL     1       6.038   3.797  15.499  0.00  0.00    +0.000 C 
ENDBRANCH   4   6
ENDBRANCH   3   4
BRANCH   3   7
ATOM      7  C   UNL     1       7.515   5.093  17.818  0.00  0.00    +0.000 C 
BRANCH   7   8
ATOM      8  C   UNL     1       7.737   6.496  18.313  0.00  0.00    +0.000 C 
ATOM      9  C   UNL     1       7.649   7.598  17.557  0.00  0.00    +0.000 C 
ENDBRANCH   7   8
ENDBRANCH   3   7
ENDBRANCH   2   3
ENDBRANCH   1   2
BRANCH   1  10
ATOM     10  O   UNL     1       3.028   6.102  19.303  0.00  0.00    +0.000 OA
BRANCH  10  11
ATOM     11  C   UNL     1       2.290   4.949  19.423  0.00  0.00    +0.000 A 
ATOM     12  C   UNL     1       1.857   4.403  18.209  0.00  0.00    +0.000 A 
ATOM     13  C   UNL     1       1.115   3.215  18.186  0.00  0.00    +0.000 A 
ATOM     14  C   UNL     1       0.798   2.563  19.374  0.00  0.00    +0.000 A 
ATOM     15  C   UNL     1       1.212   3.103  20.588  0.00  0.00    +0.000 A 
ATOM     16  C   UNL     1       1.947   4.285  20.608  0.00  0.00    +0.000 A 
ATOM     17  F   UNL     1       2.309   4.754  21.813  0.00  0.00    +0.000 F 
ENDBRANCH  10  11
ENDBRANCH   1  10
TORSDOF 8
ENDMDL
MODEL 4
REMARK VINA RESULT:      -6.3      1.951      3.665
REMARK  Name = 
REMARK  8 active torsions:
REMARK  status: ('A' for Active; 'I' for Inactive)
REMARK    1  A    between atoms: C_2  and  C_3
REMARK    2  A    between atoms: C_3  and  N_4
REMARK    3  A    between atoms: N_4  and  C_5
REMARK    4  A    between atoms: N_4  and  C_8
REMARK    5  A    between atoms: C_5  and  C_6
REMARK    6  A    between atoms: C_8  and  C_9
REMARK    7  A    between atoms: C_9  and  O_10
REMARK    8  A    between atoms: O_10  and  C_11
REMARK                            x       y       z     vdW  Elec       q    Type
REMARK                         _______ _______ _______ _____ _____    ______ ____
ROOT
ATOM      1  C   UNL     1       4.433   5.683  17.767  0.00  0.00    +0.000 C 
ENDROOT
BRANCH   1   2
ATOM      2  C   UNL     1       5.020   6.672  16.747  0.00  0.00    +0.000 C 
BRANCH   2   3
ATOM      3  N   UNL     1       6.425   6.401  16.348  0.00  0.00    +0.000 NA
BRANCH   3   4
ATOM      4  C   UNL     1       7.325   6.766  17.452  0.00  0.00    +0.000 C 
BRANCH   4   6
ATOM      5  C   UNL     1       8.484   8.781  18.411  0.00  0.00    +0.000 C 
ATOM      6  C   UNL     1       7.694   8.224  17.480  0.00  0.00    +0.000 C 
ENDBRANCH   4   6
ENDBRANCH   3   4
BRANCH   3   7
ATOM      7  C   UNL     1       6.631   5.032  15.845  0.00  0.00    +0.000 C 
BRANCH   7   8
ATOM      8  C   UNL     1       5.805   4.653  14.646  0.00  0.00    +0.000 C 
ATOM      9  C   UNL     1       6.234   3.890  13.632  0.00  0.00    +0.000 C 
ENDBRANCH   7   8
ENDBRANCH   3   7
ENDBRANCH   2   3
ENDBRANCH   1   2
BRANCH   1  10
ATOM     10  O   UNL     1       3.022   5.887  17.903  0.00  0.00    +0.000 OA
BRANCH  10  11
ATOM     11  C   UNL     1       2.337   4.868  18.521  0.00  0.00    +0.000 A 
ATOM     12  C   UNL     1       1.914   5.155  19.825  0.00  0.00    +0.000 A 
ATOM     13  C   UNL     1       1.185   4.214  20.561  0.00  0.00    +0.000 A 
ATOM     14  C   UNL     1       0.873   2.977  20.004  0.00  0.00    +0.000 A 
ATOM     15  C   UNL     1       1.300   2.674  18.715  0.00  0.00    +0.000 A 
ATOM     16  C   UNL     1       2.027   3.611  17.986  0.00  0.00    +0.000 A 
ATOM     17  F   UNL     1       2.412   3.253  16.750  0.00  0.00    +0.000 F 
ENDBRANCH  10  11
ENDBRANCH   1  10
TORSDOF 8
ENDMDL
MODEL 5
REMARK VINA RESULT:      -6.3      1.664      2.141
REMARK  Name = 
REMARK  8 active torsions:
REMARK  status: ('A' for Active; 'I' for Inactive)
REMARK    1  A    between atoms: C_2  and  C_3
REMARK    2  A    between atoms: C_3  and  N_4
REMARK    3  A    between atoms: N_4  and  C_5
REMARK    4  A    between atoms: N_4  and  C_8
REMARK    5  A    between atoms: C_5  and  C_6
REMARK    6  A    between atoms: C_8  and  C_9
REMARK    7  A    between atoms: C_9  and  O_10
REMARK    8  A    between atoms: O_10  and  C_11
REMARK                            x       y       z     vdW  Elec       q    Type
REMARK                         _______ _______ _______ _____ _____    ______ ____
ROOT
ATOM      1  C   UNL     1       5.249   4.858  18.600  0.00  0.00    +0.000 C 
ENDROOT
BRANCH   1   2
ATOM      2  C   UNL     1       6.574   4.340  18.019  0.00  0.00    +0.000 C 
BRANCH   2   3
ATOM      3  N   UNL     1       7.418   5.373  17.366  0.00  0.00    +0.000 NA
BRANCH   3   4
ATOM      4  C   UNL     1       6.830   5.734  16.068  0.00  0.00    +0.000 C 
BRANCH   4   6
ATOM      5  C   UNL     1       5.927   4.120  14.364  0.00  0.00    +0.000 C 
ATOM      6  C   UNL     1       6.964   4.664  15.019  0.00  0.00    +0.000 C 
ENDBRANCH   4   6
ENDBRANCH   3   4
BRANCH   3   7
ATOM      7  C   UNL     1       7.692   6.531  18.234  0.00  0.00    +0.000 C 
BRANCH   7   8
ATOM      8  C   UNL     1       7.662   7.872  17.553  0.00  0.00    +0.000 C 
ATOM      9  C   UNL     1       8.224   8.988  18.034  0.00  0.00    +0.000 C 
ENDBRANCH   7   8
ENDBRANCH   3   7
ENDBRANCH   2   3
ENDBRANCH   1   2
BRANCH   1  10
ATOM     10  O   UNL     1       4.142   4.178  17.998  0.00  0.00    +0.000 OA
BRANCH  10  11
ATOM     11  C   UNL     1       3.137   3.809  18.861  0.00  0.00    +0.000 A 
ATOM     12  C   UNL     1       3.573   3.166  20.025  0.00  0.00    +0.000 A 
ATOM     13  C   UNL     1       2.655   2.758  21.001  0.00  0.00    +0.000 A 
ATOM     14  C   UNL     1       1.294   2.985  20.821  0.00  0.00    +0.000 A 
ATOM     15  C   UNL     1       0.846   3.611  19.661  0.00  0.00    +0.000 A 
ATOM     16  C   UNL     1       1.761   4.014  18.692  0.00  0.00    +0.000 A 
ATOM     17  F   UNL     1       1.262   4.607  17.596  0.00  0.00    +0.000 F 
ENDBRANCH  10  11
ENDBRANCH   1  10
TORSDOF 8
ENDMDL
MODEL 6
REMARK VINA RESULT:      -6.2      1.254      1.575
REMARK  Name = 
REMARK  8 active torsions:
REMARK  status: ('A' for Active; 'I' for Inactive)
REMARK    1  A    between atoms: C_2  and  C_3
REMARK    2  A    between atoms: C_3  and  N_4
REMARK    3  A    between atoms: N_4  and  C_5
REMARK    4  A    between atoms: N_4  and  C_8
REMARK    5  A    between atoms: C_5  and  C_6
REMARK    6  A    between atoms: C_8  and  C_9
REMARK    7  A    between atoms: C_9  and  O_10
REMARK    8  A    between atoms: O_10  and  C_11
REMARK                            x       y       z     vdW  Elec       q    Type
REMARK                         _______ _______ _______ _____ _____    ______ ____
ROOT
ATOM      1  C   UNL     1       5.318   4.397  19.154  0.00  0.00    +0.000 C 
ENDROOT
BRANCH   1   2
ATOM      2  C   UNL     1       5.047   4.605  17.656  0.00  0.00    +0.000 C 
BRANCH   2   3
ATOM      3  N   UNL     1       6.259   4.775  16.817  0.00  0.00    +0.000 NA
BRANCH   3   4
ATOM      4  C   UNL     1       5.863   5.188  15.463  0.00  0.00    +0.000 C 
BRANCH   4   6
ATOM      5  C   UNL     1       6.068   3.864  13.334  0.00  0.00    +0.000 C 
ATOM      6  C   UNL     1       6.636   4.507  14.367  0.00  0.00    +0.000 C 
ENDBRANCH   4   6
ENDBRANCH   3   4
BRANCH   3   7
ATOM      7  C   UNL     1       7.271   5.652  17.431  0.00  0.00    +0.000 C 
BRANCH   7   8
ATOM      8  C   UNL     1       7.055   7.127  17.231  0.00  0.00    +0.000 C 
ATOM      9  C   UNL     1       7.900   8.086  17.634  0.00  0.00    +0.000 C 
ENDBRANCH   7   8
ENDBRANCH   3   7
ENDBRANCH   2   3
ENDBRANCH   1   2
BRANCH   1  10
ATOM     10  O   UNL     1       4.799   3.134  19.584  0.00  0.00    +0.000 OA
BRANCH  10  11
ATOM     11  C   UNL     1       3.429   3.029  19.586  0.00  0.00    +0.000 A 
ATOM     12  C   UNL     1       2.784   3.821  20.544  0.00  0.00    +0.000 A 
ATOM     13  C   UNL     1       1.387   3.828  20.640  0.00  0.00    +0.000 A 
ATOM     14  C   UNL     1       0.622   3.043  19.782  0.00  0.00    +0.000 A 
ATOM     15  C   UNL     1       1.251   2.241  18.835  0.00  0.00    +0.000 A 
ATOM     16  C   UNL     1       2.641   2.235  18.744  0.00  0.00    +0.000 A 
ATOM     17  F   UNL     1       3.184   1.435  17.812  0.00  0.00    +0.000 F 
ENDBRANCH  10  11
ENDBRANCH   1  10
TORSDOF 8
ENDMDL
MODEL 7
REMARK VINA RESULT:      -6.2      1.756      2.010
REMARK  Name = 
REMARK  8 active torsions:
REMARK  status: ('A' for Active; 'I' for Inactive)
REMARK    1  A    between atoms: C_2  and  C_3
REMARK    2  A    between atoms: C_3  and  N_4
REMARK    3  A    between atoms: N_4  and  C_5
REMARK    4  A    between atoms: N_4  and  C_8
REMARK    5  A    between atoms: C_5  and  C_6
REMARK    6  A    between atoms: C_8  and  C_9
REMARK    7  A    between atoms: C_9  and  O_10
REMARK    8  A    between atoms: O_10  and  C_11
REMARK                            x       y       z     vdW  Elec       q    Type
REMARK                         _______ _______ _______ _____ _____    ______ ____
ROOT
ATOM      1  C   UNL     1       3.991   6.048  17.510  0.00  0.00    +0.000 C 
ENDROOT
BRANCH   1   2
ATOM      2  C   UNL     1       5.223   5.822  16.619  0.00  0.00    +0.000 C 
BRANCH   2   3
ATOM      3  N   UNL     1       6.000   4.594  16.923  0.00  0.00    +0.000 NA
BRANCH   3   4
ATOM      4  C   UNL     1       5.843   3.631  15.824  0.00  0.00    +0.000 C 
BRANCH   4   6
ATOM      5  C   UNL     1       6.233   3.844  13.349  0.00  0.00    +0.000 C 
ATOM      6  C   UNL     1       5.644   4.271  14.477  0.00  0.00    +0.000 C 
ENDBRANCH   4   6
ENDBRANCH   3   4
BRANCH   3   7
ATOM      7  C   UNL     1       7.404   4.869  17.273  0.00  0.00    +0.000 C 
BRANCH   7   8
ATOM      8  C   UNL     1       7.612   5.751  18.474  0.00  0.00    +0.000 C 
ATOM      9  C   UNL     1       7.985   7.036  18.426  0.00  0.00    +0.000 C 
ENDBRANCH   7   8
ENDBRANCH   3   7
ENDBRANCH   2   3
ENDBRANCH   1   2
BRANCH   1  10
ATOM     10  O   UNL     1       4.092   5.266  18.706  0.00  0.00    +0.000 OA
BRANCH  10  11
ATOM     11  C   UNL     1       2.990   4.502  19.005  0.00  0.00    +0.000 A 
ATOM     12  C   UNL     1       2.455   4.720  20.281  0.00  0.00    +0.000 A 
ATOM     13  C   UNL     1       1.317   4.024  20.705  0.00  0.00    +0.000 A 
ATOM     14  C   UNL     1       0.704   3.101  19.862  0.00  0.00    +0.000 A 
ATOM     15  C   UNL     1       1.234   2.865  18.597  0.00  0.00    +0.000 A 
ATOM     16  C   UNL     1       2.367   3.558  18.179  0.00  0.00    +0.000 A 
ATOM     17  F   UNL     1       2.829   3.278  16.949  0.00  0.00    +0.000 F 
ENDBRANCH  10  11
ENDBRANCH   1  10
TORSDOF 8
ENDMDL
MODEL 8
REMARK VINA RESULT:      -6.2      1.141      1.286
REMARK  Name = 
REMARK  8 active torsions:
REMARK  status: ('A' for Active; 'I' for Inactive)
REMARK    1  A    between atoms: C_2  and  C_3
REMARK    2  A    between atoms: C_3  and  N_4
REMARK    3  A    between atoms: N_4  and  C_5
REMARK    4  A    between atoms: N_4  and  C_8
REMARK    5  A    between atoms: C_5  and  C_6
REMARK    6  A    between atoms: C_8  and  C_9
REMARK    7  A    between atoms: C_9  and  O_10
REMARK    8  A    between atoms: O_10  and  C_11
REMARK                            x       y       z     vdW  Elec       q    Type
REMARK                         _______ _______ _______ _____ _____    ______ ____
ROOT
ATOM      1  C   UNL     1       3.677   5.716  17.806  0.00  0.00    +0.000 C 
ENDROOT
BRANCH   1   2
ATOM      2  C   UNL     1       4.984   5.899  17.018  0.00  0.00    +0.000 C 
BRANCH   2   3
ATOM      3  N   UNL     1       6.179   5.268  17.631  0.00  0.00    +0.000 NA
BRANCH   3   4
ATOM      4  C   UNL     1       6.846   4.415  16.637  0.00  0.00    +0.000 C 
BRANCH   4   6
ATOM      5  C   UNL     1       6.560   4.485  14.140  0.00  0.00    +0.000 C 
ATOM      6  C   UNL     1       6.066   4.239  15.364  0.00  0.00    +0.000 C 
ENDBRANCH   4   6
ENDBRANCH   3   4
BRANCH   3   7
ATOM      7  C   UNL     1       7.079   6.238  18.278  0.00  0.00    +0.000 C 
BRANCH   7   8
ATOM      8  C   UNL     1       7.511   7.394  17.418  0.00  0.00    +0.000 C 
ATOM      9  C   UNL     1       8.103   8.507  17.870  0.00  0.00    +0.000 C 
ENDBRANCH   7   8
ENDBRANCH   3   7
ENDBRANCH   2   3
ENDBRANCH   1   2
BRANCH   1  10
ATOM     10  O   UNL     1       3.258   4.347  17.765  0.00  0.00    +0.000 OA
BRANCH  10  11
ATOM     11  C   UNL     1       2.772   3.844  18.948  0.00  0.00    +0.000 A 
ATOM     12  C   UNL     1       1.401   4.044  19.149  0.00  0.00    +0.000 A 
ATOM     13  C   UNL     1       0.771   3.561  20.303  0.00  0.00    +0.000 A 
ATOM     14  C   UNL     1       1.505   2.877  21.267  0.00  0.00    +0.000 A 
ATOM     15  C   UNL     1       2.871   2.683  21.086  0.00  0.00    +0.000 A 
ATOM     16  C   UNL     1       3.495   3.166  19.939  0.00  0.00    +0.000 A 
ATOM     17  F   UNL     1       4.816   2.950  19.830  0.00  0.00    +0.000 F 
ENDBRANCH  10  11
ENDBRANCH   1  10
TORSDOF 8
ENDMDL
MODEL 9
REMARK VINA RESULT:      -6.2      1.543      3.278
REMARK  Name = 
REMARK  8 active torsions:
REMARK  status: ('A' for Active; 'I' for Inactive)
REMARK    1  A    between atoms: C_2  and  C_3
REMARK    2  A    between atoms: C_3  and  N_4
REMARK    3  A    between atoms: N_4  and  C_5
REMARK    4  A    between atoms: N_4  and  C_8
REMARK    5  A    between atoms: C_5  and  C_6
REMARK    6  A    between atoms: C_8  and  C_9
REMARK    7  A    between atoms: C_9  and  O_10
REMARK    8  A    between atoms: O_10  and  C_11
REMARK                            x       y       z     vdW  Elec       q    Type
REMARK                         _______ _______ _______ _____ _____    ______ ____
ROOT
ATOM      1  C   UNL     1       5.359   4.800  19.269  0.00  0.00    +0.000 C 
ENDROOT
BRANCH   1   2
ATOM      2  C   UNL     1       6.519   4.872  18.263  0.00  0.00    +0.000 C 
BRANCH   2   3
ATOM      3  N   UNL     1       6.176   5.481  16.953  0.00  0.00    +0.000 NA
BRANCH   3   4
ATOM      4  C   UNL     1       6.375   6.935  17.022  0.00  0.00    +0.000 C 
BRANCH   4   6
ATOM      5  C   UNL     1       8.062   8.616  17.828  0.00  0.00    +0.000 C 
ATOM      6  C   UNL     1       7.655   7.344  17.696  0.00  0.00    +0.000 C 
ENDBRANCH   4   6
ENDBRANCH   3   4
BRANCH   3   7
ATOM      7  C   UNL     1       6.865   4.842  15.818  0.00  0.00    +0.000 C 
BRANCH   7   8
ATOM      8  C   UNL     1       5.982   4.078  14.871  0.00  0.00    +0.000 C 
ATOM      9  C   UNL     1       6.234   3.893  13.569  0.00  0.00    +0.000 C 
ENDBRANCH   7   8
ENDBRANCH   3   7
ENDBRANCH   2   3
ENDBRANCH   1   2
BRANCH   1  10
ATOM     10  O   UNL     1       4.111   5.032  18.607  0.00  0.00    +0.000 OA
BRANCH  10  11
ATOM     11  C   UNL     1       3.064   4.251  19.034  0.00  0.00    +0.000 A 
ATOM     12  C   UNL     1       2.227   4.860  19.977  0.00  0.00    +0.000 A 
ATOM     13  C   UNL     1       1.108   4.184  20.479  0.00  0.00    +0.000 A 
ATOM     14  C   UNL     1       0.817   2.893  20.047  0.00  0.00    +0.000 A 
ATOM     15  C   UNL     1       1.648   2.271  19.121  0.00  0.00    +0.000 A 
ATOM     16  C   UNL     1       2.761   2.945  18.625  0.00  0.00    +0.000 A 
ATOM     17  F   UNL     1       3.524   2.286  17.738  0.00  0.00    +0.000 F 
ENDBRANCH  10  11
ENDBRANCH   1  10
TORSDOF 8
ENDMDL
