MODEL 1
REMARK VINA RESULT:      -9.4      0.000      0.000
REMARK  Name = 
REMARK  3 active torsions:
REMARK  status: ('A' for Active; 'I' for Inactive)
REMARK    1  A    between atoms: C_8  and  C_9
REMARK    2  A    between atoms: N_11  and  C_12
REMARK    3  A    between atoms: C_20  and  C_21
REMARK                            x       y       z     vdW  Elec       q    Type
REMARK                         _______ _______ _______ _____ _____    ______ ____
ROOT
ATOM      1  C   UNL     1       2.364   7.109  19.673  0.00  0.00    +0.000 A 
ATOM      2  N   UNL     1       2.012   8.376  19.955  0.00  0.00    +0.000 NA
ATOM      3  N   UNL     1       1.054   8.290  20.907  0.00  0.00    +0.000 N 
ATOM      4  C   UNL     1       0.804   6.985  21.249  0.00  0.00    +0.000 A 
ATOM      5  C   UNL     1       1.618   6.186  20.475  0.00  0.00    +0.000 A 
ENDROOT
BRANCH   1  13
ATOM      6  O   UNL     1       8.471   3.975  17.634  0.00  0.00    +0.000 OA
ATOM      7  C   UNL     1       7.488   4.649  17.344  0.00  0.00    +0.000 C 
ATOM      8  C   UNL     1       7.187   5.141  15.929  0.00  0.00    +0.000 C 
ATOM      9  O   UNL     1       6.341   6.270  15.753  0.00  0.00    +0.000 OA
ATOM     10  C   UNL     1       5.376   6.398  16.714  0.00  0.00    +0.000 A 
ATOM     11  C   UNL     1       4.326   7.271  16.443  0.00  0.00    +0.000 A 
ATOM     12  C   UNL     1       3.333   7.491  17.405  0.00  0.00    +0.000 A 
ATOM     13  C   UNL     1       3.381   6.839  18.649  0.00  0.00    +0.000 A 
ATOM     14  C   UNL     1       4.430   5.944  18.897  0.00  0.00    +0.000 A 
ATOM     15  C   UNL     1       5.433   5.750  17.948  0.00  0.00    +0.000 A 
ATOM     16  N   UNL     1       6.521   4.937  18.267  0.00  0.00    +0.000 N 
ATOM     17  H   UNL     1       6.643   4.565  19.199  0.00  0.00    +0.000 HD
ENDBRANCH   1  13
BRANCH   3  18
ATOM     18  C   UNL     1       0.437   9.456  21.445  0.00  0.00    +0.000 A 
ATOM     19  C   UNL     1      -0.338   9.358  22.613  0.00  0.00    +0.000 A 
ATOM     20  C   UNL     1      -0.952  10.496  23.148  0.00  0.00    +0.000 A 
ATOM     21  C   UNL     1      -0.801  11.729  22.516  0.00  0.00    +0.000 A 
ATOM     22 CL   UNL     1      -1.568  13.126  23.163  0.00  0.00    +0.000 Cl
ATOM     23  C   UNL     1      -0.034  11.838  21.359  0.00  0.00    +0.000 A 
ATOM     24  C   UNL     1       0.587  10.706  20.824  0.00  0.00    +0.000 A 
ENDBRANCH   3  18
BRANCH   5  25
ATOM     25  C   UNL     1       1.607   4.733  20.583  0.00  0.00    +0.000 A 
ATOM     26  C   UNL     1       0.925   3.956  19.633  0.00  0.00    +0.000 A 
ATOM     27  C   UNL     1       0.930   2.561  19.713  0.00  0.00    +0.000 A 
ATOM     28  C   UNL     1       1.633   1.925  20.732  0.00  0.00    +0.000 A 
ATOM     29  C   UNL     1       2.311   2.683  21.685  0.00  0.00    +0.000 A 
ATOM     30  C   UNL     1       2.279   4.079  21.623  0.00  0.00    +0.000 A 
ENDBRANCH   5  25
TORSDOF 3
ENDMDL
MODEL 2
REMARK VINA RESULT:      -9.2      0.115      1.273
REMARK  Name = 
REMARK  3 active torsions:
REMARK  status: ('A' for Active; 'I' for Inactive)
REMARK    1  A    between atoms: C_8  and  C_9
REMARK    2  A    between atoms: N_11  and  C_12
REMARK    3  A    between atoms: C_20  and  C_21
REMARK                            x       y       z     vdW  Elec       q    Type
REMARK                         _______ _______ _______ _____ _____    ______ ____
ROOT
ATOM      1  C   UNL     1       2.405   7.036  19.652  0.00  0.00    +0.000 A 
ATOM      2  N   UNL     1       2.055   8.303  19.934  0.00  0.00    +0.000 NA
ATOM      3  N   UNL     1       1.079   8.219  20.868  0.00  0.00    +0.000 N 
ATOM      4  C   UNL     1       0.815   6.914  21.198  0.00  0.00    +0.000 A 
ATOM      5  C   UNL     1       1.639   6.114  20.435  0.00  0.00    +0.000 A 
ENDROOT
BRANCH   1  13
ATOM      6  O   UNL     1       8.572   3.942  17.735  0.00  0.00    +0.000 OA
ATOM      7  C   UNL     1       7.586   4.603  17.424  0.00  0.00    +0.000 C 
ATOM      8  C   UNL     1       7.301   5.075  15.999  0.00  0.00    +0.000 C 
ATOM      9  O   UNL     1       6.446   6.194  15.798  0.00  0.00    +0.000 OA
ATOM     10  C   UNL     1       5.466   6.323  16.744  0.00  0.00    +0.000 A 
ATOM     11  C   UNL     1       4.411   7.182  16.448  0.00  0.00    +0.000 A 
ATOM     12  C   UNL     1       3.402   7.402  17.394  0.00  0.00    +0.000 A 
ATOM     13  C   UNL     1       3.439   6.765  18.646  0.00  0.00    +0.000 A 
ATOM     14  C   UNL     1       4.494   5.884  18.919  0.00  0.00    +0.000 A 
ATOM     15  C   UNL     1       5.512   5.689  17.986  0.00  0.00    +0.000 A 
ATOM     16  N   UNL     1       6.603   4.892  18.330  0.00  0.00    +0.000 N 
ATOM     17  H   UNL     1       6.716   4.531  19.268  0.00  0.00    +0.000 HD
ENDBRANCH   1  13
BRANCH   3  18
ATOM     18  C   UNL     1       0.459   9.386  21.400  0.00  0.00    +0.000 A 
ATOM     19  C   UNL     1       0.573  10.608  20.716  0.00  0.00    +0.000 A 
ATOM     20  C   UNL     1      -0.028  11.761  21.233  0.00  0.00    +0.000 A 
ATOM     21  C   UNL     1      -0.735  11.700  22.432  0.00  0.00    +0.000 A 
ATOM     22 CL   UNL     1      -1.460  13.120  23.077  0.00  0.00    +0.000 Cl
ATOM     23  C   UNL     1      -0.855  10.493  23.117  0.00  0.00    +0.000 A 
ATOM     24  C   UNL     1      -0.263   9.336  22.603  0.00  0.00    +0.000 A 
ENDBRANCH   3  18
BRANCH   5  25
ATOM     25  C   UNL     1       1.616   4.660  20.535  0.00  0.00    +0.000 A 
ATOM     26  C   UNL     1       2.216   4.014  21.628  0.00  0.00    +0.000 A 
ATOM     27  C   UNL     1       2.177   2.623  21.747  0.00  0.00    +0.000 A 
ATOM     28  C   UNL     1       1.521   1.861  20.785  0.00  0.00    +0.000 A 
ATOM     29  C   UNL     1       0.925   2.487  19.692  0.00  0.00    +0.000 A 
ATOM     30  C   UNL     1       0.991   3.876  19.557  0.00  0.00    +0.000 A 
ENDBRANCH   5  25
TORSDOF 3
ENDMDL
MODEL 3
REMARK VINA RESULT:      -8.9      4.452      7.899
REMARK  Name = 
REMARK  3 active torsions:
REMARK  status: ('A' for Active; 'I' for Inactive)
REMARK    1  A    between atoms: C_8  and  C_9
REMARK    2  A    between atoms: N_11  and  C_12
REMARK    3  A    between atoms: C_20  and  C_21
REMARK                            x       y       z     vdW  Elec       q    Type
REMARK                         _______ _______ _______ _____ _____    ______ ____
ROOT
ATOM      1  C   UNL     1       3.228   6.040  17.852  0.00  0.00    +0.000 A 
ATOM      2  N   UNL     1       3.958   6.180  16.731  0.00  0.00    +0.000 NA
ATOM      3  N   UNL     1       4.452   4.951  16.455  0.00  0.00    +0.000 N 
ATOM      4  C   UNL     1       4.031   4.024  17.375  0.00  0.00    +0.000 A 
ATOM      5  C   UNL     1       3.246   4.681  18.300  0.00  0.00    +0.000 A 
ENDROOT
BRANCH   1  13
ATOM      6  O   UNL     1       0.569   9.460  23.554  0.00  0.00    +0.000 OA
ATOM      7  C   UNL     1       0.834   9.461  22.356  0.00  0.00    +0.000 C 
ATOM      8  C   UNL     1       0.616  10.668  21.444  0.00  0.00    +0.000 C 
ATOM      9  O   UNL     1       0.487  10.464  20.043  0.00  0.00    +0.000 OA
ATOM     10  C   UNL     1       1.203   9.400  19.568  0.00  0.00    +0.000 A 
ATOM     11  C   UNL     1       1.388   9.327  18.189  0.00  0.00    +0.000 A 
ATOM     12  C   UNL     1       2.064   8.236  17.631  0.00  0.00    +0.000 A 
ATOM     13  C   UNL     1       2.562   7.206  18.446  0.00  0.00    +0.000 A 
ATOM     14  C   UNL     1       2.390   7.305  19.833  0.00  0.00    +0.000 A 
ATOM     15  C   UNL     1       1.691   8.379  20.384  0.00  0.00    +0.000 A 
ATOM     16  N   UNL     1       1.442   8.394  21.756  0.00  0.00    +0.000 N 
ATOM     17  H   UNL     1       1.675   7.603  22.341  0.00  0.00    +0.000 HD
ENDBRANCH   1  13
BRANCH   3  18
ATOM     18  C   UNL     1       5.289   4.724  15.324  0.00  0.00    +0.000 A 
ATOM     19  C   UNL     1       4.804   3.979  14.237  0.00  0.00    +0.000 A 
ATOM     20  C   UNL     1       5.619   3.747  13.123  0.00  0.00    +0.000 A 
ATOM     21  C   UNL     1       6.918   4.250  13.095  0.00  0.00    +0.000 A 
ATOM     22 CL   UNL     1       7.927   3.952  11.734  0.00  0.00    +0.000 Cl
ATOM     23  C   UNL     1       7.408   4.993  14.167  0.00  0.00    +0.000 A 
ATOM     24  C   UNL     1       6.596   5.233  15.279  0.00  0.00    +0.000 A 
ENDBRANCH   3  18
BRANCH   5  25
ATOM     25  C   UNL     1       2.633   3.987  19.426  0.00  0.00    +0.000 A 
ATOM     26  C   UNL     1       1.235   3.904  19.532  0.00  0.00    +0.000 A 
ATOM     27  C   UNL     1       0.638   3.219  20.593  0.00  0.00    +0.000 A 
ATOM     28  C   UNL     1       1.430   2.592  21.550  0.00  0.00    +0.000 A 
ATOM     29  C   UNL     1       2.818   2.670  21.461  0.00  0.00    +0.000 A 
ATOM     30  C   UNL     1       3.416   3.382  20.418  0.00  0.00    +0.000 A 
ENDBRANCH   5  25
TORSDOF 3
ENDMDL
MODEL 4
REMARK VINA RESULT:      -8.7      1.992      2.607
REMARK  Name = 
REMARK  3 active torsions:
REMARK  status: ('A' for Active; 'I' for Inactive)
REMARK    1  A    between atoms: C_8  and  C_9
REMARK    2  A    between atoms: N_11  and  C_12
REMARK    3  A    between atoms: C_20  and  C_21
REMARK                            x       y       z     vdW  Elec       q    Type
REMARK                         _______ _______ _______ _____ _____    ______ ____
ROOT
ATOM      1  C   UNL     1       3.496   6.757  18.428  0.00  0.00    +0.000 A 
ATOM      2  N   UNL     1       2.934   7.976  18.351  0.00  0.00    +0.000 NA
ATOM      3  N   UNL     1       1.960   7.995  19.291  0.00  0.00    +0.000 N 
ATOM      4  C   UNL     1       1.907   6.809  19.979  0.00  0.00    +0.000 A 
ATOM      5  C   UNL     1       2.872   5.977  19.454  0.00  0.00    +0.000 A 
ENDROOT
BRANCH   1  13
ATOM      6  O   UNL     1       5.890   3.222  12.679  0.00  0.00    +0.000 OA
ATOM      7  C   UNL     1       6.107   4.009  13.596  0.00  0.00    +0.000 C 
ATOM      8  C   UNL     1       7.437   4.737  13.787  0.00  0.00    +0.000 C 
ATOM      9  O   UNL     1       7.776   5.232  15.076  0.00  0.00    +0.000 OA
ATOM     10  C   UNL     1       6.700   5.619  15.826  0.00  0.00    +0.000 A 
ATOM     11  C   UNL     1       6.958   6.400  16.949  0.00  0.00    +0.000 A 
ATOM     12  C   UNL     1       5.908   6.785  17.791  0.00  0.00    +0.000 A 
ATOM     13  C   UNL     1       4.587   6.391  17.518  0.00  0.00    +0.000 A 
ATOM     14  C   UNL     1       4.339   5.626  16.370  0.00  0.00    +0.000 A 
ATOM     15  C   UNL     1       5.391   5.220  15.550  0.00  0.00    +0.000 A 
ATOM     16  N   UNL     1       5.126   4.369  14.477  0.00  0.00    +0.000 N 
ATOM     17  H   UNL     1       4.208   3.968  14.339  0.00  0.00    +0.000 HD
ENDBRANCH   1  13
BRANCH   3  18
ATOM     18  C   UNL     1       1.141   9.145  19.487  0.00  0.00    +0.000 A 
ATOM     19  C   UNL     1       0.745   9.503  20.787  0.00  0.00    +0.000 A 
ATOM     20  C   UNL     1      -0.063  10.628  20.991  0.00  0.00    +0.000 A 
ATOM     21  C   UNL     1      -0.481  11.390  19.902  0.00  0.00    +0.000 A 
ATOM     22 CL   UNL     1      -1.487  12.763  20.149  0.00  0.00    +0.000 Cl
ATOM     23  C   UNL     1      -0.092  11.044  18.610  0.00  0.00    +0.000 A 
ATOM     24  C   UNL     1       0.719   9.926  18.400  0.00  0.00    +0.000 A 
ENDBRANCH   3  18
BRANCH   5  25
ATOM     25  C   UNL     1       3.088   4.626  19.959  0.00  0.00    +0.000 A 
ATOM     26  C   UNL     1       4.135   3.839  19.455  0.00  0.00    +0.000 A 
ATOM     27  C   UNL     1       4.366   2.554  19.950  0.00  0.00    +0.000 A 
ATOM     28  C   UNL     1       3.566   2.047  20.971  0.00  0.00    +0.000 A 
ATOM     29  C   UNL     1       2.520   2.815  21.478  0.00  0.00    +0.000 A 
ATOM     30  C   UNL     1       2.269   4.088  20.960  0.00  0.00    +0.000 A 
ENDBRANCH   5  25
TORSDOF 3
ENDMDL
MODEL 5
REMARK VINA RESULT:      -8.4      1.940      2.459
REMARK  Name = 
REMARK  3 active torsions:
REMARK  status: ('A' for Active; 'I' for Inactive)
REMARK    1  A    between atoms: C_8  and  C_9
REMARK    2  A    between atoms: N_11  and  C_12
REMARK    3  A    between atoms: C_20  and  C_21
REMARK                            x       y       z     vdW  Elec       q    Type
REMARK                         _______ _______ _______ _____ _____    ______ ____
ROOT
ATOM      1  C   UNL     1       3.519   6.379  18.468  0.00  0.00    +0.000 A 
ATOM      2  N   UNL     1       3.120   7.622  18.792  0.00  0.00    +0.000 NA
ATOM      3  N   UNL     1       2.106   7.468  19.674  0.00  0.00    +0.000 N 
ATOM      4  C   UNL     1       1.865   6.142  19.932  0.00  0.00    +0.000 A 
ATOM      5  C   UNL     1       2.746   5.401  19.173  0.00  0.00    +0.000 A 
ENDROOT
BRANCH   1  13
ATOM      6  O   UNL     1       6.137   3.218  12.600  0.00  0.00    +0.000 OA
ATOM      7  C   UNL     1       6.274   4.037  13.504  0.00  0.00    +0.000 C 
ATOM      8  C   UNL     1       7.479   4.970  13.622  0.00  0.00    +0.000 C 
ATOM      9  O   UNL     1       7.803   5.524  14.891  0.00  0.00    +0.000 OA
ATOM     10  C   UNL     1       6.720   5.742  15.697  0.00  0.00    +0.000 A 
ATOM     11  C   UNL     1       6.910   6.565  16.804  0.00  0.00    +0.000 A 
ATOM     12  C   UNL     1       5.858   6.785  17.701  0.00  0.00    +0.000 A 
ATOM     13  C   UNL     1       4.605   6.184  17.500  0.00  0.00    +0.000 A 
ATOM     14  C   UNL     1       4.421   5.378  16.368  0.00  0.00    +0.000 A 
ATOM     15  C   UNL     1       5.479   5.137  15.492  0.00  0.00    +0.000 A 
ATOM     16  N   UNL     1       5.296   4.245  14.437  0.00  0.00    +0.000 N 
ATOM     17  H   UNL     1       4.448   3.701  14.348  0.00  0.00    +0.000 HD
ENDBRANCH   1  13
BRANCH   3  18
ATOM     18  C   UNL     1       1.429   8.592  20.230  0.00  0.00    +0.000 A 
ATOM     19  C   UNL     1       1.163   8.632  21.609  0.00  0.00    +0.000 A 
ATOM     20  C   UNL     1       0.495   9.729  22.164  0.00  0.00    +0.000 A 
ATOM     21  C   UNL     1       0.086  10.781  21.347  0.00  0.00    +0.000 A 
ATOM     22 CL   UNL     1      -0.750  12.123  22.026  0.00  0.00    +0.000 Cl
ATOM     23  C   UNL     1       0.347  10.752  19.980  0.00  0.00    +0.000 A 
ATOM     24  C   UNL     1       1.019   9.662  19.420  0.00  0.00    +0.000 A 
ENDBRANCH   3  18
BRANCH   5  25
ATOM     25  C   UNL     1       2.761   3.944  19.206  0.00  0.00    +0.000 A 
ATOM     26  C   UNL     1       1.581   3.216  18.986  0.00  0.00    +0.000 A 
ATOM     27  C   UNL     1       1.590   1.820  18.990  0.00  0.00    +0.000 A 
ATOM     28  C   UNL     1       2.784   1.133  19.193  0.00  0.00    +0.000 A 
ATOM     29  C   UNL     1       3.962   1.841  19.417  0.00  0.00    +0.000 A 
ATOM     30  C   UNL     1       3.947   3.238  19.445  0.00  0.00    +0.000 A 
ENDBRANCH   5  25
TORSDOF 3
ENDMDL
MODEL 6
REMARK VINA RESULT:      -8.3      2.066      2.823
REMARK  Name = 
REMARK  3 active torsions:
REMARK  status: ('A' for Active; 'I' for Inactive)
REMARK    1  A    between atoms: C_8  and  C_9
REMARK    2  A    between atoms: N_11  and  C_12
REMARK    3  A    between atoms: C_20  and  C_21
REMARK                            x       y       z     vdW  Elec       q    Type
REMARK                         _______ _______ _______ _____ _____    ______ ____
ROOT
ATOM      1  C   UNL     1       3.565   6.604  18.059  0.00  0.00    +0.000 A 
ATOM      2  N   UNL     1       3.166   7.876  18.242  0.00  0.00    +0.000 NA
ATOM      3  N   UNL     1       2.135   7.818  19.116  0.00  0.00    +0.000 N 
ATOM      4  C   UNL     1       1.883   6.528  19.508  0.00  0.00    +0.000 A 
ATOM      5  C   UNL     1       2.774   5.709  18.847  0.00  0.00    +0.000 A 
ENDROOT
BRANCH   1  13
ATOM      6  O   UNL     1       6.153   3.107  12.371  0.00  0.00    +0.000 OA
ATOM      7  C   UNL     1       6.317   3.938  13.259  0.00  0.00    +0.000 C 
ATOM      8  C   UNL     1       7.582   4.783  13.401  0.00  0.00    +0.000 C 
ATOM      9  O   UNL     1       7.901   5.346  14.667  0.00  0.00    +0.000 OA
ATOM     10  C   UNL     1       6.808   5.662  15.427  0.00  0.00    +0.000 A 
ATOM     11  C   UNL     1       7.019   6.498  16.520  0.00  0.00    +0.000 A 
ATOM     12  C   UNL     1       5.954   6.818  17.371  0.00  0.00    +0.000 A 
ATOM     13  C   UNL     1       4.667   6.305  17.137  0.00  0.00    +0.000 A 
ATOM     14  C   UNL     1       4.466   5.485  16.019  0.00  0.00    +0.000 A 
ATOM     15  C   UNL     1       5.534   5.145  15.190  0.00  0.00    +0.000 A 
ATOM     16  N   UNL     1       5.324   4.240  14.149  0.00  0.00    +0.000 N 
ATOM     17  H   UNL     1       4.442   3.758  14.042  0.00  0.00    +0.000 HD
ENDBRANCH   1  13
BRANCH   3  18
ATOM     18  C   UNL     1       1.453   8.996  19.538  0.00  0.00    +0.000 A 
ATOM     19  C   UNL     1       1.296  10.067  18.642  0.00  0.00    +0.000 A 
ATOM     20  C   UNL     1       0.632  11.231  19.047  0.00  0.00    +0.000 A 
ATOM     21  C   UNL     1       0.132  11.331  20.344  0.00  0.00    +0.000 A 
ATOM     22 CL   UNL     1      -0.669  12.767  20.849  0.00  0.00    +0.000 Cl
ATOM     23  C   UNL     1       0.281  10.274  21.239  0.00  0.00    +0.000 A 
ATOM     24  C   UNL     1       0.938   9.107  20.838  0.00  0.00    +0.000 A 
ENDBRANCH   3  18
BRANCH   5  25
ATOM     25  C   UNL     1       2.781   4.263  19.034  0.00  0.00    +0.000 A 
ATOM     26  C   UNL     1       1.612   3.514  18.827  0.00  0.00    +0.000 A 
ATOM     27  C   UNL     1       1.615   2.125  18.977  0.00  0.00    +0.000 A 
ATOM     28  C   UNL     1       2.793   1.466  19.317  0.00  0.00    +0.000 A 
ATOM     29  C   UNL     1       3.961   2.195  19.530  0.00  0.00    +0.000 A 
ATOM     30  C   UNL     1       3.949   3.588  19.411  0.00  0.00    +0.000 A 
ENDBRANCH   5  25
TORSDOF 3
ENDMDL
MODEL 7
REMARK VINA RESULT:      -8.2      2.059      2.830
REMARK  Name = 
REMARK  3 active torsions:
REMARK  status: ('A' for Active; 'I' for Inactive)
REMARK    1  A    between atoms: C_8  and  C_9
REMARK    2  A    between atoms: N_11  and  C_12
REMARK    3  A    between atoms: C_20  and  C_21
REMARK                            x       y       z     vdW  Elec       q    Type
REMARK                         _______ _______ _______ _____ _____    ______ ____
ROOT
ATOM      1  C   UNL     1       3.410   7.098  18.277  0.00  0.00    +0.000 A 
ATOM      2  N   UNL     1       3.000   8.370  18.120  0.00  0.00    +0.000 NA
ATOM      3  N   UNL     1       1.958   8.530  18.968  0.00  0.00    +0.000 N 
ATOM      4  C   UNL     1       1.710   7.383  19.679  0.00  0.00    +0.000 A 
ATOM      5  C   UNL     1       2.615   6.430  19.263  0.00  0.00    +0.000 A 
ENDROOT
BRANCH   1  13
ATOM      6  O   UNL     1       5.855   3.287  12.730  0.00  0.00    +0.000 OA
ATOM      7  C   UNL     1       6.087   4.026  13.682  0.00  0.00    +0.000 C 
ATOM      8  C   UNL     1       7.481   4.548  14.027  0.00  0.00    +0.000 C 
ATOM      9  O   UNL     1       7.751   4.977  15.355  0.00  0.00    +0.000 OA
ATOM     10  C   UNL     1       6.670   5.515  15.997  0.00  0.00    +0.000 A 
ATOM     11  C   UNL     1       6.920   6.241  17.158  0.00  0.00    +0.000 A 
ATOM     12  C   UNL     1       5.854   6.772  17.894  0.00  0.00    +0.000 A 
ATOM     13  C   UNL     1       4.526   6.581  17.477  0.00  0.00    +0.000 A 
ATOM     14  C   UNL     1       4.292   5.869  16.293  0.00  0.00    +0.000 A 
ATOM     15  C   UNL     1       5.353   5.317  15.577  0.00  0.00    +0.000 A 
ATOM     16  N   UNL     1       5.081   4.522  14.465  0.00  0.00    +0.000 N 
ATOM     17  H   UNL     1       4.134   4.263  14.222  0.00  0.00    +0.000 HD
ENDBRANCH   1  13
BRANCH   3  18
ATOM     18  C   UNL     1       1.263   9.771  19.062  0.00  0.00    +0.000 A 
ATOM     19  C   UNL     1       1.772  10.905  18.408  0.00  0.00    +0.000 A 
ATOM     20  C   UNL     1       1.100  12.129  18.498  0.00  0.00    +0.000 A 
ATOM     21  C   UNL     1      -0.074  12.225  19.243  0.00  0.00    +0.000 A 
ATOM     22 CL   UNL     1      -0.892  13.733  19.368  0.00  0.00    +0.000 Cl
ATOM     23  C   UNL     1      -0.588  11.106  19.894  0.00  0.00    +0.000 A 
ATOM     24  C   UNL     1       0.076   9.880  19.803  0.00  0.00    +0.000 A 
ENDBRANCH   3  18
BRANCH   5  25
ATOM     25  C   UNL     1       2.630   5.082  19.818  0.00  0.00    +0.000 A 
ATOM     26  C   UNL     1       1.518   4.590  20.519  0.00  0.00    +0.000 A 
ATOM     27  C   UNL     1       1.512   3.291  21.033  0.00  0.00    +0.000 A 
ATOM     28  C   UNL     1       2.611   2.460  20.834  0.00  0.00    +0.000 A 
ATOM     29  C   UNL     1       3.724   2.935  20.143  0.00  0.00    +0.000 A 
ATOM     30  C   UNL     1       3.742   4.245  19.658  0.00  0.00    +0.000 A 
ENDBRANCH   5  25
TORSDOF 3
ENDMDL
MODEL 8
REMARK VINA RESULT:      -8.1      4.480      7.931
REMARK  Name = 
REMARK  3 active torsions:
REMARK  status: ('A' for Active; 'I' for Inactive)
REMARK    1  A    between atoms: C_8  and  C_9
REMARK    2  A    between atoms: N_11  and  C_12
REMARK    3  A    between atoms: C_20  and  C_21
REMARK                            x       y       z     vdW  Elec       q    Type
REMARK                         _______ _______ _______ _____ _____    ______ ____
ROOT
ATOM      1  C   UNL     1       3.208   5.973  18.042  0.00  0.00    +0.000 A 
ATOM      2  N   UNL     1       3.934   6.169  16.927  0.00  0.00    +0.000 NA
ATOM      3  N   UNL     1       4.415   4.953  16.580  0.00  0.00    +0.000 N 
ATOM      4  C   UNL     1       3.989   3.980  17.448  0.00  0.00    +0.000 A 
ATOM      5  C   UNL     1       3.215   4.589  18.412  0.00  0.00    +0.000 A 
ENDROOT
BRANCH   1  13
ATOM      6  O   UNL     1       1.209  12.849  18.084  0.00  0.00    +0.000 OA
ATOM      7  C   UNL     1       1.204  11.749  18.628  0.00  0.00    +0.000 C 
ATOM      8  C   UNL     1       0.449  11.450  19.922  0.00  0.00    +0.000 C 
ATOM      9  O   UNL     1       0.859  10.351  20.726  0.00  0.00    +0.000 OA
ATOM     10  C   UNL     1       1.386   9.308  20.015  0.00  0.00    +0.000 A 
ATOM     11  C   UNL     1       1.509   8.089  20.677  0.00  0.00    +0.000 A 
ATOM     12  C   UNL     1       2.091   6.995  20.026  0.00  0.00    +0.000 A 
ATOM     13  C   UNL     1       2.556   7.108  18.705  0.00  0.00    +0.000 A 
ATOM     14  C   UNL     1       2.403   8.334  18.043  0.00  0.00    +0.000 A 
ATOM     15  C   UNL     1       1.849   9.430  18.704  0.00  0.00    +0.000 A 
ATOM     16  N   UNL     1       1.810  10.664  18.056  0.00  0.00    +0.000 N 
ATOM     17  H   UNL     1       2.256  10.802  17.159  0.00  0.00    +0.000 HD
ENDBRANCH   1  13
BRANCH   3  18
ATOM     18  C   UNL     1       5.245   4.784  15.434  0.00  0.00    +0.000 A 
ATOM     19  C   UNL     1       4.775   4.042  14.337  0.00  0.00    +0.000 A 
ATOM     20  C   UNL     1       5.583   3.866  13.209  0.00  0.00    +0.000 A 
ATOM     21  C   UNL     1       6.861   4.421  13.175  0.00  0.00    +0.000 A 
ATOM     22 CL   UNL     1       7.862   4.191  11.795  0.00  0.00    +0.000 Cl
ATOM     23  C   UNL     1       7.336   5.159  14.256  0.00  0.00    +0.000 A 
ATOM     24  C   UNL     1       6.531   5.344  15.383  0.00  0.00    +0.000 A 
ENDBRANCH   3  18
BRANCH   5  25
ATOM     25  C   UNL     1       2.600   3.839  19.500  0.00  0.00    +0.000 A 
ATOM     26  C   UNL     1       3.394   3.268  20.507  0.00  0.00    +0.000 A 
ATOM     27  C   UNL     1       2.812   2.569  21.568  0.00  0.00    +0.000 A 
ATOM     28  C   UNL     1       1.427   2.450  21.645  0.00  0.00    +0.000 A 
ATOM     29  C   UNL     1       0.626   3.008  20.652  0.00  0.00    +0.000 A 
ATOM     30  C   UNL     1       1.210   3.679  19.574  0.00  0.00    +0.000 A 
ENDBRANCH   5  25
TORSDOF 3
ENDMDL
MODEL 9
REMARK VINA RESULT:      -8.1      2.023      2.768
REMARK  Name = 
REMARK  3 active torsions:
REMARK  status: ('A' for Active; 'I' for Inactive)
REMARK    1  A    between atoms: C_8  and  C_9
REMARK    2  A    between atoms: N_11  and  C_12
REMARK    3  A    between atoms: C_20  and  C_21
REMARK                            x       y       z     vdW  Elec       q    Type
REMARK                         _______ _______ _______ _____ _____    ______ ____
ROOT
ATOM      1  C   UNL     1       3.293   7.144  18.172  0.00  0.00    +0.000 A 
ATOM      2  N   UNL     1       2.978   8.448  18.084  0.00  0.00    +0.000 NA
ATOM      3  N   UNL     1       1.880   8.617  18.857  0.00  0.00    +0.000 N 
ATOM      4  C   UNL     1       1.502   7.441  19.453  0.00  0.00    +0.000 A 
ATOM      5  C   UNL     1       2.377   6.461  19.036  0.00  0.00    +0.000 A 
ENDROOT
BRANCH   1  13
ATOM      6  O   UNL     1       5.941   3.272  12.762  0.00  0.00    +0.000 OA
ATOM      7  C   UNL     1       6.138   4.016  13.718  0.00  0.00    +0.000 C 
ATOM      8  C   UNL     1       7.521   4.529  14.119  0.00  0.00    +0.000 C 
ATOM      9  O   UNL     1       7.737   4.966  15.454  0.00  0.00    +0.000 OA
ATOM     10  C   UNL     1       6.634   5.516  16.045  0.00  0.00    +0.000 A 
ATOM     11  C   UNL     1       6.840   6.249  17.211  0.00  0.00    +0.000 A 
ATOM     12  C   UNL     1       5.748   6.794  17.897  0.00  0.00    +0.000 A 
ATOM     13  C   UNL     1       4.438   6.611  17.424  0.00  0.00    +0.000 A 
ATOM     14  C   UNL     1       4.248   5.893  16.236  0.00  0.00    +0.000 A 
ATOM     15  C   UNL     1       5.335   5.327  15.571  0.00  0.00    +0.000 A 
ATOM     16  N   UNL     1       5.104   4.526  14.453  0.00  0.00    +0.000 N 
ATOM     17  H   UNL     1       4.166   4.274  14.172  0.00  0.00    +0.000 HD
ENDBRANCH   1  13
BRANCH   3  18
ATOM     18  C   UNL     1       1.259   9.892  18.994  0.00  0.00    +0.000 A 
ATOM     19  C   UNL     1       0.024   9.997  19.655  0.00  0.00    +0.000 A 
ATOM     20  C   UNL     1      -0.598  11.244  19.791  0.00  0.00    +0.000 A 
ATOM     21  C   UNL     1       0.006  12.383  19.263  0.00  0.00    +0.000 A 
ATOM     22 CL   UNL     1      -0.764  13.913  19.415  0.00  0.00    +0.000 Cl
ATOM     23  C   UNL     1       1.231  12.290  18.608  0.00  0.00    +0.000 A 
ATOM     24  C   UNL     1       1.860  11.049  18.475  0.00  0.00    +0.000 A 
ENDBRANCH   3  18
BRANCH   5  25
ATOM     25  C   UNL     1       2.262   5.078  19.483  0.00  0.00    +0.000 A 
ATOM     26  C   UNL     1       2.370   4.760  20.846  0.00  0.00    +0.000 A 
ATOM     27  C   UNL     1       2.234   3.442  21.287  0.00  0.00    +0.000 A 
ATOM     28  C   UNL     1       1.969   2.427  20.372  0.00  0.00    +0.000 A 
ATOM     29  C   UNL     1       1.863   2.725  19.015  0.00  0.00    +0.000 A 
ATOM     30  C   UNL     1       2.031   4.039  18.571  0.00  0.00    +0.000 A 
ENDBRANCH   5  25
TORSDOF 3
ENDMDL
