MODEL 1
REMARK VINA RESULT:      -9.4      0.000      0.000
REMARK  Name = 
REMARK  8 active torsions:
REMARK  status: ('A' for Active; 'I' for Inactive)
REMARK    1  A    between atoms: C_1  and  O_2
REMARK    2  A    between atoms: O_2  and  C_3
REMARK    3  A    between atoms: N_12  and  C_13
REMARK    4  A    between atoms: C_13  and  C_14
REMARK    5  A    between atoms: C_14  and  C_15
REMARK    6  A    between atoms: C_16  and  C_17
REMARK    7  A    between atoms: C_20  and  C_21
REMARK    8  A    between atoms: C_21  and  N_22
REMARK                            x       y       z     vdW  Elec       q    Type
REMARK                         _______ _______ _______ _____ _____    ______ ____
ROOT
ATOM      1  C   UNL     1       2.593   4.185  20.156  0.00  0.00    +0.000 C 
ATOM      2  N   UNL     1       1.776   3.751  19.050  0.00  0.00    +0.000 N 
ATOM      3  C   UNL     1       0.732   2.960  19.464  0.00  0.00    +0.000 C 
ATOM      4  O   UNL     1      -0.083   2.431  18.734  0.00  0.00    +0.000 OA
ATOM      5  N   UNL     1       0.830   2.773  20.800  0.00  0.00    +0.000 N 
ATOM      6  C   UNL     1       2.011   3.279  21.252  0.00  0.00    +0.000 C 
ATOM      7  O   UNL     1       2.488   3.067  22.359  0.00  0.00    +0.000 OA
ATOM      8  H   UNL     1       2.119   3.627  18.100  0.00  0.00    +0.000 HD
ATOM      9  H   UNL     1       0.311   2.056  21.274  0.00  0.00    +0.000 HD
ENDROOT
BRANCH   1  10
ATOM     10  C   UNL     1       2.162   5.575  20.434  0.00  0.00    +0.000 C 
ATOM     11  C   UNL     1       1.812   6.729  20.454  0.00  0.00    +0.000 C 
BRANCH  11  12
ATOM     12  C   UNL     1       1.345   8.076  20.485  0.00  0.00    +0.000 A 
ATOM     13  C   UNL     1       0.764   8.670  21.608  0.00  0.00    +0.000 A 
ATOM     14  C   UNL     1       0.364  10.015  21.543  0.00  0.00    +0.000 A 
ATOM     15  C   UNL     1       0.541  10.720  20.351  0.00  0.00    +0.000 A 
ATOM     16  N   UNL     1       1.105  10.142  19.253  0.00  0.00    +0.000 NA
ATOM     17  C   UNL     1       1.491   8.856  19.352  0.00  0.00    +0.000 A 
BRANCH  15  18
ATOM     18  C   UNL     1       0.070  12.165  20.188  0.00  0.00    +0.000 C 
BRANCH  18  19
ATOM     19  N   UNL     1      -1.201  12.523  20.869  0.00  0.00    +0.000 NA
ATOM     20  C   UNL     1      -1.089  13.845  21.513  0.00  0.00    +0.000 C 
ATOM     21  C   UNL     1      -2.402  14.299  22.151  0.00  0.00    +0.000 C 
ATOM     22  C   UNL     1      -3.538  14.282  21.138  0.00  0.00    +0.000 C 
ATOM     23  C   UNL     1      -3.652  12.901  20.512  0.00  0.00    +0.000 C 
ATOM     24  C   UNL     1      -2.317  12.461  19.904  0.00  0.00    +0.000 C 
ENDBRANCH  18  19
ENDBRANCH  15  18
ENDBRANCH  11  12
ENDBRANCH   1  10
BRANCH   1  25
ATOM     25  C   UNL     1       4.135   4.016  20.017  0.00  0.00    +0.000 C 
BRANCH  25  35
ATOM     26  C   UNL     1       7.094   5.055  14.804  0.00  0.00    +0.000 A 
ATOM     27  C   UNL     1       6.251   4.061  14.267  0.00  0.00    +0.000 A 
ATOM     28  C   UNL     1       5.277   3.407  15.056  0.00  0.00    +0.000 A 
ATOM     29  C   UNL     1       5.164   3.760  16.395  0.00  0.00    +0.000 A 
ATOM     30  C   UNL     1       6.013   4.745  16.896  0.00  0.00    +0.000 A 
ATOM     31  C   UNL     1       6.960   5.403  16.139  0.00  0.00    +0.000 A 
ATOM     32  F   UNL     1       7.736   6.349  16.686  0.00  0.00    +0.000 F 
ATOM     33  C   UNL     1       5.736   4.935  18.297  0.00  0.00    +0.000 C 
ATOM     34  O   UNL     1       6.312   5.733  19.024  0.00  0.00    +0.000 OA
ATOM     35  N   UNL     1       4.713   4.089  18.651  0.00  0.00    +0.000 N 
ATOM     36  C   UNL     1       4.273   3.275  17.510  0.00  0.00    +0.000 C 
BRANCH  26  38
ATOM     37  C   UNL     1       8.147   5.475  12.736  0.00  0.00    +0.000 C 
ATOM     38  O   UNL     1       8.111   5.682  14.137  0.00  0.00    +0.000 OA
ENDBRANCH  26  38
ENDBRANCH  25  35
ENDBRANCH   1  25
TORSDOF 7
ENDMDL
MODEL 2
REMARK VINA RESULT:      -9.4      0.844      1.160
REMARK  Name = 
REMARK  8 active torsions:
REMARK  status: ('A' for Active; 'I' for Inactive)
REMARK    1  A    between atoms: C_1  and  O_2
REMARK    2  A    between atoms: O_2  and  C_3
REMARK    3  A    between atoms: N_12  and  C_13
REMARK    4  A    between atoms: C_13  and  C_14
REMARK    5  A    between atoms: C_14  and  C_15
REMARK    6  A    between atoms: C_16  and  C_17
REMARK    7  A    between atoms: C_20  and  C_21
REMARK    8  A    between atoms: C_21  and  N_22
REMARK                            x       y       z     vdW  Elec       q    Type
REMARK                         _______ _______ _______ _____ _____    ______ ____
ROOT
ATOM      1  C   UNL     1       2.503   4.292  20.043  0.00  0.00    +0.000 C 
ATOM      2  N   UNL     1       1.760   3.677  18.972  0.00  0.00    +0.000 N 
ATOM      3  C   UNL     1       0.778   2.840  19.443  0.00  0.00    +0.000 C 
ATOM      4  O   UNL     1       0.034   2.170  18.756  0.00  0.00    +0.000 OA
ATOM      5  N   UNL     1       0.853   2.799  20.794  0.00  0.00    +0.000 N 
ATOM      6  C   UNL     1       1.972   3.452  21.214  0.00  0.00    +0.000 C 
ATOM      7  O   UNL     1       2.434   3.396  22.346  0.00  0.00    +0.000 OA
ATOM      8  H   UNL     1       2.139   3.489  18.046  0.00  0.00    +0.000 HD
ATOM      9  H   UNL     1       0.386   2.089  21.328  0.00  0.00    +0.000 HD
ENDROOT
BRANCH   1  10
ATOM     10  C   UNL     1       1.945   5.658  20.168  0.00  0.00    +0.000 C 
ATOM     11  C   UNL     1       1.667   6.814  20.371  0.00  0.00    +0.000 C 
BRANCH  11  12
ATOM     12  C   UNL     1       1.354   8.193  20.559  0.00  0.00    +0.000 A 
ATOM     13  C   UNL     1       1.160   9.094  19.510  0.00  0.00    +0.000 A 
ATOM     14  C   UNL     1       0.825  10.426  19.803  0.00  0.00    +0.000 A 
ATOM     15  C   UNL     1       0.713  10.821  21.137  0.00  0.00    +0.000 A 
ATOM     16  N   UNL     1       0.904   9.945  22.163  0.00  0.00    +0.000 NA
ATOM     17  C   UNL     1       1.210   8.671  21.849  0.00  0.00    +0.000 A 
BRANCH  15  18
ATOM     18  C   UNL     1       0.416  12.268  21.531  0.00  0.00    +0.000 C 
BRANCH  18  19
ATOM     19  N   UNL     1      -1.020  12.640  21.634  0.00  0.00    +0.000 NA
ATOM     20  C   UNL     1      -1.536  12.348  22.984  0.00  0.00    +0.000 C 
ATOM     21  C   UNL     1      -2.985  12.797  23.167  0.00  0.00    +0.000 C 
ATOM     22  C   UNL     1      -3.148  14.273  22.830  0.00  0.00    +0.000 C 
ATOM     23  C   UNL     1      -2.638  14.541  21.423  0.00  0.00    +0.000 C 
ATOM     24  C   UNL     1      -1.194  14.058  21.259  0.00  0.00    +0.000 C 
ENDBRANCH  18  19
ENDBRANCH  15  18
ENDBRANCH  11  12
ENDBRANCH   1  10
BRANCH   1  25
ATOM     25  C   UNL     1       4.058   4.249  19.952  0.00  0.00    +0.000 C 
BRANCH  25  35
ATOM     26  C   UNL     1       7.155   5.096  14.785  0.00  0.00    +0.000 A 
ATOM     27  C   UNL     1       6.300   4.109  14.251  0.00  0.00    +0.000 A 
ATOM     28  C   UNL     1       5.295   3.496  15.033  0.00  0.00    +0.000 A 
ATOM     29  C   UNL     1       5.161   3.883  16.361  0.00  0.00    +0.000 A 
ATOM     30  C   UNL     1       6.020   4.861  16.858  0.00  0.00    +0.000 A 
ATOM     31  C   UNL     1       6.999   5.479  16.108  0.00  0.00    +0.000 A 
ATOM     32  F   UNL     1       7.785   6.420  16.649  0.00  0.00    +0.000 F 
ATOM     33  C   UNL     1       5.717   5.091  18.248  0.00  0.00    +0.000 C 
ATOM     34  O   UNL     1       6.296   5.892  18.968  0.00  0.00    +0.000 OA
ATOM     35  N   UNL     1       4.668   4.277  18.598  0.00  0.00    +0.000 N 
ATOM     36  C   UNL     1       4.234   3.446  17.467  0.00  0.00    +0.000 C 
BRANCH  26  38
ATOM     37  C   UNL     1       8.181   5.567  12.714  0.00  0.00    +0.000 C 
ATOM     38  O   UNL     1       8.200   5.683  14.126  0.00  0.00    +0.000 OA
ENDBRANCH  26  38
ENDBRANCH  25  35
ENDBRANCH   1  25
TORSDOF 7
ENDMDL
MODEL 3
REMARK VINA RESULT:      -9.3      1.299      1.956
REMARK  Name = 
REMARK  8 active torsions:
REMARK  status: ('A' for Active; 'I' for Inactive)
REMARK    1  A    between atoms: C_1  and  O_2
REMARK    2  A    between atoms: O_2  and  C_3
REMARK    3  A    between atoms: N_12  and  C_13
REMARK    4  A    between atoms: C_13  and  C_14
REMARK    5  A    between atoms: C_14  and  C_15
REMARK    6  A    between atoms: C_16  and  C_17
REMARK    7  A    between atoms: C_20  and  C_21
REMARK    8  A    between atoms: C_21  and  N_22
REMARK                            x       y       z     vdW  Elec       q    Type
REMARK                         _______ _______ _______ _____ _____    ______ ____
ROOT
ATOM      1  C   UNL     1       2.682   4.120  20.000  0.00  0.00    +0.000 C 
ATOM      2  N   UNL     1       1.788   3.647  18.973  0.00  0.00    +0.000 N 
ATOM      3  C   UNL     1       0.687   3.017  19.501  0.00  0.00    +0.000 C 
ATOM      4  O   UNL     1      -0.201   2.494  18.858  0.00  0.00    +0.000 OA
ATOM      5  N   UNL     1       0.815   2.975  20.848  0.00  0.00    +0.000 N 
ATOM      6  C   UNL     1       2.055   3.408  21.208  0.00  0.00    +0.000 C 
ATOM      7  O   UNL     1       2.549   3.276  22.321  0.00  0.00    +0.000 OA
ATOM      8  H   UNL     1       2.083   3.382  18.036  0.00  0.00    +0.000 HD
ATOM      9  H   UNL     1       0.246   2.373  21.414  0.00  0.00    +0.000 HD
ENDROOT
BRANCH   1  10
ATOM     10  C   UNL     1       2.400   5.569  20.124  0.00  0.00    +0.000 C 
ATOM     11  C   UNL     1       1.972   6.689  20.251  0.00  0.00    +0.000 C 
BRANCH  11  12
ATOM     12  C   UNL     1       1.484   8.014  20.455  0.00  0.00    +0.000 A 
ATOM     13  C   UNL     1       1.126   8.525  21.705  0.00  0.00    +0.000 A 
ATOM     14  C   UNL     1       0.684   9.854  21.800  0.00  0.00    +0.000 A 
ATOM     15  C   UNL     1       0.596  10.627  20.641  0.00  0.00    +0.000 A 
ATOM     16  N   UNL     1       0.942  10.130  19.420  0.00  0.00    +0.000 NA
ATOM     17  C   UNL     1       1.376   8.856  19.363  0.00  0.00    +0.000 A 
BRANCH  15  18
ATOM     18  C   UNL     1       0.062  12.060  20.661  0.00  0.00    +0.000 C 
BRANCH  18  19
ATOM     19  N   UNL     1       0.855  13.067  19.910  0.00  0.00    +0.000 NA
ATOM     20  C   UNL     1       0.077  14.306  19.724  0.00  0.00    +0.000 C 
ATOM     21  C   UNL     1       0.883  15.407  19.035  0.00  0.00    +0.000 C 
ATOM     22  C   UNL     1       2.179  15.687  19.784  0.00  0.00    +0.000 C 
ATOM     23  C   UNL     1       2.977  14.400  19.935  0.00  0.00    +0.000 C 
ATOM     24  C   UNL     1       2.137  13.308  20.604  0.00  0.00    +0.000 C 
ENDBRANCH  18  19
ENDBRANCH  15  18
ENDBRANCH  11  12
ENDBRANCH   1  10
BRANCH   1  25
ATOM     25  C   UNL     1       4.194   3.781  19.844  0.00  0.00    +0.000 C 
BRANCH  25  35
ATOM     26  C   UNL     1       7.209   5.086  14.724  0.00  0.00    +0.000 A 
ATOM     27  C   UNL     1       6.403   4.089  14.137  0.00  0.00    +0.000 A 
ATOM     28  C   UNL     1       5.436   3.380  14.886  0.00  0.00    +0.000 A 
ATOM     29  C   UNL     1       5.291   3.682  16.234  0.00  0.00    +0.000 A 
ATOM     30  C   UNL     1       6.102   4.672  16.784  0.00  0.00    +0.000 A 
ATOM     31  C   UNL     1       7.042   5.382  16.067  0.00  0.00    +0.000 A 
ATOM     32  F   UNL     1       7.782   6.330  16.660  0.00  0.00    +0.000 F 
ATOM     33  C   UNL     1       5.797   4.805  18.186  0.00  0.00    +0.000 C 
ATOM     34  O   UNL     1       6.338   5.592  18.950  0.00  0.00    +0.000 OA
ATOM     35  N   UNL     1       4.793   3.919  18.492  0.00  0.00    +0.000 N 
ATOM     36  C   UNL     1       4.395   3.133  17.316  0.00  0.00    +0.000 C 
BRANCH  26  38
ATOM     37  C   UNL     1       8.237   5.671  12.683  0.00  0.00    +0.000 C 
ATOM     38  O   UNL     1       8.218   5.764  14.097  0.00  0.00    +0.000 OA
ENDBRANCH  26  38
ENDBRANCH  25  35
ENDBRANCH   1  25
TORSDOF 7
ENDMDL
MODEL 4
REMARK VINA RESULT:      -9.2      1.111      1.692
REMARK  Name = 
REMARK  8 active torsions:
REMARK  status: ('A' for Active; 'I' for Inactive)
REMARK    1  A    between atoms: C_1  and  O_2
REMARK    2  A    between atoms: O_2  and  C_3
REMARK    3  A    between atoms: N_12  and  C_13
REMARK    4  A    between atoms: C_13  and  C_14
REMARK    5  A    between atoms: C_14  and  C_15
REMARK    6  A    between atoms: C_16  and  C_17
REMARK    7  A    between atoms: C_20  and  C_21
REMARK    8  A    between atoms: C_21  and  N_22
REMARK                            x       y       z     vdW  Elec       q    Type
REMARK                         _______ _______ _______ _____ _____    ______ ____
ROOT
ATOM      1  C   UNL     1       2.493   4.401  20.171  0.00  0.00    +0.000 C 
ATOM      2  N   UNL     1       1.743   3.944  19.029  0.00  0.00    +0.000 N 
ATOM      3  C   UNL     1       0.752   3.062  19.386  0.00  0.00    +0.000 C 
ATOM      4  O   UNL     1      -0.000   2.498  18.616  0.00  0.00    +0.000 OA
ATOM      5  N   UNL     1       0.827   2.838  20.718  0.00  0.00    +0.000 N 
ATOM      6  C   UNL     1       1.954   3.417  21.221  0.00  0.00    +0.000 C 
ATOM      7  O   UNL     1       2.415   3.205  22.334  0.00  0.00    +0.000 OA
ATOM      8  H   UNL     1       2.119   3.878  18.085  0.00  0.00    +0.000 HD
ATOM      9  H   UNL     1       0.353   2.069  21.153  0.00  0.00    +0.000 HD
ENDROOT
BRANCH   1  10
ATOM     10  C   UNL     1       1.950   5.744  20.480  0.00  0.00    +0.000 C 
ATOM     11  C   UNL     1       1.629   6.903  20.577  0.00  0.00    +0.000 C 
BRANCH  11  12
ATOM     12  C   UNL     1       1.204   8.262  20.662  0.00  0.00    +0.000 A 
ATOM     13  C   UNL     1       0.689   8.842  21.824  0.00  0.00    +0.000 A 
ATOM     14  C   UNL     1       0.327  10.199  21.811  0.00  0.00    +0.000 A 
ATOM     15  C   UNL     1       0.474  10.930  20.630  0.00  0.00    +0.000 A 
ATOM     16  N   UNL     1       0.974  10.366  19.495  0.00  0.00    +0.000 NA
ATOM     17  C   UNL     1       1.325   9.067  19.544  0.00  0.00    +0.000 A 
BRANCH  15  18
ATOM     18  C   UNL     1       0.040  12.392  20.525  0.00  0.00    +0.000 C 
BRANCH  18  19
ATOM     19  N   UNL     1       0.631  13.326  21.518  0.00  0.00    +0.000 NA
ATOM     20  C   UNL     1       1.757  14.070  20.925  0.00  0.00    +0.000 C 
ATOM     21  C   UNL     1       2.342  15.110  21.880  0.00  0.00    +0.000 C 
ATOM     22  C   UNL     1       1.264  16.063  22.379  0.00  0.00    +0.000 C 
ATOM     23  C   UNL     1       0.130  15.273  23.014  0.00  0.00    +0.000 C 
ATOM     24  C   UNL     1      -0.419  14.222  22.045  0.00  0.00    +0.000 C 
ENDBRANCH  18  19
ENDBRANCH  15  18
ENDBRANCH  11  12
ENDBRANCH   1  10
BRANCH   1  25
ATOM     25  C   UNL     1       4.047   4.355  20.073  0.00  0.00    +0.000 C 
BRANCH  25  35
ATOM     26  C   UNL     1       7.101   5.076  14.861  0.00  0.00    +0.000 A 
ATOM     27  C   UNL     1       6.260   4.058  14.367  0.00  0.00    +0.000 A 
ATOM     28  C   UNL     1       5.269   3.456  15.175  0.00  0.00    +0.000 A 
ATOM     29  C   UNL     1       5.136   3.885  16.490  0.00  0.00    +0.000 A 
ATOM     30  C   UNL     1       5.982   4.893  16.948  0.00  0.00    +0.000 A 
ATOM     31  C   UNL     1       6.946   5.501  16.172  0.00  0.00    +0.000 A 
ATOM     32  F   UNL     1       7.720   6.472  16.677  0.00  0.00    +0.000 F 
ATOM     33  C   UNL     1       5.683   5.165  18.331  0.00  0.00    +0.000 C 
ATOM     34  O   UNL     1       6.252   5.999  19.021  0.00  0.00    +0.000 OA
ATOM     35  N   UNL     1       4.649   4.346  18.715  0.00  0.00    +0.000 N 
ATOM     36  C   UNL     1       4.222   3.471  17.615  0.00  0.00    +0.000 C 
BRANCH  26  38
ATOM     37  C   UNL     1       8.063   5.568  12.765  0.00  0.00    +0.000 C 
ATOM     38  O   UNL     1       8.133   5.658  14.177  0.00  0.00    +0.000 OA
ENDBRANCH  26  38
ENDBRANCH  25  35
ENDBRANCH   1  25
TORSDOF 7
ENDMDL
MODEL 5
REMARK VINA RESULT:      -8.9      1.389      2.012
REMARK  Name = 
REMARK  8 active torsions:
REMARK  status: ('A' for Active; 'I' for Inactive)
REMARK    1  A    between atoms: C_1  and  O_2
REMARK    2  A    between atoms: O_2  and  C_3
REMARK    3  A    between atoms: N_12  and  C_13
REMARK    4  A    between atoms: C_13  and  C_14
REMARK    5  A    between atoms: C_14  and  C_15
REMARK    6  A    between atoms: C_16  and  C_17
REMARK    7  A    between atoms: C_20  and  C_21
REMARK    8  A    between atoms: C_21  and  N_22
REMARK                            x       y       z     vdW  Elec       q    Type
REMARK                         _______ _______ _______ _____ _____    ______ ____
ROOT
ATOM      1  C   UNL     1       2.543   4.408  20.029  0.00  0.00    +0.000 C 
ATOM      2  N   UNL     1       1.784   3.747  18.997  0.00  0.00    +0.000 N 
ATOM      3  C   UNL     1       0.788   2.958  19.519  0.00  0.00    +0.000 C 
ATOM      4  O   UNL     1       0.029   2.263  18.873  0.00  0.00    +0.000 OA
ATOM      5  N   UNL     1       0.868   2.992  20.869  0.00  0.00    +0.000 N 
ATOM      6  C   UNL     1       2.000   3.648  21.249  0.00  0.00    +0.000 C 
ATOM      7  O   UNL     1       2.465   3.648  22.381  0.00  0.00    +0.000 OA
ATOM      8  H   UNL     1       2.157   3.499  18.083  0.00  0.00    +0.000 HD
ATOM      9  H   UNL     1       0.389   2.324  21.445  0.00  0.00    +0.000 HD
ENDROOT
BRANCH   1  10
ATOM     10  C   UNL     1       2.011   5.790  20.077  0.00  0.00    +0.000 C 
ATOM     11  C   UNL     1       1.631   6.909  20.316  0.00  0.00    +0.000 C 
BRANCH  11  12
ATOM     12  C   UNL     1       1.230   8.253  20.578  0.00  0.00    +0.000 A 
ATOM     13  C   UNL     1       0.714   9.112  19.604  0.00  0.00    +0.000 A 
ATOM     14  C   UNL     1       0.321  10.409  19.973  0.00  0.00    +0.000 A 
ATOM     15  C   UNL     1       0.470  10.813  21.301  0.00  0.00    +0.000 A 
ATOM     16  N   UNL     1       0.975   9.978  22.252  0.00  0.00    +0.000 NA
ATOM     17  C   UNL     1       1.330   8.737  21.870  0.00  0.00    +0.000 A 
BRANCH  15  18
ATOM     18  C   UNL     1       0.123  12.230  21.759  0.00  0.00    +0.000 C 
BRANCH  18  19
ATOM     19  N   UNL     1       0.797  13.339  21.035  0.00  0.00    +0.000 NA
ATOM     20  C   UNL     1       2.151  12.934  20.612  0.00  0.00    +0.000 C 
ATOM     21  C   UNL     1       2.852  14.010  19.783  0.00  0.00    +0.000 C 
ATOM     22  C   UNL     1       2.006  14.416  18.584  0.00  0.00    +0.000 C 
ATOM     23  C   UNL     1       0.627  14.858  19.050  0.00  0.00    +0.000 C 
ATOM     24  C   UNL     1      -0.041  13.773  19.899  0.00  0.00    +0.000 C 
ENDBRANCH  18  19
ENDBRANCH  15  18
ENDBRANCH  11  12
ENDBRANCH   1  10
BRANCH   1  25
ATOM     25  C   UNL     1       4.096   4.331  19.937  0.00  0.00    +0.000 C 
BRANCH  25  35
ATOM     26  C   UNL     1       7.177   5.103  14.749  0.00  0.00    +0.000 A 
ATOM     27  C   UNL     1       6.337   4.091  14.240  0.00  0.00    +0.000 A 
ATOM     28  C   UNL     1       5.342   3.481  15.037  0.00  0.00    +0.000 A 
ATOM     29  C   UNL     1       5.202   3.897  16.356  0.00  0.00    +0.000 A 
ATOM     30  C   UNL     1       6.048   4.899  16.828  0.00  0.00    +0.000 A 
ATOM     31  C   UNL     1       7.016   5.514  16.063  0.00  0.00    +0.000 A 
ATOM     32  F   UNL     1       7.788   6.480  16.582  0.00  0.00    +0.000 F 
ATOM     33  C   UNL     1       5.742   5.157  18.212  0.00  0.00    +0.000 C 
ATOM     34  O   UNL     1       6.308   5.984  18.913  0.00  0.00    +0.000 OA
ATOM     35  N   UNL     1       4.705   4.336  18.583  0.00  0.00    +0.000 N 
ATOM     36  C   UNL     1       4.283   3.472  17.472  0.00  0.00    +0.000 C 
BRANCH  26  38
ATOM     37  C   UNL     1       8.219   5.504  12.671  0.00  0.00    +0.000 C 
ATOM     38  O   UNL     1       8.213   5.690  14.076  0.00  0.00    +0.000 OA
ENDBRANCH  26  38
ENDBRANCH  25  35
ENDBRANCH   1  25
TORSDOF 7
ENDMDL
MODEL 6
REMARK VINA RESULT:      -8.9      1.675      2.052
REMARK  Name = 
REMARK  8 active torsions:
REMARK  status: ('A' for Active; 'I' for Inactive)
REMARK    1  A    between atoms: C_1  and  O_2
REMARK    2  A    between atoms: O_2  and  C_3
REMARK    3  A    between atoms: N_12  and  C_13
REMARK    4  A    between atoms: C_13  and  C_14
REMARK    5  A    between atoms: C_14  and  C_15
REMARK    6  A    between atoms: C_16  and  C_17
REMARK    7  A    between atoms: C_20  and  C_21
REMARK    8  A    between atoms: C_21  and  N_22
REMARK                            x       y       z     vdW  Elec       q    Type
REMARK                         _______ _______ _______ _____ _____    ______ ____
ROOT
ATOM      1  C   UNL     1       2.449   4.464  20.161  0.00  0.00    +0.000 C 
ATOM      2  N   UNL     1       1.801   3.906  19.002  0.00  0.00    +0.000 N 
ATOM      3  C   UNL     1       0.795   3.036  19.346  0.00  0.00    +0.000 C 
ATOM      4  O   UNL     1       0.116   2.400  18.565  0.00  0.00    +0.000 OA
ATOM      5  N   UNL     1       0.764   2.917  20.694  0.00  0.00    +0.000 N 
ATOM      6  C   UNL     1       1.839   3.555  21.238  0.00  0.00    +0.000 C 
ATOM      7  O   UNL     1       2.210   3.438  22.398  0.00  0.00    +0.000 OA
ATOM      8  H   UNL     1       2.254   3.774  18.100  0.00  0.00    +0.000 HD
ATOM      9  H   UNL     1       0.266   2.175  21.148  0.00  0.00    +0.000 HD
ENDROOT
BRANCH   1  10
ATOM     10  C   UNL     1       1.866   5.817  20.319  0.00  0.00    +0.000 C 
ATOM     11  C   UNL     1       1.579   6.971  20.517  0.00  0.00    +0.000 C 
BRANCH  11  12
ATOM     12  C   UNL     1       1.247   8.347  20.697  0.00  0.00    +0.000 A 
ATOM     13  C   UNL     1       0.909   9.207  19.649  0.00  0.00    +0.000 A 
ATOM     14  C   UNL     1       0.569  10.538  19.938  0.00  0.00    +0.000 A 
ATOM     15  C   UNL     1       0.594  10.975  21.264  0.00  0.00    +0.000 A 
ATOM     16  N   UNL     1       0.925  10.139  22.288  0.00  0.00    +0.000 NA
ATOM     17  C   UNL     1       1.232   8.864  21.980  0.00  0.00    +0.000 A 
BRANCH  15  18
ATOM     18  C   UNL     1       0.298  12.426  21.644  0.00  0.00    +0.000 C 
BRANCH  18  19
ATOM     19  N   UNL     1      -0.680  12.630  22.745  0.00  0.00    +0.000 NA
ATOM     20  C   UNL     1      -0.821  14.065  23.052  0.00  0.00    +0.000 C 
ATOM     21  C   UNL     1      -1.884  14.335  24.117  0.00  0.00    +0.000 C 
ATOM     22  C   UNL     1      -3.223  13.730  23.719  0.00  0.00    +0.000 C 
ATOM     23  C   UNL     1      -3.056  12.244  23.438  0.00  0.00    +0.000 C 
ATOM     24  C   UNL     1      -1.968  12.002  22.388  0.00  0.00    +0.000 C 
ENDBRANCH  18  19
ENDBRANCH  15  18
ENDBRANCH  11  12
ENDBRANCH   1  10
BRANCH   1  25
ATOM     25  C   UNL     1       4.007   4.440  20.192  0.00  0.00    +0.000 C 
BRANCH  25  35
ATOM     26  C   UNL     1       6.633   4.324  14.706  0.00  0.00    +0.000 A 
ATOM     27  C   UNL     1       7.089   5.619  15.029  0.00  0.00    +0.000 A 
ATOM     28  C   UNL     1       6.779   6.228  16.267  0.00  0.00    +0.000 A 
ATOM     29  C   UNL     1       5.999   5.522  17.175  0.00  0.00    +0.000 A 
ATOM     30  C   UNL     1       5.564   4.245  16.825  0.00  0.00    +0.000 A 
ATOM     31  C   UNL     1       5.866   3.630  15.628  0.00  0.00    +0.000 A 
ATOM     32  F   UNL     1       5.421   2.394  15.363  0.00  0.00    +0.000 F 
ATOM     33  C   UNL     1       4.763   3.711  17.898  0.00  0.00    +0.000 C 
ATOM     34  O   UNL     1       4.236   2.608  17.897  0.00  0.00    +0.000 OA
ATOM     35  N   UNL     1       4.722   4.643  18.907  0.00  0.00    +0.000 N 
ATOM     36  C   UNL     1       5.473   5.853  18.548  0.00  0.00    +0.000 C 
BRANCH  26  38
ATOM     37  C   UNL     1       5.730   3.753  12.603  0.00  0.00    +0.000 C 
ATOM     38  O   UNL     1       6.819   3.692  13.507  0.00  0.00    +0.000 OA
ENDBRANCH  26  38
ENDBRANCH  25  35
ENDBRANCH   1  25
TORSDOF 7
ENDMDL
MODEL 7
REMARK VINA RESULT:      -8.9      1.154      1.538
REMARK  Name = 
REMARK  8 active torsions:
REMARK  status: ('A' for Active; 'I' for Inactive)
REMARK    1  A    between atoms: C_1  and  O_2
REMARK    2  A    between atoms: O_2  and  C_3
REMARK    3  A    between atoms: N_12  and  C_13
REMARK    4  A    between atoms: C_13  and  C_14
REMARK    5  A    between atoms: C_14  and  C_15
REMARK    6  A    between atoms: C_16  and  C_17
REMARK    7  A    between atoms: C_20  and  C_21
REMARK    8  A    between atoms: C_21  and  N_22
REMARK                            x       y       z     vdW  Elec       q    Type
REMARK                         _______ _______ _______ _____ _____    ______ ____
ROOT
ATOM      1  C   UNL     1       2.669   4.028  20.163  0.00  0.00    +0.000 C 
ATOM      2  N   UNL     1       1.876   3.651  19.020  0.00  0.00    +0.000 N 
ATOM      3  C   UNL     1       0.733   2.984  19.387  0.00  0.00    +0.000 C 
ATOM      4  O   UNL     1      -0.090   2.523  18.621  0.00  0.00    +0.000 OA
ATOM      5  N   UNL     1       0.734   2.824  20.730  0.00  0.00    +0.000 N 
ATOM      6  C   UNL     1       1.934   3.217  21.241  0.00  0.00    +0.000 C 
ATOM      7  O   UNL     1       2.322   2.986  22.379  0.00  0.00    +0.000 OA
ATOM      8  H   UNL     1       2.257   3.466  18.094  0.00  0.00    +0.000 HD
ATOM      9  H   UNL     1       0.116   2.178  21.187  0.00  0.00    +0.000 HD
ENDROOT
BRANCH   1  10
ATOM     10  C   UNL     1       2.372   5.462  20.386  0.00  0.00    +0.000 C 
ATOM     11  C   UNL     1       1.960   6.593  20.454  0.00  0.00    +0.000 C 
BRANCH  11  12
ATOM     12  C   UNL     1       1.453   7.920  20.584  0.00  0.00    +0.000 A 
ATOM     13  C   UNL     1       1.038   8.476  21.797  0.00  0.00    +0.000 A 
ATOM     14  C   UNL     1       0.581   9.804  21.822  0.00  0.00    +0.000 A 
ATOM     15  C   UNL     1       0.537  10.530  20.630  0.00  0.00    +0.000 A 
ATOM     16  N   UNL     1       0.939   9.990  19.445  0.00  0.00    +0.000 NA
ATOM     17  C   UNL     1       1.384   8.719  19.457  0.00  0.00    +0.000 A 
BRANCH  15  18
ATOM     18  C   UNL     1      -0.009  11.957  20.572  0.00  0.00    +0.000 C 
BRANCH  18  19
ATOM     19  N   UNL     1      -1.443  12.127  20.921  0.00  0.00    +0.000 NA
ATOM     20  C   UNL     1      -1.616  13.230  21.884  0.00  0.00    +0.000 C 
ATOM     21  C   UNL     1      -3.085  13.504  22.205  0.00  0.00    +0.000 C 
ATOM     22  C   UNL     1      -3.884  13.762  20.935  0.00  0.00    +0.000 C 
ATOM     23  C   UNL     1      -3.715  12.596  19.972  0.00  0.00    +0.000 C 
ATOM     24  C   UNL     1      -2.234  12.328  19.689  0.00  0.00    +0.000 C 
ENDBRANCH  18  19
ENDBRANCH  15  18
ENDBRANCH  11  12
ENDBRANCH   1  10
BRANCH   1  25
ATOM     25  C   UNL     1       4.190   3.696  20.120  0.00  0.00    +0.000 C 
BRANCH  25  35
ATOM     26  C   UNL     1       6.986   5.009  14.879  0.00  0.00    +0.000 A 
ATOM     27  C   UNL     1       7.581   6.065  15.599  0.00  0.00    +0.000 A 
ATOM     28  C   UNL     1       7.299   6.282  16.968  0.00  0.00    +0.000 A 
ATOM     29  C   UNL     1       6.408   5.426  17.604  0.00  0.00    +0.000 A 
ATOM     30  C   UNL     1       5.837   4.393  16.864  0.00  0.00    +0.000 A 
ATOM     31  C   UNL     1       6.108   4.158  15.532  0.00  0.00    +0.000 A 
ATOM     32  F   UNL     1       5.529   3.137  14.885  0.00  0.00    +0.000 F 
ATOM     33  C   UNL     1       4.939   3.649  17.711  0.00  0.00    +0.000 C 
ATOM     34  O   UNL     1       4.284   2.678  17.357  0.00  0.00    +0.000 OA
ATOM     35  N   UNL     1       4.972   4.207  18.966  0.00  0.00    +0.000 N 
ATOM     36  C   UNL     1       5.875   5.366  19.013  0.00  0.00    +0.000 C 
BRANCH  26  38
ATOM     37  C   UNL     1       8.140   5.539  12.891  0.00  0.00    +0.000 C 
ATOM     38  O   UNL     1       7.140   4.774  13.540  0.00  0.00    +0.000 OA
ENDBRANCH  26  38
ENDBRANCH  25  35
ENDBRANCH   1  25
TORSDOF 7
ENDMDL
MODEL 8
REMARK VINA RESULT:      -8.7      1.685      2.436
REMARK  Name = 
REMARK  8 active torsions:
REMARK  status: ('A' for Active; 'I' for Inactive)
REMARK    1  A    between atoms: C_1  and  O_2
REMARK    2  A    between atoms: O_2  and  C_3
REMARK    3  A    between atoms: N_12  and  C_13
REMARK    4  A    between atoms: C_13  and  C_14
REMARK    5  A    between atoms: C_14  and  C_15
REMARK    6  A    between atoms: C_16  and  C_17
REMARK    7  A    between atoms: C_20  and  C_21
REMARK    8  A    between atoms: C_21  and  N_22
REMARK                            x       y       z     vdW  Elec       q    Type
REMARK                         _______ _______ _______ _____ _____    ______ ____
ROOT
ATOM      1  C   UNL     1       2.579   4.097  20.072  0.00  0.00    +0.000 C 
ATOM      2  N   UNL     1       1.854   3.452  19.006  0.00  0.00    +0.000 N 
ATOM      3  C   UNL     1       0.747   2.783  19.470  0.00  0.00    +0.000 C 
ATOM      4  O   UNL     1      -0.015   2.125  18.790  0.00  0.00    +0.000 OA
ATOM      5  N   UNL     1       0.713   2.883  20.819  0.00  0.00    +0.000 N 
ATOM      6  C   UNL     1       1.865   3.454  21.270  0.00  0.00    +0.000 C 
ATOM      7  O   UNL     1       2.228   3.473  22.438  0.00  0.00    +0.000 OA
ATOM      8  H   UNL     1       2.279   3.124  18.141  0.00  0.00    +0.000 HD
ATOM      9  H   UNL     1       0.126   2.291  21.378  0.00  0.00    +0.000 HD
ENDROOT
BRANCH   1  10
ATOM     10  C   UNL     1       2.176   5.522  20.008  0.00  0.00    +0.000 C 
ATOM     11  C   UNL     1       1.848   6.671  20.164  0.00  0.00    +0.000 C 
BRANCH  11  12
ATOM     12  C   UNL     1       1.512   8.047  20.340  0.00  0.00    +0.000 A 
ATOM     13  C   UNL     1       1.338   8.944  19.284  0.00  0.00    +0.000 A 
ATOM     14  C   UNL     1       0.979  10.272  19.564  0.00  0.00    +0.000 A 
ATOM     15  C   UNL     1       0.822  10.668  20.894  0.00  0.00    +0.000 A 
ATOM     16  N   UNL     1       0.994   9.796  21.927  0.00  0.00    +0.000 NA
ATOM     17  C   UNL     1       1.324   8.525  21.624  0.00  0.00    +0.000 A 
BRANCH  15  18
ATOM     18  C   UNL     1       0.496  12.112  21.276  0.00  0.00    +0.000 C 
BRANCH  18  19
ATOM     19  N   UNL     1       0.693  13.133  20.214  0.00  0.00    +0.000 NA
ATOM     20  C   UNL     1      -0.475  14.030  20.135  0.00  0.00    +0.000 C 
ATOM     21  C   UNL     1      -0.282  15.155  19.117  0.00  0.00    +0.000 C 
ATOM     22  C   UNL     1       0.989  15.941  19.405  0.00  0.00    +0.000 C 
ATOM     23  C   UNL     1       2.182  14.998  19.450  0.00  0.00    +0.000 C 
ATOM     24  C   UNL     1       1.951  13.868  20.457  0.00  0.00    +0.000 C 
ENDBRANCH  18  19
ENDBRANCH  15  18
ENDBRANCH  11  12
ENDBRANCH   1  10
BRANCH   1  25
ATOM     25  C   UNL     1       4.120   3.878  20.125  0.00  0.00    +0.000 C 
BRANCH  25  35
ATOM     26  C   UNL     1       6.985   5.041  14.886  0.00  0.00    +0.000 A 
ATOM     27  C   UNL     1       7.595   6.098  15.592  0.00  0.00    +0.000 A 
ATOM     28  C   UNL     1       7.306   6.344  16.954  0.00  0.00    +0.000 A 
ATOM     29  C   UNL     1       6.393   5.518  17.598  0.00  0.00    +0.000 A 
ATOM     30  C   UNL     1       5.808   4.483  16.871  0.00  0.00    +0.000 A 
ATOM     31  C   UNL     1       6.085   4.219  15.546  0.00  0.00    +0.000 A 
ATOM     32  F   UNL     1       5.492   3.198  14.913  0.00  0.00    +0.000 F 
ATOM     33  C   UNL     1       4.888   3.772  17.723  0.00  0.00    +0.000 C 
ATOM     34  O   UNL     1       4.217   2.809  17.382  0.00  0.00    +0.000 OA
ATOM     35  N   UNL     1       4.921   4.352  18.968  0.00  0.00    +0.000 N 
ATOM     36  C   UNL     1       5.846   5.493  19.002  0.00  0.00    +0.000 C 
BRANCH  26  38
ATOM     37  C   UNL     1       8.178   5.499  12.903  0.00  0.00    +0.000 C 
ATOM     38  O   UNL     1       7.145   4.779  13.553  0.00  0.00    +0.000 OA
ENDBRANCH  26  38
ENDBRANCH  25  35
ENDBRANCH   1  25
TORSDOF 7
ENDMDL
MODEL 9
REMARK VINA RESULT:      -8.7      1.741      2.466
REMARK  Name = 
REMARK  8 active torsions:
REMARK  status: ('A' for Active; 'I' for Inactive)
REMARK    1  A    between atoms: C_1  and  O_2
REMARK    2  A    between atoms: O_2  and  C_3
REMARK    3  A    between atoms: N_12  and  C_13
REMARK    4  A    between atoms: C_13  and  C_14
REMARK    5  A    between atoms: C_14  and  C_15
REMARK    6  A    between atoms: C_16  and  C_17
REMARK    7  A    between atoms: C_20  and  C_21
REMARK    8  A    between atoms: C_21  and  N_22
REMARK                            x       y       z     vdW  Elec       q    Type
REMARK                         _______ _______ _______ _____ _____    ______ ____
ROOT
ATOM      1  C   UNL     1       2.664   4.016  20.118  0.00  0.00    +0.000 C 
ATOM      2  N   UNL     1       1.850   3.492  19.051  0.00  0.00    +0.000 N 
ATOM      3  C   UNL     1       0.720   2.872  19.525  0.00  0.00    +0.000 C 
ATOM      4  O   UNL     1      -0.116   2.313  18.843  0.00  0.00    +0.000 OA
ATOM      5  N   UNL     1       0.751   2.886  20.878  0.00  0.00    +0.000 N 
ATOM      6  C   UNL     1       1.959   3.347  21.307  0.00  0.00    +0.000 C 
ATOM      7  O   UNL     1       2.372   3.266  22.456  0.00  0.00    +0.000 OA
ATOM      8  H   UNL     1       2.213   3.192  18.148  0.00  0.00    +0.000 HD
ATOM      9  H   UNL     1       0.148   2.301  21.427  0.00  0.00    +0.000 HD
ENDROOT
BRANCH   1  10
ATOM     10  C   UNL     1       2.362   5.466  20.162  0.00  0.00    +0.000 C 
ATOM     11  C   UNL     1       1.942   6.588  20.297  0.00  0.00    +0.000 C 
BRANCH  11  12
ATOM     12  C   UNL     1       1.481   7.922  20.501  0.00  0.00    +0.000 A 
ATOM     13  C   UNL     1       1.082   8.424  21.742  0.00  0.00    +0.000 A 
ATOM     14  C   UNL     1       0.671   9.763  21.840  0.00  0.00    +0.000 A 
ATOM     15  C   UNL     1       0.655  10.556  20.691  0.00  0.00    +0.000 A 
ATOM     16  N   UNL     1       1.042  10.069  19.478  0.00  0.00    +0.000 NA
ATOM     17  C   UNL     1       1.444   8.784  19.420  0.00  0.00    +0.000 A 
BRANCH  15  18
ATOM     18  C   UNL     1       0.159  12.002  20.712  0.00  0.00    +0.000 C 
BRANCH  18  19
ATOM     19  N   UNL     1       1.183  13.051  20.468  0.00  0.00    +0.000 NA
ATOM     20  C   UNL     1       1.059  13.588  19.100  0.00  0.00    +0.000 C 
ATOM     21  C   UNL     1       2.032  14.735  18.830  0.00  0.00    +0.000 C 
ATOM     22  C   UNL     1       1.876  15.841  19.864  0.00  0.00    +0.000 C 
ATOM     23  C   UNL     1       2.039  15.267  21.264  0.00  0.00    +0.000 C 
ATOM     24  C   UNL     1       1.071  14.104  21.498  0.00  0.00    +0.000 C 
ENDBRANCH  18  19
ENDBRANCH  15  18
ENDBRANCH  11  12
ENDBRANCH   1  10
BRANCH   1  25
ATOM     25  C   UNL     1       4.187   3.689  20.084  0.00  0.00    +0.000 C 
BRANCH  25  35
ATOM     26  C   UNL     1       6.995   5.216  14.908  0.00  0.00    +0.000 A 
ATOM     27  C   UNL     1       7.650   6.189  15.691  0.00  0.00    +0.000 A 
ATOM     28  C   UNL     1       7.393   6.325  17.075  0.00  0.00    +0.000 A 
ATOM     29  C   UNL     1       6.465   5.474  17.663  0.00  0.00    +0.000 A 
ATOM     30  C   UNL     1       5.836   4.523  16.862  0.00  0.00    +0.000 A 
ATOM     31  C   UNL     1       6.082   4.367  15.514  0.00  0.00    +0.000 A 
ATOM     32  F   UNL     1       5.446   3.422  14.807  0.00  0.00    +0.000 F 
ATOM     33  C   UNL     1       4.910   3.769  17.668  0.00  0.00    +0.000 C 
ATOM     34  O   UNL     1       4.203   2.859  17.258  0.00  0.00    +0.000 OA
ATOM     35  N   UNL     1       4.982   4.238  18.957  0.00  0.00    +0.000 N 
ATOM     36  C   UNL     1       5.943   5.344  19.071  0.00  0.00    +0.000 C 
BRANCH  26  38
ATOM     37  C   UNL     1       8.302   5.608  12.985  0.00  0.00    +0.000 C 
ATOM     38  O   UNL     1       7.124   5.066  13.555  0.00  0.00    +0.000 OA
ENDBRANCH  26  38
ENDBRANCH  25  35
ENDBRANCH   1  25
TORSDOF 7
ENDMDL
