MODEL 1
REMARK VINA RESULT:      -8.6      0.000      0.000
REMARK  Name = 
REMARK  10 active torsions:
REMARK  status: ('A' for Active; 'I' for Inactive)
REMARK    1  A    between atoms: C_1  and  C_2
REMARK    2  A    between atoms: C_2  and  C_3
REMARK    3  A    between atoms: C_10  and  C_11
REMARK    4  A    between atoms: C_12  and  C_13
REMARK    5  A    between atoms: C_13  and  N_14
REMARK    6  A    between atoms: N_14  and  C_15
REMARK    7  A    between atoms: N_14  and  C_16
REMARK    8  A    between atoms: C_31  and  O_32
REMARK    9  A    between atoms: C_31  and  C_33
REMARK   10  A    between atoms: C_33  and  C_34
REMARK                            x       y       z     vdW  Elec       q    Type
REMARK                         _______ _______ _______ _____ _____    ______ ____
ROOT
ATOM      1  C   UNL     1       1.019  10.434  19.720  0.00  0.00    +0.000 A 
ATOM      2  C   UNL     1       1.605   9.211  19.421  0.00  0.00    +0.000 A 
ATOM      3  C   UNL     1       1.470   8.131  20.290  0.00  0.00    +0.000 A 
ATOM      4  N   UNL     1       0.798   8.176  21.452  0.00  0.00    +0.000 NA
ATOM      5  C   UNL     1       0.247   9.385  21.782  0.00  0.00    +0.000 A 
ATOM      6  C   UNL     1      -0.474   9.573  22.964  0.00  0.00    +0.000 A 
ATOM      7  N   UNL     1      -1.063  10.734  23.397  0.00  0.00    +0.000 NA
ATOM      8  C   UNL     1      -0.923  11.804  22.601  0.00  0.00    +0.000 A 
ATOM      9  C   UNL     1      -0.233  11.757  21.399  0.00  0.00    +0.000 A 
ATOM     10  C   UNL     1       0.344  10.544  20.959  0.00  0.00    +0.000 A 
ATOM     11  C   UNL     1       2.139   6.971  19.660  0.00  0.00    +0.000 A 
ATOM     12  C   UNL     1       2.299   5.688  20.025  0.00  0.00    +0.000 A 
ATOM     13  C   UNL     1       2.985   4.748  19.116  0.00  0.00    +0.000 A 
ATOM     14  C   UNL     1       3.528   5.207  17.975  0.00  0.00    +0.000 A 
ATOM     15  C   UNL     1       3.407   6.645  17.598  0.00  0.00    +0.000 A 
ATOM     16  O   UNL     1       3.924   7.075  16.572  0.00  0.00    +0.000 OA
ATOM     17  N   UNL     1       2.674   7.409  18.462  0.00  0.00    +0.000 N 
ATOM     18  C   UNL     1       2.404   8.817  18.221  0.00  0.00    +0.000 C 
ATOM     19  C   UNL     1       4.274   4.376  16.998  0.00  0.00    +0.000 C 
ATOM     20  O   UNL     1       4.198   2.959  17.220  0.00  0.00    +0.000 OA
ATOM     21  C   UNL     1       3.675   2.377  18.315  0.00  0.00    +0.000 C 
ATOM     22  O   UNL     1       3.712   1.150  18.410  0.00  0.00    +0.000 OA
ATOM     23  C   UNL     1       3.116   3.278  19.464  0.00  0.00    +0.000 C 
ENDROOT
BRANCH   1  25
ATOM     24  C   UNL     1       2.260  12.505  18.997  0.00  0.00    +0.000 C 
ATOM     25  C   UNL     1       1.101  11.564  18.720  0.00  0.00    +0.000 C 
ENDBRANCH   1  25
BRANCH   8  26
ATOM     26  C   UNL     1      -1.529  13.028  23.029  0.00  0.00    +0.000 C 
ATOM     27  C   UNL     1      -1.962  14.080  23.437  0.00  0.00    +0.000 C 
BRANCH  27  28
ATOM     28  C   UNL     1      -2.463  15.370  23.956  0.00  0.00    +0.000 C 
BRANCH  28  29
ATOM     29  N   UNL     1      -3.819  15.269  24.529  0.00  0.00    +0.000 NA
ATOM     30  C   UNL     1      -4.300  16.602  24.911  0.00  0.00    +0.000 C 
ATOM     31  C   UNL     1      -4.765  14.672  23.582  0.00  0.00    +0.000 C 
ENDBRANCH  28  29
ENDBRANCH  27  28
ENDBRANCH   8  26
BRANCH  23  32
ATOM     32  O   UNL     1       4.025   3.215  20.578  0.00  0.00    +0.000 OA
ATOM     33  H   UNL     1       4.782   3.797  20.379  0.00  0.00    +0.000 HD
ENDBRANCH  23  32
BRANCH  23  34
ATOM     34  C   UNL     1       1.793   2.624  19.941  0.00  0.00    +0.000 C 
ATOM     35  C   UNL     1       0.696   2.547  18.887  0.00  0.00    +0.000 C 
ENDBRANCH  23  34
TORSDOF 6
ENDMDL
MODEL 2
REMARK VINA RESULT:      -8.5      0.774      1.066
REMARK  Name = 
REMARK  10 active torsions:
REMARK  status: ('A' for Active; 'I' for Inactive)
REMARK    1  A    between atoms: C_1  and  C_2
REMARK    2  A    between atoms: C_2  and  C_3
REMARK    3  A    between atoms: C_10  and  C_11
REMARK    4  A    between atoms: C_12  and  C_13
REMARK    5  A    between atoms: C_13  and  N_14
REMARK    6  A    between atoms: N_14  and  C_15
REMARK    7  A    between atoms: N_14  and  C_16
REMARK    8  A    between atoms: C_31  and  O_32
REMARK    9  A    between atoms: C_31  and  C_33
REMARK   10  A    between atoms: C_33  and  C_34
REMARK                            x       y       z     vdW  Elec       q    Type
REMARK                         _______ _______ _______ _____ _____    ______ ____
ROOT
ATOM      1  C   UNL     1       0.977  10.531  19.739  0.00  0.00    +0.000 A 
ATOM      2  C   UNL     1       1.555   9.302  19.449  0.00  0.00    +0.000 A 
ATOM      3  C   UNL     1       1.413   8.228  20.324  0.00  0.00    +0.000 A 
ATOM      4  N   UNL     1       0.741   8.285  21.485  0.00  0.00    +0.000 NA
ATOM      5  C   UNL     1       0.197   9.499  21.807  0.00  0.00    +0.000 A 
ATOM      6  C   UNL     1      -0.523   9.699  22.987  0.00  0.00    +0.000 A 
ATOM      7  N   UNL     1      -1.106  10.866  23.413  0.00  0.00    +0.000 NA
ATOM      8  C   UNL     1      -0.959  11.930  22.610  0.00  0.00    +0.000 A 
ATOM      9  C   UNL     1      -0.269  11.871  21.409  0.00  0.00    +0.000 A 
ATOM     10  C   UNL     1       0.302  10.652  20.977  0.00  0.00    +0.000 A 
ATOM     11  C   UNL     1       2.076   7.060  19.702  0.00  0.00    +0.000 A 
ATOM     12  C   UNL     1       2.228   5.779  20.075  0.00  0.00    +0.000 A 
ATOM     13  C   UNL     1       2.909   4.829  19.173  0.00  0.00    +0.000 A 
ATOM     14  C   UNL     1       3.456   5.277  18.029  0.00  0.00    +0.000 A 
ATOM     15  C   UNL     1       3.344   6.714  17.643  0.00  0.00    +0.000 A 
ATOM     16  O   UNL     1       3.864   7.135  16.614  0.00  0.00    +0.000 OA
ATOM     17  N   UNL     1       2.615   7.488  18.501  0.00  0.00    +0.000 N 
ATOM     18  C   UNL     1       2.353   8.896  18.251  0.00  0.00    +0.000 C 
ATOM     19  C   UNL     1       4.197   4.436  17.057  0.00  0.00    +0.000 C 
ATOM     20  O   UNL     1       4.112   3.022  17.288  0.00  0.00    +0.000 OA
ATOM     21  C   UNL     1       3.585   2.449  18.387  0.00  0.00    +0.000 C 
ATOM     22  O   UNL     1       3.615   1.223  18.490  0.00  0.00    +0.000 OA
ATOM     23  C   UNL     1       3.031   3.361  19.530  0.00  0.00    +0.000 C 
ENDROOT
BRANCH   1  25
ATOM     24  C   UNL     1       2.260  12.560  18.974  0.00  0.00    +0.000 C 
ATOM     25  C   UNL     1       1.066  11.653  18.732  0.00  0.00    +0.000 C 
ENDBRANCH   1  25
BRANCH   8  26
ATOM     26  C   UNL     1      -1.558  13.161  23.029  0.00  0.00    +0.000 C 
ATOM     27  C   UNL     1      -2.037  14.178  23.471  0.00  0.00    +0.000 C 
BRANCH  27  28
ATOM     28  C   UNL     1      -2.616  15.413  24.043  0.00  0.00    +0.000 C 
BRANCH  28  29
ATOM     29  N   UNL     1      -1.627  16.217  24.787  0.00  0.00    +0.000 NA
ATOM     30  C   UNL     1      -2.138  17.579  24.983  0.00  0.00    +0.000 C 
ATOM     31  C   UNL     1      -1.323  15.627  26.094  0.00  0.00    +0.000 C 
ENDBRANCH  28  29
ENDBRANCH  27  28
ENDBRANCH   8  26
BRANCH  23  32
ATOM     32  O   UNL     1       3.939   3.299  20.644  0.00  0.00    +0.000 OA
ATOM     33  H   UNL     1       4.614   3.992  20.519  0.00  0.00    +0.000 HD
ENDBRANCH  23  32
BRANCH  23  34
ATOM     34  C   UNL     1       1.704   2.718  20.010  0.00  0.00    +0.000 C 
ATOM     35  C   UNL     1       1.556   2.599  21.521  0.00  0.00    +0.000 C 
ENDBRANCH  23  34
TORSDOF 6
ENDMDL
MODEL 3
REMARK VINA RESULT:      -8.4      0.828      1.059
REMARK  Name = 
REMARK  10 active torsions:
REMARK  status: ('A' for Active; 'I' for Inactive)
REMARK    1  A    between atoms: C_1  and  C_2
REMARK    2  A    between atoms: C_2  and  C_3
REMARK    3  A    between atoms: C_10  and  C_11
REMARK    4  A    between atoms: C_12  and  C_13
REMARK    5  A    between atoms: C_13  and  N_14
REMARK    6  A    between atoms: N_14  and  C_15
REMARK    7  A    between atoms: N_14  and  C_16
REMARK    8  A    between atoms: C_31  and  O_32
REMARK    9  A    between atoms: C_31  and  C_33
REMARK   10  A    between atoms: C_33  and  C_34
REMARK                            x       y       z     vdW  Elec       q    Type
REMARK                         _______ _______ _______ _____ _____    ______ ____
ROOT
ATOM      1  C   UNL     1       0.989  10.476  19.710  0.00  0.00    +0.000 A 
ATOM      2  C   UNL     1       1.571   9.248  19.425  0.00  0.00    +0.000 A 
ATOM      3  C   UNL     1       1.425   8.175  20.301  0.00  0.00    +0.000 A 
ATOM      4  N   UNL     1       0.745   8.232  21.458  0.00  0.00    +0.000 NA
ATOM      5  C   UNL     1       0.197   9.446  21.775  0.00  0.00    +0.000 A 
ATOM      6  C   UNL     1      -0.530   9.646  22.950  0.00  0.00    +0.000 A 
ATOM      7  N   UNL     1      -1.117  10.813  23.371  0.00  0.00    +0.000 NA
ATOM      8  C   UNL     1      -0.966  11.876  22.568  0.00  0.00    +0.000 A 
ATOM      9  C   UNL     1      -0.269  11.817  21.371  0.00  0.00    +0.000 A 
ATOM     10  C   UNL     1       0.306  10.598  20.944  0.00  0.00    +0.000 A 
ATOM     11  C   UNL     1       2.093   7.007  19.684  0.00  0.00    +0.000 A 
ATOM     12  C   UNL     1       2.244   5.727  20.060  0.00  0.00    +0.000 A 
ATOM     13  C   UNL     1       2.932   4.776  19.163  0.00  0.00    +0.000 A 
ATOM     14  C   UNL     1       3.486   5.224  18.022  0.00  0.00    +0.000 A 
ATOM     15  C   UNL     1       3.374   6.659  17.634  0.00  0.00    +0.000 A 
ATOM     16  O   UNL     1       3.900   7.080  16.608  0.00  0.00    +0.000 OA
ATOM     17  N   UNL     1       2.639   7.434  18.487  0.00  0.00    +0.000 N 
ATOM     18  C   UNL     1       2.376   8.841  18.234  0.00  0.00    +0.000 C 
ATOM     19  C   UNL     1       4.234   4.382  17.057  0.00  0.00    +0.000 C 
ATOM     20  O   UNL     1       4.150   2.968  17.289  0.00  0.00    +0.000 OA
ATOM     21  C   UNL     1       3.616   2.396  18.385  0.00  0.00    +0.000 C 
ATOM     22  O   UNL     1       3.647   1.170  18.489  0.00  0.00    +0.000 OA
ATOM     23  C   UNL     1       3.054   3.309  19.523  0.00  0.00    +0.000 C 
ENDROOT
BRANCH   1  25
ATOM     24  C   UNL     1       2.248  12.532  18.977  0.00  0.00    +0.000 C 
ATOM     25  C   UNL     1       1.083  11.598  18.703  0.00  0.00    +0.000 C 
ENDBRANCH   1  25
BRANCH   8  26
ATOM     26  C   UNL     1      -1.570  13.107  22.982  0.00  0.00    +0.000 C 
ATOM     27  C   UNL     1      -2.111  14.155  23.243  0.00  0.00    +0.000 C 
BRANCH  27  28
ATOM     28  C   UNL     1      -2.783  15.440  23.529  0.00  0.00    +0.000 C 
BRANCH  28  29
ATOM     29  N   UNL     1      -3.020  16.245  22.315  0.00  0.00    +0.000 NA
ATOM     30  C   UNL     1      -1.738  16.606  21.698  0.00  0.00    +0.000 C 
ATOM     31  C   UNL     1      -3.836  15.522  21.336  0.00  0.00    +0.000 C 
ENDBRANCH  28  29
ENDBRANCH  27  28
ENDBRANCH   8  26
BRANCH  23  32
ATOM     32  O   UNL     1       3.955   3.250  20.643  0.00  0.00    +0.000 OA
ATOM     33  H   UNL     1       4.846   3.052  20.300  0.00  0.00    +0.000 HD
ENDBRANCH  23  32
BRANCH  23  34
ATOM     34  C   UNL     1       1.725   2.664  19.995  0.00  0.00    +0.000 C 
ATOM     35  C   UNL     1       1.550   2.583  21.506  0.00  0.00    +0.000 C 
ENDBRANCH  23  34
TORSDOF 6
ENDMDL
MODEL 4
REMARK VINA RESULT:      -8.2      2.125      3.803
REMARK  Name = 
REMARK  10 active torsions:
REMARK  status: ('A' for Active; 'I' for Inactive)
REMARK    1  A    between atoms: C_1  and  C_2
REMARK    2  A    between atoms: C_2  and  C_3
REMARK    3  A    between atoms: C_10  and  C_11
REMARK    4  A    between atoms: C_12  and  C_13
REMARK    5  A    between atoms: C_13  and  N_14
REMARK    6  A    between atoms: N_14  and  C_15
REMARK    7  A    between atoms: N_14  and  C_16
REMARK    8  A    between atoms: C_31  and  O_32
REMARK    9  A    between atoms: C_31  and  C_33
REMARK   10  A    between atoms: C_33  and  C_34
REMARK                            x       y       z     vdW  Elec       q    Type
REMARK                         _______ _______ _______ _____ _____    ______ ____
ROOT
ATOM      1  C   UNL     1       0.188   9.145  20.818  0.00  0.00    +0.000 A 
ATOM      2  C   UNL     1       1.121   8.283  20.257  0.00  0.00    +0.000 A 
ATOM      3  C   UNL     1       1.838   8.658  19.122  0.00  0.00    +0.000 A 
ATOM      4  N   UNL     1       1.689   9.832  18.489  0.00  0.00    +0.000 NA
ATOM      5  C   UNL     1       0.745  10.679  19.005  0.00  0.00    +0.000 A 
ATOM      6  C   UNL     1       0.484  11.930  18.441  0.00  0.00    +0.000 A 
ATOM      7  N   UNL     1      -0.436  12.854  18.867  0.00  0.00    +0.000 NA
ATOM      8  C   UNL     1      -1.169  12.512  19.937  0.00  0.00    +0.000 A 
ATOM      9  C   UNL     1      -1.013  11.301  20.594  0.00  0.00    +0.000 A 
ATOM     10  C   UNL     1      -0.040  10.374  20.154  0.00  0.00    +0.000 A 
ATOM     11  C   UNL     1       2.789   7.564  18.820  0.00  0.00    +0.000 A 
ATOM     12  C   UNL     1       3.727   7.394  17.875  0.00  0.00    +0.000 A 
ATOM     13  C   UNL     1       4.569   6.180  17.889  0.00  0.00    +0.000 A 
ATOM     14  C   UNL     1       4.322   5.213  18.790  0.00  0.00    +0.000 A 
ATOM     15  C   UNL     1       3.237   5.372  19.801  0.00  0.00    +0.000 A 
ATOM     16  O   UNL     1       2.989   4.482  20.608  0.00  0.00    +0.000 OA
ATOM     17  N   UNL     1       2.580   6.570  19.760  0.00  0.00    +0.000 N 
ATOM     18  C   UNL     1       1.536   6.921  20.709  0.00  0.00    +0.000 C 
ATOM     19  C   UNL     1       5.067   3.933  18.884  0.00  0.00    +0.000 C 
ATOM     20  O   UNL     1       6.257   3.861  18.085  0.00  0.00    +0.000 OA
ATOM     21  C   UNL     1       6.618   4.766  17.155  0.00  0.00    +0.000 C 
ATOM     22  O   UNL     1       7.640   4.567  16.498  0.00  0.00    +0.000 OA
ATOM     23  C   UNL     1       5.686   5.991  16.882  0.00  0.00    +0.000 C 
ENDROOT
BRANCH   1  25
ATOM     24  C   UNL     1       0.033   9.496  23.309  0.00  0.00    +0.000 C 
ATOM     25  C   UNL     1      -0.511   8.755  22.100  0.00  0.00    +0.000 C 
ENDBRANCH   1  25
BRANCH   8  26
ATOM     26  C   UNL     1      -2.136  13.458  20.405  0.00  0.00    +0.000 C 
ATOM     27  C   UNL     1      -2.933  14.227  20.887  0.00  0.00    +0.000 C 
BRANCH  27  28
ATOM     28  C   UNL     1      -3.901  15.155  21.508  0.00  0.00    +0.000 C 
BRANCH  28  29
ATOM     29  N   UNL     1      -4.558  14.584  22.700  0.00  0.00    +0.000 NA
ATOM     30  C   UNL     1      -5.269  13.353  22.336  0.00  0.00    +0.000 C 
ATOM     31  C   UNL     1      -3.591  14.283  23.759  0.00  0.00    +0.000 C 
ENDBRANCH  28  29
ENDBRANCH  27  28
ENDBRANCH   8  26
BRANCH  23  32
ATOM     32  O   UNL     1       5.044   5.802  15.609  0.00  0.00    +0.000 OA
ATOM     33  H   UNL     1       4.657   4.907  15.598  0.00  0.00    +0.000 HD
ENDBRANCH  23  32
BRANCH  23  34
ATOM     34  C   UNL     1       6.609   7.228  16.728  0.00  0.00    +0.000 C 
ATOM     35  C   UNL     1       7.599   7.439  17.866  0.00  0.00    +0.000 C 
ENDBRANCH  23  34
TORSDOF 6
ENDMDL
MODEL 5
REMARK VINA RESULT:      -7.8      2.308      3.878
REMARK  Name = 
REMARK  10 active torsions:
REMARK  status: ('A' for Active; 'I' for Inactive)
REMARK    1  A    between atoms: C_1  and  C_2
REMARK    2  A    between atoms: C_2  and  C_3
REMARK    3  A    between atoms: C_10  and  C_11
REMARK    4  A    between atoms: C_12  and  C_13
REMARK    5  A    between atoms: C_13  and  N_14
REMARK    6  A    between atoms: N_14  and  C_15
REMARK    7  A    between atoms: N_14  and  C_16
REMARK    8  A    between atoms: C_31  and  O_32
REMARK    9  A    between atoms: C_31  and  C_33
REMARK   10  A    between atoms: C_33  and  C_34
REMARK                            x       y       z     vdW  Elec       q    Type
REMARK                         _______ _______ _______ _____ _____    ______ ____
ROOT
ATOM      1  C   UNL     1       0.217   9.285  20.883  0.00  0.00    +0.000 A 
ATOM      2  C   UNL     1       1.125   8.399  20.317  0.00  0.00    +0.000 A 
ATOM      3  C   UNL     1       1.853   8.758  19.186  0.00  0.00    +0.000 A 
ATOM      4  N   UNL     1       1.740   9.940  18.560  0.00  0.00    +0.000 NA
ATOM      5  C   UNL     1       0.821  10.812  19.080  0.00  0.00    +0.000 A 
ATOM      6  C   UNL     1       0.598  12.073  18.523  0.00  0.00    +0.000 A 
ATOM      7  N   UNL     1      -0.294  13.022  18.955  0.00  0.00    +0.000 NA
ATOM      8  C   UNL     1      -1.037  12.696  20.022  0.00  0.00    +0.000 A 
ATOM      9  C   UNL     1      -0.918  11.477  20.672  0.00  0.00    +0.000 A 
ATOM     10  C   UNL     1       0.026  10.523  20.227  0.00  0.00    +0.000 A 
ATOM     11  C   UNL     1       2.771   7.638  18.878  0.00  0.00    +0.000 A 
ATOM     12  C   UNL     1       3.704   7.445  17.932  0.00  0.00    +0.000 A 
ATOM     13  C   UNL     1       4.509   6.207  17.939  0.00  0.00    +0.000 A 
ATOM     14  C   UNL     1       4.233   5.242  18.834  0.00  0.00    +0.000 A 
ATOM     15  C   UNL     1       3.153   5.428  19.845  0.00  0.00    +0.000 A 
ATOM     16  O   UNL     1       2.877   4.541  20.647  0.00  0.00    +0.000 OA
ATOM     17  N   UNL     1       2.532   6.646  19.812  0.00  0.00    +0.000 N 
ATOM     18  C   UNL     1       1.499   7.021  20.762  0.00  0.00    +0.000 C 
ATOM     19  C   UNL     1       4.939   3.940  18.921  0.00  0.00    +0.000 C 
ATOM     20  O   UNL     1       6.127   3.837  18.122  0.00  0.00    +0.000 OA
ATOM     21  C   UNL     1       6.515   4.736  17.197  0.00  0.00    +0.000 C 
ATOM     22  O   UNL     1       7.531   4.510  16.540  0.00  0.00    +0.000 OA
ATOM     23  C   UNL     1       5.621   5.990  16.932  0.00  0.00    +0.000 C 
ENDROOT
BRANCH   1  25
ATOM     24  C   UNL     1       0.210   9.440  23.399  0.00  0.00    +0.000 C 
ATOM     25  C   UNL     1      -0.493   8.909  22.163  0.00  0.00    +0.000 C 
ENDBRANCH   1  25
BRANCH   8  26
ATOM     26  C   UNL     1      -1.976  13.668  20.495  0.00  0.00    +0.000 C 
ATOM     27  C   UNL     1      -2.803  14.492  20.806  0.00  0.00    +0.000 C 
BRANCH  27  28
ATOM     28  C   UNL     1      -3.824  15.501  21.155  0.00  0.00    +0.000 C 
BRANCH  28  29
ATOM     29  N   UNL     1      -3.277  16.870  21.223  0.00  0.00    +0.000 NA
ATOM     30  C   UNL     1      -2.297  16.962  22.312  0.00  0.00    +0.000 C 
ATOM     31  C   UNL     1      -2.632  17.259  19.965  0.00  0.00    +0.000 C 
ENDBRANCH  28  29
ENDBRANCH  27  28
ENDBRANCH   8  26
BRANCH  23  32
ATOM     32  O   UNL     1       4.974   5.828  15.657  0.00  0.00    +0.000 OA
ATOM     33  H   UNL     1       5.657   5.594  15.002  0.00  0.00    +0.000 HD
ENDBRANCH  23  32
BRANCH  23  34
ATOM     34  C   UNL     1       6.581   7.199  16.785  0.00  0.00    +0.000 C 
ATOM     35  C   UNL     1       7.550   7.397  17.943  0.00  0.00    +0.000 C 
ENDBRANCH  23  34
TORSDOF 6
ENDMDL
MODEL 6
REMARK VINA RESULT:      -7.5      1.315      1.558
REMARK  Name = 
REMARK  10 active torsions:
REMARK  status: ('A' for Active; 'I' for Inactive)
REMARK    1  A    between atoms: C_1  and  C_2
REMARK    2  A    between atoms: C_2  and  C_3
REMARK    3  A    between atoms: C_10  and  C_11
REMARK    4  A    between atoms: C_12  and  C_13
REMARK    5  A    between atoms: C_13  and  N_14
REMARK    6  A    between atoms: N_14  and  C_15
REMARK    7  A    between atoms: N_14  and  C_16
REMARK    8  A    between atoms: C_31  and  O_32
REMARK    9  A    between atoms: C_31  and  C_33
REMARK   10  A    between atoms: C_33  and  C_34
REMARK                            x       y       z     vdW  Elec       q    Type
REMARK                         _______ _______ _______ _____ _____    ______ ____
ROOT
ATOM      1  C   UNL     1       0.351  11.484  19.798  0.00  0.00    +0.000 A 
ATOM      2  C   UNL     1       0.956  10.255  19.567  0.00  0.00    +0.000 A 
ATOM      3  C   UNL     1       0.823   9.217  20.487  0.00  0.00    +0.000 A 
ATOM      4  N   UNL     1       0.136   9.311  21.636  0.00  0.00    +0.000 NA
ATOM      5  C   UNL     1      -0.435  10.527  21.899  0.00  0.00    +0.000 A 
ATOM      6  C   UNL     1      -1.173  10.763  23.061  0.00  0.00    +0.000 A 
ATOM      7  N   UNL     1      -1.783  11.936  23.430  0.00  0.00    +0.000 NA
ATOM      8  C   UNL     1      -1.646  12.967  22.584  0.00  0.00    +0.000 A 
ATOM      9  C   UNL     1      -0.940  12.871  21.395  0.00  0.00    +0.000 A 
ATOM     10  C   UNL     1      -0.341  11.645  21.021  0.00  0.00    +0.000 A 
ATOM     11  C   UNL     1       1.515   8.036  19.923  0.00  0.00    +0.000 A 
ATOM     12  C   UNL     1       1.687   6.776  20.353  0.00  0.00    +0.000 A 
ATOM     13  C   UNL     1       2.396   5.801  19.500  0.00  0.00    +0.000 A 
ATOM     14  C   UNL     1       2.949   6.210  18.344  0.00  0.00    +0.000 A 
ATOM     15  C   UNL     1       2.814   7.626  17.896  0.00  0.00    +0.000 A 
ATOM     16  O   UNL     1       3.339   8.013  16.856  0.00  0.00    +0.000 OA
ATOM     17  N   UNL     1       2.061   8.423  18.711  0.00  0.00    +0.000 N 
ATOM     18  C   UNL     1       1.775   9.813  18.398  0.00  0.00    +0.000 C 
ATOM     19  C   UNL     1       3.718   5.342  17.419  0.00  0.00    +0.000 C 
ATOM     20  O   UNL     1       3.657   3.938  17.710  0.00  0.00    +0.000 OA
ATOM     21  C   UNL     1       3.127   3.403  18.826  0.00  0.00    +0.000 C 
ATOM     22  O   UNL     1       3.178   2.183  18.982  0.00  0.00    +0.000 OA
ATOM     23  C   UNL     1       2.542   4.352  19.922  0.00  0.00    +0.000 C 
ENDROOT
BRANCH   1  25
ATOM     24  C   UNL     1       1.680  13.418  18.880  0.00  0.00    +0.000 C 
ATOM     25  C   UNL     1       0.432  12.564  18.744  0.00  0.00    +0.000 C 
ENDBRANCH   1  25
BRANCH   8  26
ATOM     26  C   UNL     1      -2.273  14.203  22.943  0.00  0.00    +0.000 C 
ATOM     27  C   UNL     1      -2.763  15.284  23.169  0.00  0.00    +0.000 C 
BRANCH  27  28
ATOM     28  C   UNL     1      -3.345  16.620  23.419  0.00  0.00    +0.000 C 
BRANCH  28  29
ATOM     29  N   UNL     1      -4.515  16.903  22.566  0.00  0.00    +0.000 NA
ATOM     30  C   UNL     1      -4.120  16.880  21.153  0.00  0.00    +0.000 C 
ATOM     31  C   UNL     1      -5.589  15.929  22.779  0.00  0.00    +0.000 C 
ENDBRANCH  28  29
ENDBRANCH  27  28
ENDBRANCH   8  26
BRANCH  23  32
ATOM     32  O   UNL     1       3.437   4.356  21.048  0.00  0.00    +0.000 OA
ATOM     33  H   UNL     1       3.606   5.285  21.293  0.00  0.00    +0.000 HD
ENDBRANCH  23  32
BRANCH  23  34
ATOM     34  C   UNL     1       1.221   3.705  20.414  0.00  0.00    +0.000 C 
ATOM     35  C   UNL     1       1.358   2.819  21.645  0.00  0.00    +0.000 C 
ENDBRANCH  23  34
TORSDOF 6
ENDMDL
MODEL 7
REMARK VINA RESULT:      -7.4      1.115      1.362
REMARK  Name = 
REMARK  10 active torsions:
REMARK  status: ('A' for Active; 'I' for Inactive)
REMARK    1  A    between atoms: C_1  and  C_2
REMARK    2  A    between atoms: C_2  and  C_3
REMARK    3  A    between atoms: C_10  and  C_11
REMARK    4  A    between atoms: C_12  and  C_13
REMARK    5  A    between atoms: C_13  and  N_14
REMARK    6  A    between atoms: N_14  and  C_15
REMARK    7  A    between atoms: N_14  and  C_16
REMARK    8  A    between atoms: C_31  and  O_32
REMARK    9  A    between atoms: C_31  and  C_33
REMARK   10  A    between atoms: C_33  and  C_34
REMARK                            x       y       z     vdW  Elec       q    Type
REMARK                         _______ _______ _______ _____ _____    ______ ____
ROOT
ATOM      1  C   UNL     1       0.289  11.169  19.765  0.00  0.00    +0.000 A 
ATOM      2  C   UNL     1       0.981   9.994  19.503  0.00  0.00    +0.000 A 
ATOM      3  C   UNL     1       1.003   8.962  20.438  0.00  0.00    +0.000 A 
ATOM      4  N   UNL     1       0.392   9.013  21.632  0.00  0.00    +0.000 NA
ATOM      5  C   UNL     1      -0.263  10.179  21.924  0.00  0.00    +0.000 A 
ATOM      6  C   UNL     1      -0.936  10.369  23.133  0.00  0.00    +0.000 A 
ATOM      7  N   UNL     1      -1.618  11.489  23.534  0.00  0.00    +0.000 NA
ATOM      8  C   UNL     1      -1.631  12.516  22.672  0.00  0.00    +0.000 A 
ATOM      9  C   UNL     1      -1.004  12.463  21.436  0.00  0.00    +0.000 A 
ATOM     10  C   UNL     1      -0.328  11.289  21.033  0.00  0.00    +0.000 A 
ATOM     11  C   UNL     1       1.755   7.838  19.837  0.00  0.00    +0.000 A 
ATOM     12  C   UNL     1       2.064   6.603  20.264  0.00  0.00    +0.000 A 
ATOM     13  C   UNL     1       2.795   5.680  19.372  0.00  0.00    +0.000 A 
ATOM     14  C   UNL     1       3.228   6.119  18.176  0.00  0.00    +0.000 A 
ATOM     15  C   UNL     1       2.940   7.512  17.726  0.00  0.00    +0.000 A 
ATOM     16  O   UNL     1       3.356   7.927  16.649  0.00  0.00    +0.000 OA
ATOM     17  N   UNL     1       2.179   8.252  18.586  0.00  0.00    +0.000 N 
ATOM     18  C   UNL     1       1.752   9.608  18.282  0.00  0.00    +0.000 C 
ATOM     19  C   UNL     1       4.003   5.307  17.207  0.00  0.00    +0.000 C 
ATOM     20  O   UNL     1       4.085   3.907  17.513  0.00  0.00    +0.000 OA
ATOM     21  C   UNL     1       3.683   3.345  18.668  0.00  0.00    +0.000 C 
ATOM     22  O   UNL     1       3.851   2.136  18.831  0.00  0.00    +0.000 OA
ATOM     23  C   UNL     1       3.095   4.256  19.794  0.00  0.00    +0.000 C 
ENDROOT
BRANCH   1  25
ATOM     24  C   UNL     1      -1.114  12.200  17.941  0.00  0.00    +0.000 C 
ATOM     25  C   UNL     1       0.202  12.237  18.699  0.00  0.00    +0.000 C 
ENDBRANCH   1  25
BRANCH   8  26
ATOM     26  C   UNL     1      -2.337  13.699  23.063  0.00  0.00    +0.000 C 
ATOM     27  C   UNL     1      -3.009  14.642  23.407  0.00  0.00    +0.000 C 
BRANCH  27  28
ATOM     28  C   UNL     1      -3.858  15.776  23.829  0.00  0.00    +0.000 C 
BRANCH  28  29
ATOM     29  N   UNL     1      -5.214  15.722  23.249  0.00  0.00    +0.000 NA
ATOM     30  C   UNL     1      -5.915  14.525  23.730  0.00  0.00    +0.000 C 
ATOM     31  C   UNL     1      -6.000  16.909  23.598  0.00  0.00    +0.000 C 
ENDBRANCH  28  29
ENDBRANCH  27  28
ENDBRANCH   8  26
BRANCH  23  32
ATOM     32  O   UNL     1       4.062   4.353  20.855  0.00  0.00    +0.000 OA
ATOM     33  H   UNL     1       4.940   4.480  20.449  0.00  0.00    +0.000 HD
ENDBRANCH  23  32
BRANCH  23  34
ATOM     34  C   UNL     1       1.873   3.505  20.384  0.00  0.00    +0.000 C 
ATOM     35  C   UNL     1       0.769   3.186  19.384  0.00  0.00    +0.000 C 
ENDBRANCH  23  34
TORSDOF 6
ENDMDL
MODEL 8
REMARK VINA RESULT:      -6.9      5.851     11.548
REMARK  Name = 
REMARK  10 active torsions:
REMARK  status: ('A' for Active; 'I' for Inactive)
REMARK    1  A    between atoms: C_1  and  C_2
REMARK    2  A    between atoms: C_2  and  C_3
REMARK    3  A    between atoms: C_10  and  C_11
REMARK    4  A    between atoms: C_12  and  C_13
REMARK    5  A    between atoms: C_13  and  N_14
REMARK    6  A    between atoms: N_14  and  C_15
REMARK    7  A    between atoms: N_14  and  C_16
REMARK    8  A    between atoms: C_31  and  O_32
REMARK    9  A    between atoms: C_31  and  C_33
REMARK   10  A    between atoms: C_33  and  C_34
REMARK                            x       y       z     vdW  Elec       q    Type
REMARK                         _______ _______ _______ _____ _____    ______ ____
ROOT
ATOM      1  C   UNL     1      -2.387  10.688  18.194  0.00  0.00    +0.000 A 
ATOM      2  C   UNL     1      -3.279  11.497  18.886  0.00  0.00    +0.000 A 
ATOM      3  C   UNL     1      -2.901  12.107  20.080  0.00  0.00    +0.000 A 
ATOM      4  N   UNL     1      -1.694  11.965  20.651  0.00  0.00    +0.000 NA
ATOM      5  C   UNL     1      -0.815  11.139  20.004  0.00  0.00    +0.000 A 
ATOM      6  C   UNL     1       0.471  10.898  20.491  0.00  0.00    +0.000 A 
ATOM      7  N   UNL     1       1.430  10.091  19.932  0.00  0.00    +0.000 NA
ATOM      8  C   UNL     1       1.088   9.460  18.800  0.00  0.00    +0.000 A 
ATOM      9  C   UNL     1      -0.157   9.610  18.207  0.00  0.00    +0.000 A 
ATOM     10  C   UNL     1      -1.121  10.467  18.785  0.00  0.00    +0.000 A 
ATOM     11  C   UNL     1      -4.035  12.948  20.525  0.00  0.00    +0.000 A 
ATOM     12  C   UNL     1      -4.222  13.764  21.575  0.00  0.00    +0.000 A 
ATOM     13  C   UNL     1      -5.483  14.523  21.698  0.00  0.00    +0.000 A 
ATOM     14  C   UNL     1      -6.471  14.315  20.809  0.00  0.00    +0.000 A 
ATOM     15  C   UNL     1      -6.289  13.361  19.678  0.00  0.00    +0.000 A 
ATOM     16  O   UNL     1      -7.196  13.146  18.879  0.00  0.00    +0.000 OA
ATOM     17  N   UNL     1      -5.053  12.781  19.602  0.00  0.00    +0.000 N 
ATOM     18  C   UNL     1      -4.682  11.872  18.531  0.00  0.00    +0.000 C 
ATOM     19  C   UNL     1      -7.795  14.983  20.843  0.00  0.00    +0.000 C 
ATOM     20  O   UNL     1      -7.904  16.071  21.773  0.00  0.00    +0.000 OA
ATOM     21  C   UNL     1      -6.985  16.385  22.705  0.00  0.00    +0.000 C 
ATOM     22  O   UNL     1      -7.217  17.314  23.479  0.00  0.00    +0.000 OA
ATOM     23  C   UNL     1      -5.696  15.509  22.829  0.00  0.00    +0.000 C 
ENDROOT
BRANCH   1  25
ATOM     24  C   UNL     1      -2.689  11.125  15.731  0.00  0.00    +0.000 C 
ATOM     25  C   UNL     1      -2.788  10.111  16.857  0.00  0.00    +0.000 C 
ENDBRANCH   1  25
BRANCH   8  26
ATOM     26  C   UNL     1       2.070   8.612  18.194  0.00  0.00    +0.000 C 
ATOM     27  C   UNL     1       2.963   7.940  17.736  0.00  0.00    +0.000 C 
BRANCH  27  28
ATOM     28  C   UNL     1       4.079   7.136  17.193  0.00  0.00    +0.000 C 
BRANCH  28  29
ATOM     29  N   UNL     1       3.957   5.700  17.512  0.00  0.00    +0.000 NA
ATOM     30  C   UNL     1       5.022   4.948  16.837  0.00  0.00    +0.000 C 
ATOM     31  C   UNL     1       4.039   5.456  18.954  0.00  0.00    +0.000 C 
ENDBRANCH  28  29
ENDBRANCH  27  28
ENDBRANCH   8  26
BRANCH  23  32
ATOM     32  O   UNL     1      -5.793  14.720  24.028  0.00  0.00    +0.000 OA
ATOM     33  H   UNL     1      -5.841  13.782  23.766  0.00  0.00    +0.000 HD
ENDBRANCH  23  32
BRANCH  23  34
ATOM     34  C   UNL     1      -4.511  16.486  23.043  0.00  0.00    +0.000 C 
ATOM     35  C   UNL     1      -3.772  16.323  24.364  0.00  0.00    +0.000 C 
ENDBRANCH  23  34
TORSDOF 6
ENDMDL
MODEL 9
REMARK VINA RESULT:      -6.6      5.214     11.118
REMARK  Name = 
REMARK  10 active torsions:
REMARK  status: ('A' for Active; 'I' for Inactive)
REMARK    1  A    between atoms: C_1  and  C_2
REMARK    2  A    between atoms: C_2  and  C_3
REMARK    3  A    between atoms: C_10  and  C_11
REMARK    4  A    between atoms: C_12  and  C_13
REMARK    5  A    between atoms: C_13  and  N_14
REMARK    6  A    between atoms: N_14  and  C_15
REMARK    7  A    between atoms: N_14  and  C_16
REMARK    8  A    between atoms: C_31  and  O_32
REMARK    9  A    between atoms: C_31  and  C_33
REMARK   10  A    between atoms: C_33  and  C_34
REMARK                            x       y       z     vdW  Elec       q    Type
REMARK                         _______ _______ _______ _____ _____    ______ ____
ROOT
ATOM      1  C   UNL     1       0.526  11.723  19.466  0.00  0.00    +0.000 A 
ATOM      2  C   UNL     1      -0.291  12.625  20.137  0.00  0.00    +0.000 A 
ATOM      3  C   UNL     1      -0.869  12.283  21.357  0.00  0.00    +0.000 A 
ATOM      4  N   UNL     1      -0.703  11.098  21.965  0.00  0.00    +0.000 NA
ATOM      5  C   UNL     1       0.067  10.182  21.300  0.00  0.00    +0.000 A 
ATOM      6  C   UNL     1       0.315   8.908  21.816  0.00  0.00    +0.000 A 
ATOM      7  N   UNL     1       1.063   7.913  21.239  0.00  0.00    +0.000 NA
ATOM      8  C   UNL     1       1.606   8.195  20.045  0.00  0.00    +0.000 A 
ATOM      9  C   UNL     1       1.440   9.421  19.418  0.00  0.00    +0.000 A 
ATOM     10  C   UNL     1       0.686  10.442  20.043  0.00  0.00    +0.000 A 
ATOM     11  C   UNL     1      -1.612  13.469  21.840  0.00  0.00    +0.000 A 
ATOM     12  C   UNL     1      -2.327  13.719  22.949  0.00  0.00    +0.000 A 
ATOM     13  C   UNL     1      -2.907  15.061  23.159  0.00  0.00    +0.000 A 
ATOM     14  C   UNL     1      -2.795  15.990  22.193  0.00  0.00    +0.000 A 
ATOM     15  C   UNL     1      -2.055  15.693  20.933  0.00  0.00    +0.000 A 
ATOM     16  O   UNL     1      -1.973  16.526  20.036  0.00  0.00    +0.000 OA
ATOM     17  N   UNL     1      -1.479  14.454  20.878  0.00  0.00    +0.000 N 
ATOM     18  C   UNL     1      -0.672  14.018  19.752  0.00  0.00    +0.000 C 
ATOM     19  C   UNL     1      -3.363  17.359  22.264  0.00  0.00    +0.000 C 
ATOM     20  O   UNL     1      -3.867  17.742  23.552  0.00  0.00    +0.000 OA
ATOM     21  C   UNL     1      -4.022  16.910  24.600  0.00  0.00    +0.000 C 
ATOM     22  O   UNL     1      -4.512  17.350  25.640  0.00  0.00    +0.000 OA
ATOM     23  C   UNL     1      -3.655  15.400  24.433  0.00  0.00    +0.000 C 
ENDROOT
BRANCH   1  25
ATOM     24  C   UNL     1       2.518  12.883  18.447  0.00  0.00    +0.000 C 
ATOM     25  C   UNL     1       1.214  12.148  18.190  0.00  0.00    +0.000 C 
ENDBRANCH   1  25
BRANCH   8  26
ATOM     26  C   UNL     1       2.393   7.176  19.420  0.00  0.00    +0.000 C 
ATOM     27  C   UNL     1       2.982   6.296  18.838  0.00  0.00    +0.000 C 
BRANCH  27  28
ATOM     28  C   UNL     1       3.675   5.212  18.109  0.00  0.00    +0.000 C 
BRANCH  28  29
ATOM     29  N   UNL     1       3.318   3.869  18.606  0.00  0.00    +0.000 NA
ATOM     30  C   UNL     1       2.820   3.044  17.499  0.00  0.00    +0.000 C 
ATOM     31  C   UNL     1       4.465   3.198  19.225  0.00  0.00    +0.000 C 
ENDBRANCH  28  29
ENDBRANCH  27  28
ENDBRANCH   8  26
BRANCH  23  32
ATOM     32  O   UNL     1      -4.873  14.635  24.391  0.00  0.00    +0.000 OA
ATOM     33  H   UNL     1      -5.391  14.854  25.188  0.00  0.00    +0.000 HD
ENDBRANCH  23  32
BRANCH  23  34
ATOM     34  C   UNL     1      -2.916  14.975  25.729  0.00  0.00    +0.000 C 
ATOM     35  C   UNL     1      -1.561  15.636  25.943  0.00  0.00    +0.000 C 
ENDBRANCH  23  34
TORSDOF 6
ENDMDL
