MODEL 1
REMARK VINA RESULT:      -7.8      0.000      0.000
REMARK  Name = 
REMARK  8 active torsions:
REMARK  status: ('A' for Active; 'I' for Inactive)
REMARK    1  A    between atoms: C_2  and  C_3
REMARK    2  A    between atoms: C_3  and  O_4
REMARK    3  A    between atoms: O_4  and  C_5
REMARK    4  A    between atoms: C_11  and  O_12
REMARK    5  A    between atoms: C_11  and  C_13
REMARK    6  A    between atoms: C_13  and  N_14
REMARK    7  A    between atoms: N_14  and  S_15
REMARK    8  A    between atoms: S_15  and  C_18
REMARK                            x       y       z     vdW  Elec       q    Type
REMARK                         _______ _______ _______ _____ _____    ______ ____
ROOT
ATOM      1  C   UNL     1       2.246   6.732  19.683  0.00  0.00    +0.000 A 
ATOM      2  C   UNL     1       1.230   6.076  20.373  0.00  0.00    +0.000 A 
ATOM      3  C   UNL     1       1.307   4.697  20.582  0.00  0.00    +0.000 A 
ATOM      4  C   UNL     1       2.392   3.966  20.089  0.00  0.00    +0.000 A 
ATOM      5  C   UNL     1       3.409   4.609  19.375  0.00  0.00    +0.000 A 
ATOM      6  C   UNL     1       3.304   5.992  19.155  0.00  0.00    +0.000 A 
ATOM      7  C   UNL     1       4.579   3.827  18.820  0.00  0.00    +0.000 C 
ATOM      8  C   UNL     1       4.692   2.498  19.568  0.00  0.00    +0.000 C 
ATOM      9  C   UNL     1       3.341   1.824  19.685  0.00  0.00    +0.000 C 
ATOM     10  O   UNL     1       2.378   2.628  20.371  0.00  0.00    +0.000 OA
ENDROOT
BRANCH   7  11
ATOM     11  O   UNL     1       5.808   4.523  19.111  0.00  0.00    +0.000 OA
ATOM     12  H   UNL     1       5.698   5.466  18.908  0.00  0.00    +0.000 HD
ENDBRANCH   7  11
BRANCH   1  13
ATOM     13  O   UNL     1       2.132   8.093  19.574  0.00  0.00    +0.000 OA
BRANCH  13  14
ATOM     14  C   UNL     1       2.233   8.587  18.235  0.00  0.00    +0.000 C 
BRANCH  14  16
ATOM     15  C   UNL     1       0.779  10.497  18.959  0.00  0.00    +0.000 C 
ATOM     16  C   UNL     1       1.177   9.624  18.024  0.00  0.00    +0.000 C 
ENDBRANCH  14  16
ENDBRANCH  13  14
ENDBRANCH   1  13
BRANCH   7  17
ATOM     17  C   UNL     1       4.468   3.673  17.272  0.00  0.00    +0.000 C 
BRANCH  17  18
ATOM     18  N   UNL     1       5.757   3.421  16.605  0.00  0.00    +0.000 NA
ATOM     19  H   UNL     1       5.769   2.738  15.842  0.00  0.00    +0.000 HD
BRANCH  18  20
ATOM     20  S   UNL     1       6.711   4.743  16.211  0.00  0.00    +0.000 S 
ATOM     21  O   UNL     1       5.898   5.914  16.436  0.00  0.00    +0.000 OA
ATOM     22  O   UNL     1       7.995   4.568  16.856  0.00  0.00    +0.000 OA
BRANCH  20  23
ATOM     23  C   UNL     1       6.923   4.581  14.459  0.00  0.00    +0.000 A 
ATOM     24  C   UNL     1       7.789   5.446  13.782  0.00  0.00    +0.000 A 
ATOM     25  C   UNL     1       7.900   5.363  12.395  0.00  0.00    +0.000 A 
ATOM     26  C   UNL     1       7.150   4.420  11.690  0.00  0.00    +0.000 A 
ATOM     27  C   UNL     1       6.292   3.557  12.377  0.00  0.00    +0.000 A 
ATOM     28 BR   UNL     1       5.275   2.291  11.411  0.00  0.00    +0.000 Br
ATOM     29  C   UNL     1       6.171   3.630  13.764  0.00  0.00    +0.000 A 
ENDBRANCH  20  23
ENDBRANCH  18  20
ENDBRANCH  17  18
ENDBRANCH   7  17
TORSDOF 8
ENDMDL
MODEL 2
REMARK VINA RESULT:      -7.5      3.495      7.789
REMARK  Name = 
REMARK  8 active torsions:
REMARK  status: ('A' for Active; 'I' for Inactive)
REMARK    1  A    between atoms: C_2  and  C_3
REMARK    2  A    between atoms: C_3  and  O_4
REMARK    3  A    between atoms: O_4  and  C_5
REMARK    4  A    between atoms: C_11  and  O_12
REMARK    5  A    between atoms: C_11  and  C_13
REMARK    6  A    between atoms: C_13  and  N_14
REMARK    7  A    between atoms: N_14  and  S_15
REMARK    8  A    between atoms: S_15  and  C_18
REMARK                            x       y       z     vdW  Elec       q    Type
REMARK                         _______ _______ _______ _____ _____    ______ ____
ROOT
ATOM      1  C   UNL     1       5.648   3.594  12.654  0.00  0.00    +0.000 A 
ATOM      2  C   UNL     1       6.775   4.326  12.292  0.00  0.00    +0.000 A 
ATOM      3  C   UNL     1       7.500   5.018  13.266  0.00  0.00    +0.000 A 
ATOM      4  C   UNL     1       7.092   4.994  14.602  0.00  0.00    +0.000 A 
ATOM      5  C   UNL     1       5.948   4.280  14.977  0.00  0.00    +0.000 A 
ATOM      6  C   UNL     1       5.220   3.609  13.982  0.00  0.00    +0.000 A 
ATOM      7  C   UNL     1       5.484   4.261  16.417  0.00  0.00    +0.000 C 
ATOM      8  C   UNL     1       6.653   4.649  17.323  0.00  0.00    +0.000 C 
ATOM      9  C   UNL     1       7.368   5.873  16.793  0.00  0.00    +0.000 C 
ATOM     10  O   UNL     1       7.886   5.686  15.474  0.00  0.00    +0.000 OA
ENDROOT
BRANCH   7  11
ATOM     11  O   UNL     1       5.149   2.910  16.799  0.00  0.00    +0.000 OA
ATOM     12  H   UNL     1       4.649   2.490  16.081  0.00  0.00    +0.000 HD
ENDBRANCH   7  11
BRANCH   1  13
ATOM     13  O   UNL     1       5.029   2.890  11.655  0.00  0.00    +0.000 OA
BRANCH  13  14
ATOM     14  C   UNL     1       3.683   3.300  11.393  0.00  0.00    +0.000 C 
BRANCH  14  16
ATOM     15  C   UNL     1       2.623   4.508   9.470  0.00  0.00    +0.000 C 
ATOM     16  C   UNL     1       3.571   3.696   9.956  0.00  0.00    +0.000 C 
ENDBRANCH  14  16
ENDBRANCH  13  14
ENDBRANCH   1  13
BRANCH   7  17
ATOM     17  C   UNL     1       4.214   5.144  16.609  0.00  0.00    +0.000 C 
BRANCH  17  18
ATOM     18  N   UNL     1       3.316   4.671  17.678  0.00  0.00    +0.000 NA
ATOM     19  H   UNL     1       3.153   3.663  17.746  0.00  0.00    +0.000 HD
BRANCH  18  20
ATOM     20  S   UNL     1       3.500   5.331  19.209  0.00  0.00    +0.000 S 
ATOM     21  O   UNL     1       2.778   4.468  20.113  0.00  0.00    +0.000 OA
ATOM     22  O   UNL     1       4.904   5.630  19.394  0.00  0.00    +0.000 OA
BRANCH  20  23
ATOM     23  C   UNL     1       2.599   6.854  19.104  0.00  0.00    +0.000 A 
ATOM     24  C   UNL     1       2.646   7.607  17.927  0.00  0.00    +0.000 A 
ATOM     25  C   UNL     1       1.995   8.839  17.872  0.00  0.00    +0.000 A 
ATOM     26  C   UNL     1       1.302   9.313  18.988  0.00  0.00    +0.000 A 
ATOM     27  C   UNL     1       1.257   8.548  20.156  0.00  0.00    +0.000 A 
ATOM     28 BR   UNL     1       0.324   9.204  21.663  0.00  0.00    +0.000 Br
ATOM     29  C   UNL     1       1.904   7.316  20.225  0.00  0.00    +0.000 A 
ENDBRANCH  20  23
ENDBRANCH  18  20
ENDBRANCH  17  18
ENDBRANCH   7  17
TORSDOF 8
ENDMDL
MODEL 3
REMARK VINA RESULT:      -7.5      3.201      7.772
REMARK  Name = 
REMARK  8 active torsions:
REMARK  status: ('A' for Active; 'I' for Inactive)
REMARK    1  A    between atoms: C_2  and  C_3
REMARK    2  A    between atoms: C_3  and  O_4
REMARK    3  A    between atoms: O_4  and  C_5
REMARK    4  A    between atoms: C_11  and  O_12
REMARK    5  A    between atoms: C_11  and  C_13
REMARK    6  A    between atoms: C_13  and  N_14
REMARK    7  A    between atoms: N_14  and  S_15
REMARK    8  A    between atoms: S_15  and  C_18
REMARK                            x       y       z     vdW  Elec       q    Type
REMARK                         _______ _______ _______ _____ _____    ______ ____
ROOT
ATOM      1  C   UNL     1       5.694   3.567  12.638  0.00  0.00    +0.000 A 
ATOM      2  C   UNL     1       6.809   4.323  12.287  0.00  0.00    +0.000 A 
ATOM      3  C   UNL     1       7.501   5.040  13.266  0.00  0.00    +0.000 A 
ATOM      4  C   UNL     1       7.072   5.018  14.596  0.00  0.00    +0.000 A 
ATOM      5  C   UNL     1       5.940   4.280  14.959  0.00  0.00    +0.000 A 
ATOM      6  C   UNL     1       5.243   3.584  13.958  0.00  0.00    +0.000 A 
ATOM      7  C   UNL     1       5.453   4.262  16.391  0.00  0.00    +0.000 C 
ATOM      8  C   UNL     1       6.598   4.686  17.313  0.00  0.00    +0.000 C 
ATOM      9  C   UNL     1       7.293   5.922  16.783  0.00  0.00    +0.000 C 
ATOM     10  O   UNL     1       7.836   5.735  15.474  0.00  0.00    +0.000 OA
ENDROOT
BRANCH   7  11
ATOM     11  O   UNL     1       5.144   2.908  16.780  0.00  0.00    +0.000 OA
ATOM     12  H   UNL     1       5.712   2.651  17.524  0.00  0.00    +0.000 HD
ENDBRANCH   7  11
BRANCH   1  13
ATOM     13  O   UNL     1       5.107   2.841  11.635  0.00  0.00    +0.000 OA
BRANCH  13  14
ATOM     14  C   UNL     1       3.760   3.223  11.342  0.00  0.00    +0.000 C 
BRANCH  14  16
ATOM     15  C   UNL     1       2.645   4.425   9.445  0.00  0.00    +0.000 C 
ATOM     16  C   UNL     1       3.712   3.801   9.964  0.00  0.00    +0.000 C 
ENDBRANCH  14  16
ENDBRANCH  13  14
ENDBRANCH   1  13
BRANCH   7  17
ATOM     17  C   UNL     1       4.160   5.118  16.556  0.00  0.00    +0.000 C 
BRANCH  17  18
ATOM     18  N   UNL     1       3.984   5.676  17.908  0.00  0.00    +0.000 NA
ATOM     19  H   UNL     1       4.483   6.542  18.131  0.00  0.00    +0.000 HD
BRANCH  18  20
ATOM     20  S   UNL     1       2.433   5.724  18.543  0.00  0.00    +0.000 S 
ATOM     21  O   UNL     1       2.346   6.939  19.317  0.00  0.00    +0.000 OA
ATOM     22  O   UNL     1       1.507   5.434  17.469  0.00  0.00    +0.000 OA
BRANCH  20  23
ATOM     23  C   UNL     1       2.423   4.371  19.689  0.00  0.00    +0.000 A 
ATOM     24  C   UNL     1       1.333   4.199  20.549  0.00  0.00    +0.000 A 
ATOM     25  C   UNL     1       1.359   3.178  21.497  0.00  0.00    +0.000 A 
ATOM     26  C   UNL     1       2.468   2.334  21.584  0.00  0.00    +0.000 A 
ATOM     27  C   UNL     1       3.549   2.512  20.716  0.00  0.00    +0.000 A 
ATOM     28 BR   UNL     1       5.048   1.371  20.850  0.00  0.00    +0.000 Br
ATOM     29  C   UNL     1       3.536   3.530  19.764  0.00  0.00    +0.000 A 
ENDBRANCH  20  23
ENDBRANCH  18  20
ENDBRANCH  17  18
ENDBRANCH   7  17
TORSDOF 8
ENDMDL
MODEL 4
REMARK VINA RESULT:      -7.3      3.715      8.185
REMARK  Name = 
REMARK  8 active torsions:
REMARK  status: ('A' for Active; 'I' for Inactive)
REMARK    1  A    between atoms: C_2  and  C_3
REMARK    2  A    between atoms: C_3  and  O_4
REMARK    3  A    between atoms: O_4  and  C_5
REMARK    4  A    between atoms: C_11  and  O_12
REMARK    5  A    between atoms: C_11  and  C_13
REMARK    6  A    between atoms: C_13  and  N_14
REMARK    7  A    between atoms: N_14  and  S_15
REMARK    8  A    between atoms: S_15  and  C_18
REMARK                            x       y       z     vdW  Elec       q    Type
REMARK                         _______ _______ _______ _____ _____    ______ ____
ROOT
ATOM      1  C   UNL     1       5.709   4.140  14.211  0.00  0.00    +0.000 A 
ATOM      2  C   UNL     1       6.903   4.820  13.989  0.00  0.00    +0.000 A 
ATOM      3  C   UNL     1       7.603   5.369  15.066  0.00  0.00    +0.000 A 
ATOM      4  C   UNL     1       7.105   5.256  16.366  0.00  0.00    +0.000 A 
ATOM      5  C   UNL     1       5.894   4.594  16.602  0.00  0.00    +0.000 A 
ATOM      6  C   UNL     1       5.192   4.068  15.505  0.00  0.00    +0.000 A 
ATOM      7  C   UNL     1       5.333   4.480  18.002  0.00  0.00    +0.000 C 
ATOM      8  C   UNL     1       6.460   4.702  19.011  0.00  0.00    +0.000 C 
ATOM      9  C   UNL     1       7.289   5.914  18.643  0.00  0.00    +0.000 C 
ATOM     10  O   UNL     1       7.881   5.808  17.347  0.00  0.00    +0.000 OA
ENDROOT
BRANCH   7  11
ATOM     11  O   UNL     1       4.885   3.129  18.235  0.00  0.00    +0.000 OA
ATOM     12  H   UNL     1       3.971   3.146  18.560  0.00  0.00    +0.000 HD
ENDBRANCH   7  11
BRANCH   1  13
ATOM     13  O   UNL     1       5.114   3.575  13.114  0.00  0.00    +0.000 OA
BRANCH  13  14
ATOM     14  C   UNL     1       6.015   3.275  12.044  0.00  0.00    +0.000 C 
BRANCH  14  16
ATOM     15  C   UNL     1       6.447   0.993  11.101  0.00  0.00    +0.000 C 
ATOM     16  C   UNL     1       5.601   1.984  11.414  0.00  0.00    +0.000 C 
ENDBRANCH  14  16
ENDBRANCH  13  14
ENDBRANCH   1  13
BRANCH   7  17
ATOM     17  C   UNL     1       4.113   5.432  18.198  0.00  0.00    +0.000 C 
BRANCH  17  18
ATOM     18  N   UNL     1       3.795   5.709  19.609  0.00  0.00    +0.000 NA
ATOM     19  H   UNL     1       4.208   6.545  20.032  0.00  0.00    +0.000 HD
BRANCH  18  20
ATOM     20  S   UNL     1       2.202   5.539  20.104  0.00  0.00    +0.000 S 
ATOM     21  O   UNL     1       1.505   4.888  19.021  0.00  0.00    +0.000 OA
ATOM     22  O   UNL     1       2.212   4.992  21.444  0.00  0.00    +0.000 OA
BRANCH  20  23
ATOM     23  C   UNL     1       1.619   7.212  20.172  0.00  0.00    +0.000 A 
ATOM     24  C   UNL     1       1.844   8.069  19.091  0.00  0.00    +0.000 A 
ATOM     25  C   UNL     1       1.448   9.403  19.175  0.00  0.00    +0.000 A 
ATOM     26  C   UNL     1       0.831   9.875  20.335  0.00  0.00    +0.000 A 
ATOM     27  C   UNL     1       0.606   9.008  21.407  0.00  0.00    +0.000 A 
ATOM     28 BR   UNL     1      -0.222   9.661  22.975  0.00  0.00    +0.000 Br
ATOM     29  C   UNL     1       0.997   7.673  21.336  0.00  0.00    +0.000 A 
ENDBRANCH  20  23
ENDBRANCH  18  20
ENDBRANCH  17  18
ENDBRANCH   7  17
TORSDOF 8
ENDMDL
MODEL 5
REMARK VINA RESULT:      -7.2      3.332      7.965
REMARK  Name = 
REMARK  8 active torsions:
REMARK  status: ('A' for Active; 'I' for Inactive)
REMARK    1  A    between atoms: C_2  and  C_3
REMARK    2  A    between atoms: C_3  and  O_4
REMARK    3  A    between atoms: O_4  and  C_5
REMARK    4  A    between atoms: C_11  and  O_12
REMARK    5  A    between atoms: C_11  and  C_13
REMARK    6  A    between atoms: C_13  and  N_14
REMARK    7  A    between atoms: N_14  and  S_15
REMARK    8  A    between atoms: S_15  and  C_18
REMARK                            x       y       z     vdW  Elec       q    Type
REMARK                         _______ _______ _______ _____ _____    ______ ____
ROOT
ATOM      1  C   UNL     1       5.498   3.499  12.523  0.00  0.00    +0.000 A 
ATOM      2  C   UNL     1       6.618   4.215  12.108  0.00  0.00    +0.000 A 
ATOM      3  C   UNL     1       7.377   4.923  13.043  0.00  0.00    +0.000 A 
ATOM      4  C   UNL     1       7.012   4.932  14.392  0.00  0.00    +0.000 A 
ATOM      5  C   UNL     1       5.877   4.235  14.819  0.00  0.00    +0.000 A 
ATOM      6  C   UNL     1       5.112   3.547  13.863  0.00  0.00    +0.000 A 
ATOM      7  C   UNL     1       5.458   4.251  16.273  0.00  0.00    +0.000 C 
ATOM      8  C   UNL     1       6.658   4.651  17.133  0.00  0.00    +0.000 C 
ATOM      9  C   UNL     1       7.364   5.858  16.552  0.00  0.00    +0.000 C 
ATOM     10  O   UNL     1       7.838   5.637  15.222  0.00  0.00    +0.000 OA
ENDROOT
BRANCH   7  11
ATOM     11  O   UNL     1       5.127   2.912  16.695  0.00  0.00    +0.000 OA
ATOM     12  H   UNL     1       5.724   2.283  16.261  0.00  0.00    +0.000 HD
ENDBRANCH   7  11
BRANCH   1  13
ATOM     13  O   UNL     1       4.842   2.778  11.560  0.00  0.00    +0.000 OA
BRANCH  13  14
ATOM     14  C   UNL     1       3.490   3.188  11.336  0.00  0.00    +0.000 C 
BRANCH  14  16
ATOM     15  C   UNL     1       2.776   4.653   9.432  0.00  0.00    +0.000 C 
ATOM     16  C   UNL     1       3.319   3.516   9.888  0.00  0.00    +0.000 C 
ENDBRANCH  14  16
ENDBRANCH  13  14
ENDBRANCH   1  13
BRANCH   7  17
ATOM     17  C   UNL     1       4.201   5.148  16.486  0.00  0.00    +0.000 C 
BRANCH  17  18
ATOM     18  N   UNL     1       4.089   5.703  17.846  0.00  0.00    +0.000 NA
ATOM     19  H   UNL     1       4.239   6.710  17.960  0.00  0.00    +0.000 HD
BRANCH  18  20
ATOM     20  S   UNL     1       2.803   5.200  18.797  0.00  0.00    +0.000 S 
ATOM     21  O   UNL     1       1.815   4.658  17.895  0.00  0.00    +0.000 OA
ATOM     22  O   UNL     1       3.343   4.424  19.894  0.00  0.00    +0.000 OA
BRANCH  20  23
ATOM     23  C   UNL     1       2.153   6.720  19.436  0.00  0.00    +0.000 A 
ATOM     24  C   UNL     1       1.624   6.758  20.730  0.00  0.00    +0.000 A 
ATOM     25  C   UNL     1       1.049   7.936  21.204  0.00  0.00    +0.000 A 
ATOM     26  C   UNL     1       1.003   9.068  20.388  0.00  0.00    +0.000 A 
ATOM     27  C   UNL     1       1.540   9.020  19.099  0.00  0.00    +0.000 A 
ATOM     28 BR   UNL     1       1.464  10.555  18.001  0.00  0.00    +0.000 Br
ATOM     29  C   UNL     1       2.117   7.848  18.613  0.00  0.00    +0.000 A 
ENDBRANCH  20  23
ENDBRANCH  18  20
ENDBRANCH  17  18
ENDBRANCH   7  17
TORSDOF 8
ENDMDL
MODEL 6
REMARK VINA RESULT:      -7.1      3.180      3.811
REMARK  Name = 
REMARK  8 active torsions:
REMARK  status: ('A' for Active; 'I' for Inactive)
REMARK    1  A    between atoms: C_2  and  C_3
REMARK    2  A    between atoms: C_3  and  O_4
REMARK    3  A    between atoms: O_4  and  C_5
REMARK    4  A    between atoms: C_11  and  O_12
REMARK    5  A    between atoms: C_11  and  C_13
REMARK    6  A    between atoms: C_13  and  N_14
REMARK    7  A    between atoms: N_14  and  S_15
REMARK    8  A    between atoms: S_15  and  C_18
REMARK                            x       y       z     vdW  Elec       q    Type
REMARK                         _______ _______ _______ _____ _____    ______ ____
ROOT
ATOM      1  C   UNL     1       2.169   5.952  20.269  0.00  0.00    +0.000 A 
ATOM      2  C   UNL     1       0.971   5.297  20.538  0.00  0.00    +0.000 A 
ATOM      3  C   UNL     1       0.809   3.960  20.169  0.00  0.00    +0.000 A 
ATOM      4  C   UNL     1       1.839   3.276  19.516  0.00  0.00    +0.000 A 
ATOM      5  C   UNL     1       3.041   3.928  19.220  0.00  0.00    +0.000 A 
ATOM      6  C   UNL     1       3.177   5.279  19.577  0.00  0.00    +0.000 A 
ATOM      7  C   UNL     1       4.156   3.207  18.496  0.00  0.00    +0.000 C 
ATOM      8  C   UNL     1       3.951   1.698  18.640  0.00  0.00    +0.000 C 
ATOM      9  C   UNL     1       2.514   1.316  18.353  0.00  0.00    +0.000 C 
ATOM     10  O   UNL     1       1.583   1.966  19.222  0.00  0.00    +0.000 OA
ENDROOT
BRANCH   7  11
ATOM     11  O   UNL     1       5.412   3.476  19.153  0.00  0.00    +0.000 OA
ATOM     12  H   UNL     1       5.302   3.364  20.110  0.00  0.00    +0.000 HD
ENDBRANCH   7  11
BRANCH   1  13
ATOM     13  O   UNL     1       2.276   7.242  20.718  0.00  0.00    +0.000 OA
BRANCH  13  14
ATOM     14  C   UNL     1       1.031   7.840  21.092  0.00  0.00    +0.000 C 
BRANCH  14  16
ATOM     15  C   UNL     1       0.356  10.157  21.771  0.00  0.00    +0.000 C 
ATOM     16  C   UNL     1       1.296   9.214  21.619  0.00  0.00    +0.000 C 
ENDBRANCH  14  16
ENDBRANCH  13  14
ENDBRANCH   1  13
BRANCH   7  17
ATOM     17  C   UNL     1       4.272   3.691  17.018  0.00  0.00    +0.000 C 
BRANCH  17  18
ATOM     18  N   UNL     1       5.648   3.665  16.490  0.00  0.00    +0.000 NA
ATOM     19  H   UNL     1       5.936   2.838  15.961  0.00  0.00    +0.000 HD
BRANCH  18  20
ATOM     20  S   UNL     1       6.233   5.054  15.754  0.00  0.00    +0.000 S 
ATOM     21  O   UNL     1       7.198   4.619  14.772  0.00  0.00    +0.000 OA
ATOM     22  O   UNL     1       5.097   5.876  15.396  0.00  0.00    +0.000 OA
BRANCH  20  23
ATOM     23  C   UNL     1       7.132   5.854  17.055  0.00  0.00    +0.000 A 
ATOM     24  C   UNL     1       7.526   5.120  18.178  0.00  0.00    +0.000 A 
ATOM     25  C   UNL     1       8.170   5.766  19.233  0.00  0.00    +0.000 A 
ATOM     26  C   UNL     1       8.418   7.138  19.162  0.00  0.00    +0.000 A 
ATOM     27  C   UNL     1       8.026   7.860  18.032  0.00  0.00    +0.000 A 
ATOM     28 BR   UNL     1       8.360   9.718  17.952  0.00  0.00    +0.000 Br
ATOM     29  C   UNL     1       7.381   7.226  16.972  0.00  0.00    +0.000 A 
ENDBRANCH  20  23
ENDBRANCH  18  20
ENDBRANCH  17  18
ENDBRANCH   7  17
TORSDOF 8
ENDMDL
MODEL 7
REMARK VINA RESULT:      -7.1      3.455      7.135
REMARK  Name = 
REMARK  8 active torsions:
REMARK  status: ('A' for Active; 'I' for Inactive)
REMARK    1  A    between atoms: C_2  and  C_3
REMARK    2  A    between atoms: C_3  and  O_4
REMARK    3  A    between atoms: O_4  and  C_5
REMARK    4  A    between atoms: C_11  and  O_12
REMARK    5  A    between atoms: C_11  and  C_13
REMARK    6  A    between atoms: C_13  and  N_14
REMARK    7  A    between atoms: N_14  and  S_15
REMARK    8  A    between atoms: S_15  and  C_18
REMARK                            x       y       z     vdW  Elec       q    Type
REMARK                         _______ _______ _______ _____ _____    ______ ____
ROOT
ATOM      1  C   UNL     1       5.436   4.476  15.721  0.00  0.00    +0.000 A 
ATOM      2  C   UNL     1       6.508   4.617  16.599  0.00  0.00    +0.000 A 
ATOM      3  C   UNL     1       6.382   4.196  17.926  0.00  0.00    +0.000 A 
ATOM      4  C   UNL     1       5.181   3.648  18.384  0.00  0.00    +0.000 A 
ATOM      5  C   UNL     1       4.089   3.520  17.518  0.00  0.00    +0.000 A 
ATOM      6  C   UNL     1       4.225   3.969  16.194  0.00  0.00    +0.000 A 
ATOM      7  C   UNL     1       2.776   2.946  18.005  0.00  0.00    +0.000 C 
ATOM      8  C   UNL     1       3.027   2.138  19.279  0.00  0.00    +0.000 C 
ATOM      9  C   UNL     1       3.903   2.907  20.246  0.00  0.00    +0.000 C 
ATOM     10  O   UNL     1       5.175   3.248  19.691  0.00  0.00    +0.000 OA
ENDROOT
BRANCH   7  11
ATOM     11  O   UNL     1       2.283   1.987  17.047  0.00  0.00    +0.000 OA
ATOM     12  H   UNL     1       2.706   2.147  16.188  0.00  0.00    +0.000 HD
ENDBRANCH   7  11
BRANCH   1  13
ATOM     13  O   UNL     1       5.657   4.852  14.423  0.00  0.00    +0.000 OA
BRANCH  13  14
ATOM     14  C   UNL     1       5.443   3.812  13.464  0.00  0.00    +0.000 C 
BRANCH  14  16
ATOM     15  C   UNL     1       7.526   4.760  12.441  0.00  0.00    +0.000 C 
ATOM     16  C   UNL     1       6.575   3.817  12.487  0.00  0.00    +0.000 C 
ENDBRANCH  14  16
ENDBRANCH  13  14
ENDBRANCH   1  13
BRANCH   7  17
ATOM     17  C   UNL     1       1.700   4.063  18.166  0.00  0.00    +0.000 C 
BRANCH  17  18
ATOM     18  N   UNL     1       2.247   5.430  18.109  0.00  0.00    +0.000 NA
ATOM     19  H   UNL     1       1.826   6.080  17.441  0.00  0.00    +0.000 HD
BRANCH  18  20
ATOM     20  S   UNL     1       2.558   6.213  19.559  0.00  0.00    +0.000 S 
ATOM     21  O   UNL     1       1.725   5.578  20.553  0.00  0.00    +0.000 OA
ATOM     22  O   UNL     1       3.995   6.304  19.712  0.00  0.00    +0.000 OA
BRANCH  20  23
ATOM     23  C   UNL     1       1.906   7.839  19.289  0.00  0.00    +0.000 A 
ATOM     24  C   UNL     1       2.087   8.460  18.049  0.00  0.00    +0.000 A 
ATOM     25  C   UNL     1       1.636   9.766  17.861  0.00  0.00    +0.000 A 
ATOM     26  C   UNL     1       1.009  10.445  18.908  0.00  0.00    +0.000 A 
ATOM     27  C   UNL     1       0.829   9.812  20.141  0.00  0.00    +0.000 A 
ATOM     28 BR   UNL     1      -0.012  10.744  21.553  0.00  0.00    +0.000 Br
ATOM     29  C   UNL     1       1.276   8.507  20.342  0.00  0.00    +0.000 A 
ENDBRANCH  20  23
ENDBRANCH  18  20
ENDBRANCH  17  18
ENDBRANCH   7  17
TORSDOF 8
ENDMDL
MODEL 8
REMARK VINA RESULT:      -7.0      4.804      7.442
REMARK  Name = 
REMARK  8 active torsions:
REMARK  status: ('A' for Active; 'I' for Inactive)
REMARK    1  A    between atoms: C_2  and  C_3
REMARK    2  A    between atoms: C_3  and  O_4
REMARK    3  A    between atoms: O_4  and  C_5
REMARK    4  A    between atoms: C_11  and  O_12
REMARK    5  A    between atoms: C_11  and  C_13
REMARK    6  A    between atoms: C_13  and  N_14
REMARK    7  A    between atoms: N_14  and  S_15
REMARK    8  A    between atoms: S_15  and  C_18
REMARK                            x       y       z     vdW  Elec       q    Type
REMARK                         _______ _______ _______ _____ _____    ______ ____
ROOT
ATOM      1  C   UNL     1       8.112   8.237  18.008  0.00  0.00    +0.000 A 
ATOM      2  C   UNL     1       8.521   7.483  19.105  0.00  0.00    +0.000 A 
ATOM      3  C   UNL     1       8.032   6.186  19.281  0.00  0.00    +0.000 A 
ATOM      4  C   UNL     1       7.122   5.643  18.370  0.00  0.00    +0.000 A 
ATOM      5  C   UNL     1       6.686   6.397  17.274  0.00  0.00    +0.000 A 
ATOM      6  C   UNL     1       7.170   7.707  17.126  0.00  0.00    +0.000 A 
ATOM      7  C   UNL     1       5.687   5.829  16.291  0.00  0.00    +0.000 C 
ATOM      8  C   UNL     1       5.687   4.303  16.404  0.00  0.00    +0.000 C 
ATOM      9  C   UNL     1       5.630   3.866  17.853  0.00  0.00    +0.000 C 
ATOM     10  O   UNL     1       6.728   4.359  18.624  0.00  0.00    +0.000 OA
ENDROOT
BRANCH   7  11
ATOM     11  O   UNL     1       6.125   6.102  14.944  0.00  0.00    +0.000 OA
ATOM     12  H   UNL     1       6.548   6.975  14.916  0.00  0.00    +0.000 HD
ENDBRANCH   7  11
BRANCH   1  13
ATOM     13  O   UNL     1       8.683   9.474  17.869  0.00  0.00    +0.000 OA
BRANCH  13  14
ATOM     14  C   UNL     1       9.127  10.059  19.096  0.00  0.00    +0.000 C 
BRANCH  14  16
ATOM     15  C   UNL     1      11.161  11.473  19.478  0.00  0.00    +0.000 C 
ATOM     16  C   UNL     1      10.050  11.193  18.784  0.00  0.00    +0.000 C 
ENDBRANCH  14  16
ENDBRANCH  13  14
ENDBRANCH   1  13
BRANCH   7  17
ATOM     17  C   UNL     1       4.281   6.476  16.481  0.00  0.00    +0.000 C 
BRANCH  17  18
ATOM     18  N   UNL     1       4.075   7.071  17.813  0.00  0.00    +0.000 NA
ATOM     19  H   UNL     1       4.081   8.092  17.881  0.00  0.00    +0.000 HD
BRANCH  18  20
ATOM     20  S   UNL     1       2.860   6.436  18.778  0.00  0.00    +0.000 S 
ATOM     21  O   UNL     1       2.014   5.654  17.908  0.00  0.00    +0.000 OA
ATOM     22  O   UNL     1       3.483   5.864  19.953  0.00  0.00    +0.000 OA
BRANCH  20  23
ATOM     23  C   UNL     1       1.935   7.869  19.260  0.00  0.00    +0.000 A 
ATOM     24  C   UNL     1       1.686   8.879  18.326  0.00  0.00    +0.000 A 
ATOM     25  C   UNL     1       1.020  10.038  18.725  0.00  0.00    +0.000 A 
ATOM     26  C   UNL     1       0.607  10.183  20.051  0.00  0.00    +0.000 A 
ATOM     27  C   UNL     1       0.856   9.164  20.974  0.00  0.00    +0.000 A 
ATOM     28 BR   UNL     1       0.301   9.376  22.767  0.00  0.00    +0.000 Br
ATOM     29  C   UNL     1       1.521   8.002  20.588  0.00  0.00    +0.000 A 
ENDBRANCH  20  23
ENDBRANCH  18  20
ENDBRANCH  17  18
ENDBRANCH   7  17
TORSDOF 8
ENDMDL
MODEL 9
REMARK VINA RESULT:      -7.0      3.287      7.886
REMARK  Name = 
REMARK  8 active torsions:
REMARK  status: ('A' for Active; 'I' for Inactive)
REMARK    1  A    between atoms: C_2  and  C_3
REMARK    2  A    between atoms: C_3  and  O_4
REMARK    3  A    between atoms: O_4  and  C_5
REMARK    4  A    between atoms: C_11  and  O_12
REMARK    5  A    between atoms: C_11  and  C_13
REMARK    6  A    between atoms: C_13  and  N_14
REMARK    7  A    between atoms: N_14  and  S_15
REMARK    8  A    between atoms: S_15  and  C_18
REMARK                            x       y       z     vdW  Elec       q    Type
REMARK                         _______ _______ _______ _____ _____    ______ ____
ROOT
ATOM      1  C   UNL     1       5.531   4.186  14.359  0.00  0.00    +0.000 A 
ATOM      2  C   UNL     1       6.791   4.719  14.101  0.00  0.00    +0.000 A 
ATOM      3  C   UNL     1       7.580   5.184  15.157  0.00  0.00    +0.000 A 
ATOM      4  C   UNL     1       7.106   5.134  16.470  0.00  0.00    +0.000 A 
ATOM      5  C   UNL     1       5.833   4.622  16.741  0.00  0.00    +0.000 A 
ATOM      6  C   UNL     1       5.044   4.179  15.666  0.00  0.00    +0.000 A 
ATOM      7  C   UNL     1       5.299   4.579  18.156  0.00  0.00    +0.000 C 
ATOM      8  C   UNL     1       6.471   4.668  19.135  0.00  0.00    +0.000 C 
ATOM      9  C   UNL     1       7.427   5.773  18.737  0.00  0.00    +0.000 C 
ATOM     10  O   UNL     1       7.969   5.594  17.427  0.00  0.00    +0.000 OA
ENDROOT
BRANCH   7  11
ATOM     11  O   UNL     1       4.701   3.291  18.408  0.00  0.00    +0.000 OA
ATOM     12  H   UNL     1       4.205   3.009  17.623  0.00  0.00    +0.000 HD
ENDBRANCH   7  11
BRANCH   1  13
ATOM     13  O   UNL     1       4.844   3.692  13.281  0.00  0.00    +0.000 OA
BRANCH  13  14
ATOM     14  C   UNL     1       5.677   3.233  12.212  0.00  0.00    +0.000 C 
BRANCH  14  16
ATOM     15  C   UNL     1       3.586   3.227  10.829  0.00  0.00    +0.000 C 
ATOM     16  C   UNL     1       4.806   2.743  11.100  0.00  0.00    +0.000 C 
ENDBRANCH  14  16
ENDBRANCH  13  14
ENDBRANCH   1  13
BRANCH   7  17
ATOM     17  C   UNL     1       4.206   5.669  18.378  0.00  0.00    +0.000 C 
BRANCH  17  18
ATOM     18  N   UNL     1       3.806   5.832  19.786  0.00  0.00    +0.000 NA
ATOM     19  H   UNL     1       4.144   6.662  20.281  0.00  0.00    +0.000 HD
BRANCH  18  20
ATOM     20  S   UNL     1       2.205   5.533  20.188  0.00  0.00    +0.000 S 
ATOM     21  O   UNL     1       1.593   4.949  19.018  0.00  0.00    +0.000 OA
ATOM     22  O   UNL     1       2.190   4.865  21.472  0.00  0.00    +0.000 OA
BRANCH  20  23
ATOM     23  C   UNL     1       1.525   7.159  20.380  0.00  0.00    +0.000 A 
ATOM     24  C   UNL     1       0.642   7.421  21.431  0.00  0.00    +0.000 A 
ATOM     25  C   UNL     1       0.053   8.680  21.538  0.00  0.00    +0.000 A 
ATOM     26  C   UNL     1       0.347   9.670  20.599  0.00  0.00    +0.000 A 
ATOM     27  C   UNL     1       1.236   9.398  19.555  0.00  0.00    +0.000 A 
ATOM     28 BR   UNL     1       1.620  10.743  18.284  0.00  0.00    +0.000 Br
ATOM     29  C   UNL     1       1.831   8.143  19.436  0.00  0.00    +0.000 A 
ENDBRANCH  20  23
ENDBRANCH  18  20
ENDBRANCH  17  18
ENDBRANCH   7  17
TORSDOF 8
ENDMDL
