MODEL 1
REMARK VINA RESULT:      -8.4      0.000      0.000
REMARK  Name = 
REMARK  8 active torsions:
REMARK  status: ('A' for Active; 'I' for Inactive)
REMARK    1  A    between atoms: C_2  and  C_3
REMARK    2  A    between atoms: C_3  and  S_4
REMARK    3  A    between atoms: S_4  and  C_5
REMARK    4  A    between atoms: C_10  and  N_11
REMARK    5  A    between atoms: C_12  and  C_14
REMARK    6  A    between atoms: C_15  and  C_16
REMARK    7  A    between atoms: N_26  and  C_27
REMARK    8  A    between atoms: C_27  and  C_28
REMARK                            x       y       z     vdW  Elec       q    Type
REMARK                         _______ _______ _______ _____ _____    ______ ____
ROOT
ATOM      1  C   UNL     1       2.814   5.847  19.522  0.00  0.00    +0.000 A 
ATOM      2  N   UNL     1       2.082   6.344  20.445  0.00  0.00    +0.000 NA
ATOM      3  C   UNL     1       1.576   7.618  20.304  0.00  0.00    +0.000 A 
ATOM      4  C   UNL     1       0.820   8.087  21.357  0.00  0.00    +0.000 A 
ATOM      5  C   UNL     1       0.304   9.368  21.312  0.00  0.00    +0.000 A 
ATOM      6  C   UNL     1       0.506  10.197  20.206  0.00  0.00    +0.000 A 
ATOM      7  C   UNL     1       1.260   9.709  19.125  0.00  0.00    +0.000 A 
ATOM      8  C   UNL     1       1.801   8.411  19.191  0.00  0.00    +0.000 A 
ATOM      9  C   UNL     1       2.658   7.821  18.134  0.00  0.00    +0.000 A 
ATOM     10  O   UNL     1       2.904   8.511  17.148  0.00  0.00    +0.000 OA
ATOM     11  N   UNL     1       3.161   6.526  18.350  0.00  0.00    +0.000 N 
ENDROOT
BRANCH   6  12
ATOM     12  N   UNL     1      -0.036  11.504  20.173  0.00  0.00    +0.000 N 
ATOM     13  C   UNL     1       0.614  12.623  20.663  0.00  0.00    +0.000 C 
ATOM     14  O   UNL     1       1.718  12.664  21.203  0.00  0.00    +0.000 OA
ATOM     15  H   UNL     1      -0.952  11.618  19.754  0.00  0.00    +0.000 HD
BRANCH  13  16
ATOM     16  C   UNL     1      -0.124  13.888  20.494  0.00  0.00    +0.000 C 
ATOM     17  C   UNL     1       0.233  14.663  19.458  0.00  0.00    +0.000 C 
BRANCH  17  18
ATOM     18  C   UNL     1      -0.453  15.897  19.102  0.00  0.00    +0.000 A 
ATOM     19  C   UNL     1      -0.093  16.624  17.964  0.00  0.00    +0.000 A 
ATOM     20  C   UNL     1      -0.683  17.858  17.702  0.00  0.00    +0.000 A 
ATOM     21  C   UNL     1      -1.667  18.348  18.559  0.00  0.00    +0.000 A 
ATOM     22  C   UNL     1      -2.086  17.593  19.653  0.00  0.00    +0.000 A 
ATOM     23  C   UNL     1      -1.488  16.363  19.921  0.00  0.00    +0.000 A 
ENDBRANCH  17  18
ENDBRANCH  13  16
ENDBRANCH   6  12
BRANCH   1  24
ATOM     24  S   UNL     1       3.359   4.218  19.888  0.00  0.00    +0.000 S 
BRANCH  24  25
ATOM     25  C   UNL     1       1.911   3.294  19.197  0.00  0.00    +0.000 C 
BRANCH  25  27
ATOM     26  C   UNL     1       1.405   2.719  21.594  0.00  0.00    +0.000 C 
ATOM     27  C   UNL     1       1.017   2.857  20.319  0.00  0.00    +0.000 C 
ENDBRANCH  25  27
ENDBRANCH  24  25
ENDBRANCH   1  24
BRANCH  11  28
ATOM     28  C   UNL     1       4.094   6.010  17.332  0.00  0.00    +0.000 C 
BRANCH  28  29
ATOM     29  C   UNL     1       5.557   6.254  17.658  0.00  0.00    +0.000 A 
ATOM     30  C   UNL     1       6.246   5.421  18.556  0.00  0.00    +0.000 A 
ATOM     31  C   UNL     1       7.520   5.767  19.014  0.00  0.00    +0.000 A 
ATOM     32  C   UNL     1       8.143   6.917  18.537  0.00  0.00    +0.000 A 
ATOM     33  C   UNL     1       7.521   7.685  17.557  0.00  0.00    +0.000 A 
ATOM     34  C   UNL     1       6.238   7.352  17.117  0.00  0.00    +0.000 A 
ENDBRANCH  28  29
ENDBRANCH  11  28
TORSDOF 8
ENDMDL
MODEL 2
REMARK VINA RESULT:      -8.3      4.937     10.794
REMARK  Name = 
REMARK  8 active torsions:
REMARK  status: ('A' for Active; 'I' for Inactive)
REMARK    1  A    between atoms: C_2  and  C_3
REMARK    2  A    between atoms: C_3  and  S_4
REMARK    3  A    between atoms: S_4  and  C_5
REMARK    4  A    between atoms: C_10  and  N_11
REMARK    5  A    between atoms: C_12  and  C_14
REMARK    6  A    between atoms: C_15  and  C_16
REMARK    7  A    between atoms: N_26  and  C_27
REMARK    8  A    between atoms: C_27  and  C_28
REMARK                            x       y       z     vdW  Elec       q    Type
REMARK                         _______ _______ _______ _____ _____    ______ ____
ROOT
ATOM      1  C   UNL     1      -3.670  12.978  20.486  0.00  0.00    +0.000 A 
ATOM      2  N   UNL     1      -2.473  12.833  20.911  0.00  0.00    +0.000 NA
ATOM      3  C   UNL     1      -1.575  12.084  20.182  0.00  0.00    +0.000 A 
ATOM      4  C   UNL     1      -0.314  11.956  20.724  0.00  0.00    +0.000 A 
ATOM      5  C   UNL     1       0.636  11.192  20.074  0.00  0.00    +0.000 A 
ATOM      6  C   UNL     1       0.359  10.564  18.856  0.00  0.00    +0.000 A 
ATOM      7  C   UNL     1      -0.921  10.714  18.296  0.00  0.00    +0.000 A 
ATOM      8  C   UNL     1      -1.889  11.475  18.978  0.00  0.00    +0.000 A 
ATOM      9  C   UNL     1      -3.284  11.648  18.504  0.00  0.00    +0.000 A 
ATOM     10  O   UNL     1      -3.604  11.094  17.456  0.00  0.00    +0.000 OA
ATOM     11  N   UNL     1      -4.155  12.406  19.308  0.00  0.00    +0.000 N 
ENDROOT
BRANCH   6  12
ATOM     12  N   UNL     1       1.346   9.791  18.200  0.00  0.00    +0.000 N 
ATOM     13  C   UNL     1       1.864   8.610  18.702  0.00  0.00    +0.000 C 
ATOM     14  O   UNL     1       1.577   8.067  19.767  0.00  0.00    +0.000 OA
ATOM     15  H   UNL     1       1.680  10.127  17.304  0.00  0.00    +0.000 HD
BRANCH  13  16
ATOM     16  C   UNL     1       2.858   7.955  17.834  0.00  0.00    +0.000 C 
ATOM     17  C   UNL     1       3.118   6.662  18.080  0.00  0.00    +0.000 C 
BRANCH  17  18
ATOM     18  C   UNL     1       4.006   5.849  17.261  0.00  0.00    +0.000 A 
ATOM     19  C   UNL     1       4.040   4.458  17.388  0.00  0.00    +0.000 A 
ATOM     20  C   UNL     1       4.974   3.708  16.679  0.00  0.00    +0.000 A 
ATOM     21  C   UNL     1       5.853   4.348  15.806  0.00  0.00    +0.000 A 
ATOM     22  C   UNL     1       5.774   5.727  15.615  0.00  0.00    +0.000 A 
ATOM     23  C   UNL     1       4.846   6.478  16.334  0.00  0.00    +0.000 A 
ENDBRANCH  17  18
ENDBRANCH  13  16
ENDBRANCH   6  12
BRANCH   1  24
ATOM     24  S   UNL     1      -4.656  13.965  21.554  0.00  0.00    +0.000 S 
BRANCH  24  25
ATOM     25  C   UNL     1      -3.576  13.888  23.057  0.00  0.00    +0.000 C 
BRANCH  25  27
ATOM     26  C   UNL     1      -5.592  12.828  24.128  0.00  0.00    +0.000 C 
ATOM     27  C   UNL     1      -4.289  13.140  24.144  0.00  0.00    +0.000 C 
ENDBRANCH  25  27
ENDBRANCH  24  25
ENDBRANCH   1  24
BRANCH  11  28
ATOM     28  C   UNL     1      -5.560  12.470  18.865  0.00  0.00    +0.000 C 
BRANCH  28  29
ATOM     29  C   UNL     1      -6.448  11.401  19.476  0.00  0.00    +0.000 A 
ATOM     30  C   UNL     1      -7.197  11.660  20.637  0.00  0.00    +0.000 A 
ATOM     31  C   UNL     1      -7.844  10.622  21.314  0.00  0.00    +0.000 A 
ATOM     32  C   UNL     1      -7.797   9.325  20.809  0.00  0.00    +0.000 A 
ATOM     33  C   UNL     1      -7.161   9.078  19.596  0.00  0.00    +0.000 A 
ATOM     34  C   UNL     1      -6.494  10.111  18.932  0.00  0.00    +0.000 A 
ENDBRANCH  28  29
ENDBRANCH  11  28
TORSDOF 8
ENDMDL
MODEL 3
REMARK VINA RESULT:      -8.2      1.117      1.231
REMARK  Name = 
REMARK  8 active torsions:
REMARK  status: ('A' for Active; 'I' for Inactive)
REMARK    1  A    between atoms: C_2  and  C_3
REMARK    2  A    between atoms: C_3  and  S_4
REMARK    3  A    between atoms: S_4  and  C_5
REMARK    4  A    between atoms: C_10  and  N_11
REMARK    5  A    between atoms: C_12  and  C_14
REMARK    6  A    between atoms: C_15  and  C_16
REMARK    7  A    between atoms: N_26  and  C_27
REMARK    8  A    between atoms: C_27  and  C_28
REMARK                            x       y       z     vdW  Elec       q    Type
REMARK                         _______ _______ _______ _____ _____    ______ ____
ROOT
ATOM      1  C   UNL     1       2.631   5.801  19.786  0.00  0.00    +0.000 A 
ATOM      2  N   UNL     1       1.924   6.449  20.631  0.00  0.00    +0.000 NA
ATOM      3  C   UNL     1       1.529   7.738  20.347  0.00  0.00    +0.000 A 
ATOM      4  C   UNL     1       0.792   8.374  21.323  0.00  0.00    +0.000 A 
ATOM      5  C   UNL     1       0.387   9.680  21.133  0.00  0.00    +0.000 A 
ATOM      6  C   UNL     1       0.682  10.372  19.954  0.00  0.00    +0.000 A 
ATOM      7  C   UNL     1       1.416   9.714  18.952  0.00  0.00    +0.000 A 
ATOM      8  C   UNL     1       1.845   8.390  19.166  0.00  0.00    +0.000 A 
ATOM      9  C   UNL     1       2.672   7.626  18.200  0.00  0.00    +0.000 A 
ATOM     10  O   UNL     1       2.996   8.187  17.157  0.00  0.00    +0.000 OA
ATOM     11  N   UNL     1       3.059   6.323  18.563  0.00  0.00    +0.000 N 
ENDROOT
BRANCH   6  12
ATOM     12  N   UNL     1       0.254  11.708  19.772  0.00  0.00    +0.000 N 
ATOM     13  C   UNL     1      -0.998  12.061  19.299  0.00  0.00    +0.000 C 
ATOM     14  O   UNL     1      -1.904  11.304  18.957  0.00  0.00    +0.000 OA
ATOM     15  H   UNL     1       0.908  12.443  20.014  0.00  0.00    +0.000 HD
BRANCH  13  16
ATOM     16  C   UNL     1      -1.240  13.513  19.221  0.00  0.00    +0.000 C 
ATOM     17  C   UNL     1      -0.176  14.313  19.386  0.00  0.00    +0.000 C 
BRANCH  17  18
ATOM     18  C   UNL     1      -0.230  15.762  19.251  0.00  0.00    +0.000 A 
ATOM     19  C   UNL     1       0.760  16.463  18.557  0.00  0.00    +0.000 A 
ATOM     20  C   UNL     1       0.752  17.855  18.535  0.00  0.00    +0.000 A 
ATOM     21  C   UNL     1      -0.273  18.550  19.175  0.00  0.00    +0.000 A 
ATOM     22  C   UNL     1      -1.306  17.856  19.804  0.00  0.00    +0.000 A 
ATOM     23  C   UNL     1      -1.292  16.463  19.835  0.00  0.00    +0.000 A 
ENDBRANCH  17  18
ENDBRANCH  13  16
ENDBRANCH   6  12
BRANCH   1  24
ATOM     24  S   UNL     1       3.029   4.179  20.332  0.00  0.00    +0.000 S 
BRANCH  24  25
ATOM     25  C   UNL     1       1.326   3.642  20.825  0.00  0.00    +0.000 C 
BRANCH  25  27
ATOM     26  C   UNL     1       1.093   2.247  18.743  0.00  0.00    +0.000 C 
ATOM     27  C   UNL     1       0.596   3.132  19.619  0.00  0.00    +0.000 C 
ENDBRANCH  25  27
ENDBRANCH  24  25
ENDBRANCH   1  24
BRANCH  11  28
ATOM     28  C   UNL     1       3.968   5.631  17.631  0.00  0.00    +0.000 C 
BRANCH  28  29
ATOM     29  C   UNL     1       5.438   5.929  17.868  0.00  0.00    +0.000 A 
ATOM     30  C   UNL     1       6.147   5.293  18.901  0.00  0.00    +0.000 A 
ATOM     31  C   UNL     1       7.431   5.719  19.251  0.00  0.00    +0.000 A 
ATOM     32  C   UNL     1       8.043   6.746  18.537  0.00  0.00    +0.000 A 
ATOM     33  C   UNL     1       7.399   7.301  17.435  0.00  0.00    +0.000 A 
ATOM     34  C   UNL     1       6.106   6.891  17.100  0.00  0.00    +0.000 A 
ENDBRANCH  28  29
ENDBRANCH  11  28
TORSDOF 8
ENDMDL
MODEL 4
REMARK VINA RESULT:      -8.0      1.475      1.932
REMARK  Name = 
REMARK  8 active torsions:
REMARK  status: ('A' for Active; 'I' for Inactive)
REMARK    1  A    between atoms: C_2  and  C_3
REMARK    2  A    between atoms: C_3  and  S_4
REMARK    3  A    between atoms: S_4  and  C_5
REMARK    4  A    between atoms: C_10  and  N_11
REMARK    5  A    between atoms: C_12  and  C_14
REMARK    6  A    between atoms: C_15  and  C_16
REMARK    7  A    between atoms: N_26  and  C_27
REMARK    8  A    between atoms: C_27  and  C_28
REMARK                            x       y       z     vdW  Elec       q    Type
REMARK                         _______ _______ _______ _____ _____    ______ ____
ROOT
ATOM      1  C   UNL     1       2.328   5.505  20.016  0.00  0.00    +0.000 A 
ATOM      2  N   UNL     1       1.739   6.325  20.802  0.00  0.00    +0.000 NA
ATOM      3  C   UNL     1       1.490   7.614  20.384  0.00  0.00    +0.000 A 
ATOM      4  C   UNL     1       0.876   8.439  21.301  0.00  0.00    +0.000 A 
ATOM      5  C   UNL     1       0.622   9.757  20.975  0.00  0.00    +0.000 A 
ATOM      6  C   UNL     1       0.948  10.273  19.718  0.00  0.00    +0.000 A 
ATOM      7  C   UNL     1       1.556   9.424  18.777  0.00  0.00    +0.000 A 
ATOM      8  C   UNL     1       1.832   8.089  19.128  0.00  0.00    +0.000 A 
ATOM      9  C   UNL     1       2.521   7.128  18.233  0.00  0.00    +0.000 A 
ATOM     10  O   UNL     1       2.866   7.527  17.124  0.00  0.00    +0.000 OA
ATOM     11  N   UNL     1       2.763   5.834  18.730  0.00  0.00    +0.000 N 
ENDROOT
BRANCH   6  12
ATOM     12  N   UNL     1       0.676  11.624  19.397  0.00  0.00    +0.000 N 
ATOM     13  C   UNL     1      -0.530  12.069  18.884  0.00  0.00    +0.000 C 
ATOM     14  O   UNL     1      -1.519  11.390  18.617  0.00  0.00    +0.000 OA
ATOM     15  H   UNL     1       1.412  12.299  19.566  0.00  0.00    +0.000 HD
BRANCH  13  16
ATOM     16  C   UNL     1      -0.603  13.523  18.656  0.00  0.00    +0.000 C 
ATOM     17  C   UNL     1       0.506  14.233  18.912  0.00  0.00    +0.000 C 
BRANCH  17  18
ATOM     18  C   UNL     1       0.625  15.661  18.655  0.00  0.00    +0.000 A 
ATOM     19  C   UNL     1      -0.500  16.491  18.635  0.00  0.00    +0.000 A 
ATOM     20  C   UNL     1      -0.379  17.830  18.277  0.00  0.00    +0.000 A 
ATOM     21  C   UNL     1       0.877  18.354  17.977  0.00  0.00    +0.000 A 
ATOM     22  C   UNL     1       2.014  17.552  18.070  0.00  0.00    +0.000 A 
ATOM     23  C   UNL     1       1.891  16.208  18.418  0.00  0.00    +0.000 A 
ENDBRANCH  17  18
ENDBRANCH  13  16
ENDBRANCH   6  12
BRANCH   1  24
ATOM     24  S   UNL     1       2.551   3.917  20.732  0.00  0.00    +0.000 S 
BRANCH  24  25
ATOM     25  C   UNL     1       1.056   3.092  20.014  0.00  0.00    +0.000 C 
BRANCH  25  27
ATOM     26  C   UNL     1       2.764   1.747  18.746  0.00  0.00    +0.000 C 
ATOM     27  C   UNL     1       1.489   2.024  19.054  0.00  0.00    +0.000 C 
ENDBRANCH  25  27
ENDBRANCH  24  25
ENDBRANCH   1  24
BRANCH  11  28
ATOM     28  C   UNL     1       3.544   4.937  17.858  0.00  0.00    +0.000 C 
BRANCH  28  29
ATOM     29  C   UNL     1       5.047   5.113  17.980  0.00  0.00    +0.000 A 
ATOM     30  C   UNL     1       5.900   4.805  16.907  0.00  0.00    +0.000 A 
ATOM     31  C   UNL     1       7.286   4.766  17.087  0.00  0.00    +0.000 A 
ATOM     32  C   UNL     1       7.837   5.089  18.324  0.00  0.00    +0.000 A 
ATOM     33  C   UNL     1       7.009   5.513  19.360  0.00  0.00    +0.000 A 
ATOM     34  C   UNL     1       5.623   5.529  19.187  0.00  0.00    +0.000 A 
ENDBRANCH  28  29
ENDBRANCH  11  28
TORSDOF 8
ENDMDL
MODEL 5
REMARK VINA RESULT:      -8.0      4.762     10.911
REMARK  Name = 
REMARK  8 active torsions:
REMARK  status: ('A' for Active; 'I' for Inactive)
REMARK    1  A    between atoms: C_2  and  C_3
REMARK    2  A    between atoms: C_3  and  S_4
REMARK    3  A    between atoms: S_4  and  C_5
REMARK    4  A    between atoms: C_10  and  N_11
REMARK    5  A    between atoms: C_12  and  C_14
REMARK    6  A    between atoms: C_15  and  C_16
REMARK    7  A    between atoms: N_26  and  C_27
REMARK    8  A    between atoms: C_27  and  C_28
REMARK                            x       y       z     vdW  Elec       q    Type
REMARK                         _______ _______ _______ _____ _____    ______ ____
ROOT
ATOM      1  C   UNL     1      -3.171  13.642  20.941  0.00  0.00    +0.000 A 
ATOM      2  N   UNL     1      -2.016  13.336  21.394  0.00  0.00    +0.000 NA
ATOM      3  C   UNL     1      -1.312  12.296  20.825  0.00  0.00    +0.000 A 
ATOM      4  C   UNL     1      -0.086  12.016  21.391  0.00  0.00    +0.000 A 
ATOM      5  C   UNL     1       0.668  10.966  20.904  0.00  0.00    +0.000 A 
ATOM      6  C   UNL     1       0.232  10.193  19.824  0.00  0.00    +0.000 A 
ATOM      7  C   UNL     1      -1.009  10.495  19.236  0.00  0.00    +0.000 A 
ATOM      8  C   UNL     1      -1.781  11.551  19.756  0.00  0.00    +0.000 A 
ATOM      9  C   UNL     1      -3.126  11.915  19.248  0.00  0.00    +0.000 A 
ATOM     10  O   UNL     1      -3.585  11.253  18.321  0.00  0.00    +0.000 OA
ATOM     11  N   UNL     1      -3.800  12.971  19.888  0.00  0.00    +0.000 N 
ENDROOT
BRANCH   6  12
ATOM     12  N   UNL     1       1.020   9.125  19.333  0.00  0.00    +0.000 N 
ATOM     13  C   UNL     1       1.873   9.230  18.249  0.00  0.00    +0.000 C 
ATOM     14  O   UNL     1       2.068  10.222  17.550  0.00  0.00    +0.000 OA
ATOM     15  H   UNL     1       0.954   8.238  19.817  0.00  0.00    +0.000 HD
BRANCH  13  16
ATOM     16  C   UNL     1       2.621   8.000  17.933  0.00  0.00    +0.000 C 
ATOM     17  C   UNL     1       2.499   6.979  18.795  0.00  0.00    +0.000 C 
BRANCH  17  18
ATOM     18  C   UNL     1       3.101   5.670  18.583  0.00  0.00    +0.000 A 
ATOM     19  C   UNL     1       2.536   4.747  17.697  0.00  0.00    +0.000 A 
ATOM     20  C   UNL     1       3.059   3.462  17.592  0.00  0.00    +0.000 A 
ATOM     21  C   UNL     1       4.177   3.108  18.346  0.00  0.00    +0.000 A 
ATOM     22  C   UNL     1       4.793   4.047  19.174  0.00  0.00    +0.000 A 
ATOM     23  C   UNL     1       4.262   5.330  19.286  0.00  0.00    +0.000 A 
ENDBRANCH  17  18
ENDBRANCH  13  16
ENDBRANCH   6  12
BRANCH   1  24
ATOM     24  S   UNL     1      -3.903  14.991  21.796  0.00  0.00    +0.000 S 
BRANCH  24  25
ATOM     25  C   UNL     1      -3.387  14.525  23.513  0.00  0.00    +0.000 C 
BRANCH  25  27
ATOM     26  C   UNL     1      -4.290  12.430  24.575  0.00  0.00    +0.000 C 
ATOM     27  C   UNL     1      -4.459  13.688  24.145  0.00  0.00    +0.000 C 
ENDBRANCH  25  27
ENDBRANCH  24  25
ENDBRANCH   1  24
BRANCH  11  28
ATOM     28  C   UNL     1      -5.176  13.238  19.431  0.00  0.00    +0.000 C 
BRANCH  28  29
ATOM     29  C   UNL     1      -6.236  12.436  20.166  0.00  0.00    +0.000 A 
ATOM     30  C   UNL     1      -6.780  12.896  21.377  0.00  0.00    +0.000 A 
ATOM     31  C   UNL     1      -7.593  12.066  22.153  0.00  0.00    +0.000 A 
ATOM     32  C   UNL     1      -7.917  10.789  21.703  0.00  0.00    +0.000 A 
ATOM     33  C   UNL     1      -7.483  10.367  20.449  0.00  0.00    +0.000 A 
ATOM     34  C   UNL     1      -6.651  11.189  19.683  0.00  0.00    +0.000 A 
ENDBRANCH  28  29
ENDBRANCH  11  28
TORSDOF 8
ENDMDL
MODEL 6
REMARK VINA RESULT:      -7.9      0.739      1.076
REMARK  Name = 
REMARK  8 active torsions:
REMARK  status: ('A' for Active; 'I' for Inactive)
REMARK    1  A    between atoms: C_2  and  C_3
REMARK    2  A    between atoms: C_3  and  S_4
REMARK    3  A    between atoms: S_4  and  C_5
REMARK    4  A    between atoms: C_10  and  N_11
REMARK    5  A    between atoms: C_12  and  C_14
REMARK    6  A    between atoms: C_15  and  C_16
REMARK    7  A    between atoms: N_26  and  C_27
REMARK    8  A    between atoms: C_27  and  C_28
REMARK                            x       y       z     vdW  Elec       q    Type
REMARK                         _______ _______ _______ _____ _____    ______ ____
ROOT
ATOM      1  C   UNL     1       2.644   5.826  19.752  0.00  0.00    +0.000 A 
ATOM      2  N   UNL     1       1.925   6.473  20.589  0.00  0.00    +0.000 NA
ATOM      3  C   UNL     1       1.507   7.751  20.286  0.00  0.00    +0.000 A 
ATOM      4  C   UNL     1       0.759   8.387  21.253  0.00  0.00    +0.000 A 
ATOM      5  C   UNL     1       0.330   9.683  21.045  0.00  0.00    +0.000 A 
ATOM      6  C   UNL     1       0.612  10.363  19.857  0.00  0.00    +0.000 A 
ATOM      7  C   UNL     1       1.357   9.704  18.864  0.00  0.00    +0.000 A 
ATOM      8  C   UNL     1       1.810   8.392  19.096  0.00  0.00    +0.000 A 
ATOM      9  C   UNL     1       2.651   7.630  18.141  0.00  0.00    +0.000 A 
ATOM     10  O   UNL     1       2.964   8.182  17.090  0.00  0.00    +0.000 OA
ATOM     11  N   UNL     1       3.061   6.339  18.521  0.00  0.00    +0.000 N 
ENDROOT
BRANCH   6  12
ATOM     12  N   UNL     1       0.159  11.688  19.656  0.00  0.00    +0.000 N 
ATOM     13  C   UNL     1       0.734  12.800  20.247  0.00  0.00    +0.000 C 
ATOM     14  O   UNL     1       1.685  12.819  21.026  0.00  0.00    +0.000 OA
ATOM     15  H   UNL     1      -0.630  11.821  19.034  0.00  0.00    +0.000 HD
BRANCH  13  16
ATOM     16  C   UNL     1       0.119  14.085  19.870  0.00  0.00    +0.000 C 
ATOM     17  C   UNL     1      -0.613  14.704  20.808  0.00  0.00    +0.000 C 
BRANCH  17  18
ATOM     18  C   UNL     1      -1.212  16.019  20.624  0.00  0.00    +0.000 A 
ATOM     19  C   UNL     1      -1.103  16.702  19.409  0.00  0.00    +0.000 A 
ATOM     20  C   UNL     1      -1.583  18.003  19.289  0.00  0.00    +0.000 A 
ATOM     21  C   UNL     1      -2.213  18.610  20.375  0.00  0.00    +0.000 A 
ATOM     22  C   UNL     1      -2.395  17.907  21.565  0.00  0.00    +0.000 A 
ATOM     23  C   UNL     1      -1.903  16.609  21.689  0.00  0.00    +0.000 A 
ENDBRANCH  17  18
ENDBRANCH  13  16
ENDBRANCH   6  12
BRANCH   1  24
ATOM     24  S   UNL     1       3.071   4.220  20.321  0.00  0.00    +0.000 S 
BRANCH  24  25
ATOM     25  C   UNL     1       1.385   3.674  20.860  0.00  0.00    +0.000 C 
BRANCH  25  27
ATOM     26  C   UNL     1       1.222   2.368  18.714  0.00  0.00    +0.000 C 
ATOM     27  C   UNL     1       0.652   3.092  19.689  0.00  0.00    +0.000 C 
ENDBRANCH  25  27
ENDBRANCH  24  25
ENDBRANCH   1  24
BRANCH  11  28
ATOM     28  C   UNL     1       3.983   5.650  17.599  0.00  0.00    +0.000 C 
BRANCH  28  29
ATOM     29  C   UNL     1       5.449   5.943  17.860  0.00  0.00    +0.000 A 
ATOM     30  C   UNL     1       6.149   5.277  18.881  0.00  0.00    +0.000 A 
ATOM     31  C   UNL     1       7.429   5.695  19.256  0.00  0.00    +0.000 A 
ATOM     32  C   UNL     1       8.046   6.743  18.580  0.00  0.00    +0.000 A 
ATOM     33  C   UNL     1       7.412   7.330  17.488  0.00  0.00    +0.000 A 
ATOM     34  C   UNL     1       6.124   6.929  17.128  0.00  0.00    +0.000 A 
ENDBRANCH  28  29
ENDBRANCH  11  28
TORSDOF 8
ENDMDL
MODEL 7
REMARK VINA RESULT:      -7.9      0.873      1.584
REMARK  Name = 
REMARK  8 active torsions:
REMARK  status: ('A' for Active; 'I' for Inactive)
REMARK    1  A    between atoms: C_2  and  C_3
REMARK    2  A    between atoms: C_3  and  S_4
REMARK    3  A    between atoms: S_4  and  C_5
REMARK    4  A    between atoms: C_10  and  N_11
REMARK    5  A    between atoms: C_12  and  C_14
REMARK    6  A    between atoms: C_15  and  C_16
REMARK    7  A    between atoms: N_26  and  C_27
REMARK    8  A    between atoms: C_27  and  C_28
REMARK                            x       y       z     vdW  Elec       q    Type
REMARK                         _______ _______ _______ _____ _____    ______ ____
ROOT
ATOM      1  C   UNL     1       2.184   6.092  20.043  0.00  0.00    +0.000 A 
ATOM      2  N   UNL     1       1.509   6.839  20.832  0.00  0.00    +0.000 NA
ATOM      3  C   UNL     1       1.223   8.137  20.467  0.00  0.00    +0.000 A 
ATOM      4  C   UNL     1       0.514   8.880  21.386  0.00  0.00    +0.000 A 
ATOM      5  C   UNL     1       0.217  10.201  21.115  0.00  0.00    +0.000 A 
ATOM      6  C   UNL     1       0.594  10.801  19.910  0.00  0.00    +0.000 A 
ATOM      7  C   UNL     1       1.299  10.034  18.966  0.00  0.00    +0.000 A 
ATOM      8  C   UNL     1       1.617   8.696  19.262  0.00  0.00    +0.000 A 
ATOM      9  C   UNL     1       2.406   7.818  18.364  0.00  0.00    +0.000 A 
ATOM     10  O   UNL     1       2.798   8.294  17.302  0.00  0.00    +0.000 OA
ATOM     11  N   UNL     1       2.681   6.512  18.807  0.00  0.00    +0.000 N 
ENDROOT
BRANCH   6  12
ATOM     12  N   UNL     1       0.276  12.154  19.644  0.00  0.00    +0.000 N 
ATOM     13  C   UNL     1       0.798  13.225  20.348  0.00  0.00    +0.000 C 
ATOM     14  O   UNL     1       1.581  13.180  21.294  0.00  0.00    +0.000 OA
ATOM     15  H   UNL     1      -0.369  12.339  18.884  0.00  0.00    +0.000 HD
BRANCH  13  16
ATOM     16  C   UNL     1       0.352  14.548  19.877  0.00  0.00    +0.000 C 
ATOM     17  C   UNL     1      -0.922  14.883  20.130  0.00  0.00    +0.000 C 
BRANCH  17  18
ATOM     18  C   UNL     1      -1.491  16.184  19.810  0.00  0.00    +0.000 A 
ATOM     19  C   UNL     1      -2.613  16.671  20.487  0.00  0.00    +0.000 A 
ATOM     20  C   UNL     1      -3.210  17.865  20.092  0.00  0.00    +0.000 A 
ATOM     21  C   UNL     1      -2.660  18.597  19.040  0.00  0.00    +0.000 A 
ATOM     22  C   UNL     1      -1.496  18.157  18.411  0.00  0.00    +0.000 A 
ATOM     23  C   UNL     1      -0.905  16.956  18.800  0.00  0.00    +0.000 A 
ENDBRANCH  17  18
ENDBRANCH  13  16
ENDBRANCH   6  12
BRANCH   1  24
ATOM     24  S   UNL     1       2.440   4.478  20.687  0.00  0.00    +0.000 S 
BRANCH  24  25
ATOM     25  C   UNL     1       0.930   3.670  19.983  0.00  0.00    +0.000 C 
BRANCH  25  27
ATOM     26  C   UNL     1       2.127   2.046  18.479  0.00  0.00    +0.000 C 
ATOM     27  C   UNL     1       1.282   2.299  19.489  0.00  0.00    +0.000 C 
ENDBRANCH  25  27
ENDBRANCH  24  25
ENDBRANCH   1  24
BRANCH  11  28
ATOM     28  C   UNL     1       3.556   5.701  17.939  0.00  0.00    +0.000 C 
BRANCH  28  29
ATOM     29  C   UNL     1       5.038   5.952  18.152  0.00  0.00    +0.000 A 
ATOM     30  C   UNL     1       5.783   6.705  17.230  0.00  0.00    +0.000 A 
ATOM     31  C   UNL     1       7.177   6.759  17.314  0.00  0.00    +0.000 A 
ATOM     32  C   UNL     1       7.838   6.108  18.353  0.00  0.00    +0.000 A 
ATOM     33  C   UNL     1       7.102   5.461  19.342  0.00  0.00    +0.000 A 
ATOM     34  C   UNL     1       5.710   5.387  19.244  0.00  0.00    +0.000 A 
ENDBRANCH  28  29
ENDBRANCH  11  28
TORSDOF 8
ENDMDL
MODEL 8
REMARK VINA RESULT:      -7.9      3.989     10.457
REMARK  Name = 
REMARK  8 active torsions:
REMARK  status: ('A' for Active; 'I' for Inactive)
REMARK    1  A    between atoms: C_2  and  C_3
REMARK    2  A    between atoms: C_3  and  S_4
REMARK    3  A    between atoms: S_4  and  C_5
REMARK    4  A    between atoms: C_10  and  N_11
REMARK    5  A    between atoms: C_12  and  C_14
REMARK    6  A    between atoms: C_15  and  C_16
REMARK    7  A    between atoms: N_26  and  C_27
REMARK    8  A    between atoms: C_27  and  C_28
REMARK                            x       y       z     vdW  Elec       q    Type
REMARK                         _______ _______ _______ _____ _____    ______ ____
ROOT
ATOM      1  C   UNL     1      -2.037  12.000  22.197  0.00  0.00    +0.000 A 
ATOM      2  N   UNL     1      -1.288  11.161  22.806  0.00  0.00    +0.000 NA
ATOM      3  C   UNL     1      -0.431  10.359  22.083  0.00  0.00    +0.000 A 
ATOM      4  C   UNL     1       0.320   9.464  22.814  0.00  0.00    +0.000 A 
ATOM      5  C   UNL     1       1.178   8.599  22.164  0.00  0.00    +0.000 A 
ATOM      6  C   UNL     1       1.327   8.626  20.775  0.00  0.00    +0.000 A 
ATOM      7  C   UNL     1       0.574   9.554  20.034  0.00  0.00    +0.000 A 
ATOM      8  C   UNL     1      -0.315  10.415  20.704  0.00  0.00    +0.000 A 
ATOM      9  C   UNL     1      -1.196  11.388  20.014  0.00  0.00    +0.000 A 
ATOM     10  O   UNL     1      -1.140  11.440  18.789  0.00  0.00    +0.000 OA
ATOM     11  N   UNL     1      -2.062  12.160  20.810  0.00  0.00    +0.000 N 
ENDROOT
BRANCH   6  12
ATOM     12  N   UNL     1       2.215   7.737  20.124  0.00  0.00    +0.000 N 
ATOM     13  C   UNL     1       2.090   6.360  20.154  0.00  0.00    +0.000 C 
ATOM     14  O   UNL     1       1.231   5.704  20.740  0.00  0.00    +0.000 OA
ATOM     15  H   UNL     1       2.981   8.146  19.601  0.00  0.00    +0.000 HD
BRANCH  13  16
ATOM     16  C   UNL     1       3.110   5.632  19.378  0.00  0.00    +0.000 C 
ATOM     17  C   UNL     1       3.622   6.261  18.310  0.00  0.00    +0.000 C 
BRANCH  17  18
ATOM     18  C   UNL     1       4.697   5.717  17.493  0.00  0.00    +0.000 A 
ATOM     19  C   UNL     1       5.947   6.340  17.431  0.00  0.00    +0.000 A 
ATOM     20  C   UNL     1       6.925   5.870  16.558  0.00  0.00    +0.000 A 
ATOM     21  C   UNL     1       6.667   4.747  15.773  0.00  0.00    +0.000 A 
ATOM     22  C   UNL     1       5.451   4.075  15.886  0.00  0.00    +0.000 A 
ATOM     23  C   UNL     1       4.469   4.552  16.751  0.00  0.00    +0.000 A 
ENDBRANCH  17  18
ENDBRANCH  13  16
ENDBRANCH   6  12
BRANCH   1  24
ATOM     24  S   UNL     1      -3.052  12.926  23.292  0.00  0.00    +0.000 S 
BRANCH  24  25
ATOM     25  C   UNL     1      -1.940  14.391  23.508  0.00  0.00    +0.000 C 
BRANCH  25  27
ATOM     26  C   UNL     1      -3.231  15.687  25.237  0.00  0.00    +0.000 C 
ATOM     27  C   UNL     1      -2.152  14.981  24.870  0.00  0.00    +0.000 C 
ENDBRANCH  25  27
ENDBRANCH  24  25
ENDBRANCH   1  24
BRANCH  11  28
ATOM     28  C   UNL     1      -3.000  13.040  20.087  0.00  0.00    +0.000 C 
BRANCH  28  29
ATOM     29  C   UNL     1      -4.320  12.377  19.736  0.00  0.00    +0.000 A 
ATOM     30  C   UNL     1      -5.397  12.387  20.639  0.00  0.00    +0.000 A 
ATOM     31  C   UNL     1      -6.530  11.603  20.405  0.00  0.00    +0.000 A 
ATOM     32  C   UNL     1      -6.625  10.846  19.241  0.00  0.00    +0.000 A 
ATOM     33  C   UNL     1      -5.618  10.923  18.282  0.00  0.00    +0.000 A 
ATOM     34  C   UNL     1      -4.475  11.688  18.527  0.00  0.00    +0.000 A 
ENDBRANCH  28  29
ENDBRANCH  11  28
TORSDOF 8
ENDMDL
MODEL 9
REMARK VINA RESULT:      -7.9      3.947     10.474
REMARK  Name = 
REMARK  8 active torsions:
REMARK  status: ('A' for Active; 'I' for Inactive)
REMARK    1  A    between atoms: C_2  and  C_3
REMARK    2  A    between atoms: C_3  and  S_4
REMARK    3  A    between atoms: S_4  and  C_5
REMARK    4  A    between atoms: C_10  and  N_11
REMARK    5  A    between atoms: C_12  and  C_14
REMARK    6  A    between atoms: C_15  and  C_16
REMARK    7  A    between atoms: N_26  and  C_27
REMARK    8  A    between atoms: C_27  and  C_28
REMARK                            x       y       z     vdW  Elec       q    Type
REMARK                         _______ _______ _______ _____ _____    ______ ____
ROOT
ATOM      1  C   UNL     1      -1.900  11.906  22.105  0.00  0.00    +0.000 A 
ATOM      2  N   UNL     1      -1.136  11.060  22.684  0.00  0.00    +0.000 NA
ATOM      3  C   UNL     1      -0.293  10.272  21.931  0.00  0.00    +0.000 A 
ATOM      4  C   UNL     1       0.477   9.369  22.632  0.00  0.00    +0.000 A 
ATOM      5  C   UNL     1       1.322   8.515  21.950  0.00  0.00    +0.000 A 
ATOM      6  C   UNL     1       1.440   8.564  20.558  0.00  0.00    +0.000 A 
ATOM      7  C   UNL     1       0.669   9.500  19.848  0.00  0.00    +0.000 A 
ATOM      8  C   UNL     1      -0.207  10.349  20.550  0.00  0.00    +0.000 A 
ATOM      9  C   UNL     1      -1.106  11.329  19.895  0.00  0.00    +0.000 A 
ATOM     10  O   UNL     1      -1.077  11.400  18.669  0.00  0.00    +0.000 OA
ATOM     11  N   UNL     1      -1.956  12.087  20.721  0.00  0.00    +0.000 N 
ENDROOT
BRANCH   6  12
ATOM     12  N   UNL     1       2.316   7.687  19.875  0.00  0.00    +0.000 N 
ATOM     13  C   UNL     1       2.244   6.307  19.951  0.00  0.00    +0.000 C 
ATOM     14  O   UNL     1       1.450   5.640  20.610  0.00  0.00    +0.000 OA
ATOM     15  H   UNL     1       3.031   8.106  19.291  0.00  0.00    +0.000 HD
BRANCH  13  16
ATOM     16  C   UNL     1       3.238   5.593  19.130  0.00  0.00    +0.000 C 
ATOM     17  C   UNL     1       3.958   6.331  18.271  0.00  0.00    +0.000 C 
BRANCH  17  18
ATOM     18  C   UNL     1       5.036   5.793  17.455  0.00  0.00    +0.000 A 
ATOM     19  C   UNL     1       5.002   5.879  16.060  0.00  0.00    +0.000 A 
ATOM     20  C   UNL     1       5.985   5.261  15.293  0.00  0.00    +0.000 A 
ATOM     21  C   UNL     1       7.030   4.586  15.923  0.00  0.00    +0.000 A 
ATOM     22  C   UNL     1       7.113   4.561  17.314  0.00  0.00    +0.000 A 
ATOM     23  C   UNL     1       6.123   5.171  18.082  0.00  0.00    +0.000 A 
ENDBRANCH  17  18
ENDBRANCH  13  16
ENDBRANCH   6  12
BRANCH   1  24
ATOM     24  S   UNL     1      -2.893  12.813  23.236  0.00  0.00    +0.000 S 
BRANCH  24  25
ATOM     25  C   UNL     1      -1.651  14.107  23.698  0.00  0.00    +0.000 C 
BRANCH  25  27
ATOM     26  C   UNL     1      -3.443  15.347  24.958  0.00  0.00    +0.000 C 
ATOM     27  C   UNL     1      -2.179  14.915  24.846  0.00  0.00    +0.000 C 
ENDBRANCH  25  27
ENDBRANCH  24  25
ENDBRANCH   1  24
BRANCH  11  28
ATOM     28  C   UNL     1      -2.911  12.975  20.032  0.00  0.00    +0.000 C 
BRANCH  28  29
ATOM     29  C   UNL     1      -4.225  12.304  19.671  0.00  0.00    +0.000 A 
ATOM     30  C   UNL     1      -4.392  11.660  18.434  0.00  0.00    +0.000 A 
ATOM     31  C   UNL     1      -5.655  11.230  18.019  0.00  0.00    +0.000 A 
ATOM     32  C   UNL     1      -6.755  11.388  18.858  0.00  0.00    +0.000 A 
ATOM     33  C   UNL     1      -6.581  11.914  20.135  0.00  0.00    +0.000 A 
ATOM     34  C   UNL     1      -5.322  12.366  20.540  0.00  0.00    +0.000 A 
ENDBRANCH  28  29
ENDBRANCH  11  28
TORSDOF 8
ENDMDL
