MODEL 1
REMARK VINA RESULT:      -8.1      0.000      0.000
REMARK  Name = 
REMARK  9 active torsions:
REMARK  status: ('A' for Active; 'I' for Inactive)
REMARK    1  A    between atoms: C_5  and  O_6
REMARK    2  A    between atoms: C_9  and  C_10
REMARK    3  A    between atoms: C_10  and  O_11
REMARK    4  A    between atoms: C_10  and  C_12
REMARK    5  A    between atoms: C_12  and  N_13
REMARK    6  A    between atoms: N_13  and  C_14
REMARK    7  A    between atoms: C_19  and  O_20
REMARK    8  A    between atoms: O_20  and  C_21
REMARK    9  A    between atoms: C_21  and  C_22
REMARK                            x       y       z     vdW  Elec       q    Type
REMARK                         _______ _______ _______ _____ _____    ______ ____
ROOT
ATOM      1  C   UNL     1       2.976   7.206  17.797  0.00  0.00    +0.000 C 
ENDROOT
BRANCH   1   2
ATOM      2  N   UNL     1       4.411   6.886  17.648  0.00  0.00    +0.000 NA
ATOM      3  H   UNL     1       4.949   7.525  18.238  0.00  0.00    +0.000 HD
BRANCH   2   4
ATOM      4  C   UNL     1       4.663   5.490  18.066  0.00  0.00    +0.000 C 
ATOM      5  C   UNL     1       6.082   5.264  18.624  0.00  0.00    +0.000 C 
ATOM      6  C   UNL     1       7.149   5.436  17.548  0.00  0.00    +0.000 C 
ATOM      7  C   UNL     1       6.914   4.467  16.391  0.00  0.00    +0.000 C 
ATOM      8  C   UNL     1       5.496   4.576  15.831  0.00  0.00    +0.000 C 
ATOM      9  C   UNL     1       4.424   4.445  16.926  0.00  0.00    +0.000 C 
BRANCH   9  10
ATOM     10  O   UNL     1       4.446   3.100  17.426  0.00  0.00    +0.000 OA
BRANCH  10  11
ATOM     11  C   UNL     1       3.144   2.511  17.466  0.00  0.00    +0.000 C 
BRANCH  11  12
ATOM     12  C   UNL     1       2.551   2.615  18.842  0.00  0.00    +0.000 A 
ATOM     13  C   UNL     1       3.339   2.505  19.992  0.00  0.00    +0.000 A 
ATOM     14  C   UNL     1       2.802   2.757  21.245  0.00  0.00    +0.000 A 
ATOM     15  C   UNL     1       1.462   3.128  21.364  0.00  0.00    +0.000 A 
ATOM     16  C   UNL     1       0.661   3.235  20.227  0.00  0.00    +0.000 A 
ATOM     17  C   UNL     1       1.203   2.986  18.969  0.00  0.00    +0.000 A 
ENDBRANCH  11  12
ENDBRANCH  10  11
ENDBRANCH   9  10
ENDBRANCH   2   4
ENDBRANCH   1   2
BRANCH   1  18
ATOM     18  C   UNL     1       2.516   7.595  19.218  0.00  0.00    +0.000 C 
BRANCH  18  26
ATOM     19  O   UNL     1      -0.269  10.310  23.677  0.00  0.00    +0.000 OA
ATOM     20  C   UNL     1      -0.002  10.068  22.517  0.00  0.00    +0.000 A 
ATOM     21  N   UNL     1      -0.591  10.649  21.427  0.00  0.00    +0.000 N 
ATOM     22  C   UNL     1      -0.138  10.214  20.183  0.00  0.00    +0.000 A 
ATOM     23  C   UNL     1      -0.581  10.668  18.956  0.00  0.00    +0.000 A 
ATOM     24  C   UNL     1      -0.023  10.135  17.803  0.00  0.00    +0.000 A 
ATOM     25  C   UNL     1       0.967   9.142  17.889  0.00  0.00    +0.000 A 
ATOM     26  C   UNL     1       1.424   8.655  19.135  0.00  0.00    +0.000 A 
ATOM     27  C   UNL     1       0.858   9.224  20.274  0.00  0.00    +0.000 A 
ATOM     28  S   UNL     1       1.213   8.899  21.990  0.00  0.00    +0.000 S 
ATOM     29  H   UNL     1      -1.311  11.338  21.589  0.00  0.00    +0.000 HD
BRANCH  23  30
ATOM     30  O   UNL     1      -1.540  11.624  18.804  0.00  0.00    +0.000 OA
ATOM     31  H   UNL     1      -2.401  11.252  19.047  0.00  0.00    +0.000 HD
ENDBRANCH  23  30
ENDBRANCH  18  26
BRANCH  18  32
ATOM     32  O   UNL     1       2.038   6.440  19.907  0.00  0.00    +0.000 OA
ATOM     33  H   UNL     1       2.804   5.927  20.208  0.00  0.00    +0.000 HD
ENDBRANCH  18  32
ENDBRANCH   1  18
TORSDOF 9
ENDMDL
MODEL 2
REMARK VINA RESULT:      -8.0      1.381      2.472
REMARK  Name = 
REMARK  9 active torsions:
REMARK  status: ('A' for Active; 'I' for Inactive)
REMARK    1  A    between atoms: C_5  and  O_6
REMARK    2  A    between atoms: C_9  and  C_10
REMARK    3  A    between atoms: C_10  and  O_11
REMARK    4  A    between atoms: C_10  and  C_12
REMARK    5  A    between atoms: C_12  and  N_13
REMARK    6  A    between atoms: N_13  and  C_14
REMARK    7  A    between atoms: C_19  and  O_20
REMARK    8  A    between atoms: O_20  and  C_21
REMARK    9  A    between atoms: C_21  and  C_22
REMARK                            x       y       z     vdW  Elec       q    Type
REMARK                         _______ _______ _______ _____ _____    ______ ____
ROOT
ATOM      1  C   UNL     1       2.315   7.215  18.155  0.00  0.00    +0.000 C 
ENDROOT
BRANCH   1   2
ATOM      2  N   UNL     1       3.754   7.199  17.819  0.00  0.00    +0.000 NA
ATOM      3  H   UNL     1       4.220   7.939  18.351  0.00  0.00    +0.000 HD
BRANCH   2   4
ATOM      4  C   UNL     1       4.340   5.887  18.173  0.00  0.00    +0.000 C 
ATOM      5  C   UNL     1       5.808   5.977  18.634  0.00  0.00    +0.000 C 
ATOM      6  C   UNL     1       6.734   6.406  17.501  0.00  0.00    +0.000 C 
ATOM      7  C   UNL     1       6.645   5.433  16.329  0.00  0.00    +0.000 C 
ATOM      8  C   UNL     1       5.203   5.229  15.861  0.00  0.00    +0.000 C 
ATOM      9  C   UNL     1       4.265   4.838  17.015  0.00  0.00    +0.000 C 
BRANCH   9  10
ATOM     10  O   UNL     1       4.622   3.523  17.466  0.00  0.00    +0.000 OA
BRANCH  10  11
ATOM     11  C   UNL     1       3.484   2.672  17.621  0.00  0.00    +0.000 C 
BRANCH  11  12
ATOM     12  C   UNL     1       2.772   2.957  18.913  0.00  0.00    +0.000 A 
ATOM     13  C   UNL     1       1.450   3.413  18.937  0.00  0.00    +0.000 A 
ATOM     14  C   UNL     1       0.761   3.522  20.134  0.00  0.00    +0.000 A 
ATOM     15  C   UNL     1       1.388   3.170  21.331  0.00  0.00    +0.000 A 
ATOM     16  C   UNL     1       2.708   2.721  21.323  0.00  0.00    +0.000 A 
ATOM     17  C   UNL     1       3.398   2.608  20.119  0.00  0.00    +0.000 A 
ENDBRANCH  11  12
ENDBRANCH  10  11
ENDBRANCH   9  10
ENDBRANCH   2   4
ENDBRANCH   1   2
BRANCH   1  18
ATOM     18  C   UNL     1       1.628   8.596  18.116  0.00  0.00    +0.000 C 
BRANCH  18  26
ATOM     19  O   UNL     1      -2.217  12.808  19.692  0.00  0.00    +0.000 OA
ATOM     20  C   UNL     1      -1.428  11.901  19.868  0.00  0.00    +0.000 A 
ATOM     21  N   UNL     1      -1.042  11.409  21.085  0.00  0.00    +0.000 N 
ATOM     22  C   UNL     1      -0.114  10.369  21.057  0.00  0.00    +0.000 A 
ATOM     23  C   UNL     1       0.405   9.718  22.159  0.00  0.00    +0.000 A 
ATOM     24  C   UNL     1       1.321   8.694  21.962  0.00  0.00    +0.000 A 
ATOM     25  C   UNL     1       1.719   8.341  20.662  0.00  0.00    +0.000 A 
ATOM     26  C   UNL     1       1.209   9.004  19.522  0.00  0.00    +0.000 A 
ATOM     27  C   UNL     1       0.276  10.014  19.753  0.00  0.00    +0.000 A 
ATOM     28  S   UNL     1      -0.603  11.024  18.577  0.00  0.00    +0.000 S 
ATOM     29  H   UNL     1      -1.439  11.828  21.913  0.00  0.00    +0.000 HD
BRANCH  23  30
ATOM     30  O   UNL     1       0.065  10.016  23.445  0.00  0.00    +0.000 OA
ATOM     31  H   UNL     1      -0.787  10.477  23.449  0.00  0.00    +0.000 HD
ENDBRANCH  23  30
ENDBRANCH  18  26
BRANCH  18  32
ATOM     32  O   UNL     1       2.517   9.565  17.559  0.00  0.00    +0.000 OA
ATOM     33  H   UNL     1       2.268  10.437  17.901  0.00  0.00    +0.000 HD
ENDBRANCH  18  32
ENDBRANCH   1  18
TORSDOF 9
ENDMDL
MODEL 3
REMARK VINA RESULT:      -8.0      1.847      4.517
REMARK  Name = 
REMARK  9 active torsions:
REMARK  status: ('A' for Active; 'I' for Inactive)
REMARK    1  A    between atoms: C_5  and  O_6
REMARK    2  A    between atoms: C_9  and  C_10
REMARK    3  A    between atoms: C_10  and  O_11
REMARK    4  A    between atoms: C_10  and  C_12
REMARK    5  A    between atoms: C_12  and  N_13
REMARK    6  A    between atoms: N_13  and  C_14
REMARK    7  A    between atoms: C_19  and  O_20
REMARK    8  A    between atoms: O_20  and  C_21
REMARK    9  A    between atoms: C_21  and  C_22
REMARK                            x       y       z     vdW  Elec       q    Type
REMARK                         _______ _______ _______ _____ _____    ______ ____
ROOT
ATOM      1  C   UNL     1       2.383   7.361  18.266  0.00  0.00    +0.000 C 
ENDROOT
BRANCH   1   2
ATOM      2  N   UNL     1       1.627   6.105  18.079  0.00  0.00    +0.000 NA
ATOM      3  H   UNL     1       1.227   6.104  17.138  0.00  0.00    +0.000 HD
BRANCH   2   4
ATOM      4  C   UNL     1       2.530   4.944  18.238  0.00  0.00    +0.000 C 
ATOM      5  C   UNL     1       1.795   3.589  18.213  0.00  0.00    +0.000 C 
ATOM      6  C   UNL     1       0.888   3.412  19.425  0.00  0.00    +0.000 C 
ATOM      7  C   UNL     1       1.688   3.515  20.722  0.00  0.00    +0.000 C 
ATOM      8  C   UNL     1       2.510   4.802  20.789  0.00  0.00    +0.000 C 
ATOM      9  C   UNL     1       3.391   4.998  19.543  0.00  0.00    +0.000 C 
BRANCH   9  10
ATOM     10  O   UNL     1       4.413   3.990  19.547  0.00  0.00    +0.000 OA
BRANCH  10  11
ATOM     11  C   UNL     1       5.200   4.007  18.354  0.00  0.00    +0.000 C 
BRANCH  11  12
ATOM     12  C   UNL     1       6.067   5.233  18.299  0.00  0.00    +0.000 A 
ATOM     13  C   UNL     1       7.157   5.400  19.159  0.00  0.00    +0.000 A 
ATOM     14  C   UNL     1       8.034   6.459  18.991  0.00  0.00    +0.000 A 
ATOM     15  C   UNL     1       7.834   7.370  17.953  0.00  0.00    +0.000 A 
ATOM     16  C   UNL     1       6.747   7.221  17.091  0.00  0.00    +0.000 A 
ATOM     17  C   UNL     1       5.869   6.153  17.259  0.00  0.00    +0.000 A 
ENDBRANCH  11  12
ENDBRANCH  10  11
ENDBRANCH   9  10
ENDBRANCH   2   4
ENDBRANCH   1   2
BRANCH   1  18
ATOM     18  C   UNL     1       1.558   8.663  18.191  0.00  0.00    +0.000 C 
BRANCH  18  26
ATOM     19  O   UNL     1      -2.345  12.848  19.695  0.00  0.00    +0.000 OA
ATOM     20  C   UNL     1      -1.547  11.952  19.886  0.00  0.00    +0.000 A 
ATOM     21  N   UNL     1      -1.165  11.476  21.111  0.00  0.00    +0.000 N 
ATOM     22  C   UNL     1      -0.225  10.446  21.101  0.00  0.00    +0.000 A 
ATOM     23  C   UNL     1       0.292   9.811  22.214  0.00  0.00    +0.000 A 
ATOM     24  C   UNL     1       1.221   8.796  22.033  0.00  0.00    +0.000 A 
ATOM     25  C   UNL     1       1.632   8.434  20.740  0.00  0.00    +0.000 A 
ATOM     26  C   UNL     1       1.124   9.080  19.590  0.00  0.00    +0.000 A 
ATOM     27  C   UNL     1       0.179  10.082  19.804  0.00  0.00    +0.000 A 
ATOM     28  S   UNL     1      -0.703  11.071  18.611  0.00  0.00    +0.000 S 
ATOM     29  H   UNL     1      -1.573  11.899  21.932  0.00  0.00    +0.000 HD
BRANCH  23  30
ATOM     30  O   UNL     1      -0.061  10.119  23.493  0.00  0.00    +0.000 OA
ATOM     31  H   UNL     1       0.739  10.298  24.009  0.00  0.00    +0.000 HD
ENDBRANCH  23  30
ENDBRANCH  18  26
BRANCH  18  32
ATOM     32  O   UNL     1       2.334   9.695  17.581  0.00  0.00    +0.000 OA
ATOM     33  H   UNL     1       2.398  10.435  18.203  0.00  0.00    +0.000 HD
ENDBRANCH  18  32
ENDBRANCH   1  18
TORSDOF 9
ENDMDL
MODEL 4
REMARK VINA RESULT:      -7.8      2.103      4.416
REMARK  Name = 
REMARK  9 active torsions:
REMARK  status: ('A' for Active; 'I' for Inactive)
REMARK    1  A    between atoms: C_5  and  O_6
REMARK    2  A    between atoms: C_9  and  C_10
REMARK    3  A    between atoms: C_10  and  O_11
REMARK    4  A    between atoms: C_10  and  C_12
REMARK    5  A    between atoms: C_12  and  N_13
REMARK    6  A    between atoms: N_13  and  C_14
REMARK    7  A    between atoms: C_19  and  O_20
REMARK    8  A    between atoms: O_20  and  C_21
REMARK    9  A    between atoms: C_21  and  C_22
REMARK                            x       y       z     vdW  Elec       q    Type
REMARK                         _______ _______ _______ _____ _____    ______ ____
ROOT
ATOM      1  C   UNL     1       3.537   5.684  19.348  0.00  0.00    +0.000 C 
ENDROOT
BRANCH   1   2
ATOM      2  N   UNL     1       4.941   5.689  19.810  0.00  0.00    +0.000 NA
ATOM      3  H   UNL     1       4.984   5.230  20.723  0.00  0.00    +0.000 HD
BRANCH   2   4
ATOM      4  C   UNL     1       5.792   4.958  18.844  0.00  0.00    +0.000 C 
ATOM      5  C   UNL     1       7.297   5.235  19.024  0.00  0.00    +0.000 C 
ATOM      6  C   UNL     1       7.655   6.677  18.683  0.00  0.00    +0.000 C 
ATOM      7  C   UNL     1       7.260   7.009  17.246  0.00  0.00    +0.000 C 
ATOM      8  C   UNL     1       5.792   6.687  16.964  0.00  0.00    +0.000 C 
ATOM      9  C   UNL     1       5.427   5.244  17.350  0.00  0.00    +0.000 C 
BRANCH   9  10
ATOM     10  O   UNL     1       6.105   4.349  16.457  0.00  0.00    +0.000 OA
BRANCH  10  11
ATOM     11  C   UNL     1       5.283   3.945  15.361  0.00  0.00    +0.000 C 
BRANCH  11  12
ATOM     12  C   UNL     1       5.985   4.167  14.052  0.00  0.00    +0.000 A 
ATOM     13  C   UNL     1       7.110   4.992  13.953  0.00  0.00    +0.000 A 
ATOM     14  C   UNL     1       7.835   5.063  12.774  0.00  0.00    +0.000 A 
ATOM     15  C   UNL     1       7.443   4.302  11.672  0.00  0.00    +0.000 A 
ATOM     16  C   UNL     1       6.319   3.480  11.752  0.00  0.00    +0.000 A 
ATOM     17  C   UNL     1       5.595   3.407  12.939  0.00  0.00    +0.000 A 
ENDBRANCH  11  12
ENDBRANCH  10  11
ENDBRANCH   9  10
ENDBRANCH   2   4
ENDBRANCH   1   2
BRANCH   1  18
ATOM     18  C   UNL     1       2.516   6.361  20.286  0.00  0.00    +0.000 C 
BRANCH  18  26
ATOM     19  O   UNL     1      -0.229  10.853  22.987  0.00  0.00    +0.000 OA
ATOM     20  C   UNL     1       0.286  10.262  22.059  0.00  0.00    +0.000 A 
ATOM     21  N   UNL     1       0.384  10.728  20.776  0.00  0.00    +0.000 N 
ATOM     22  C   UNL     1       1.006   9.878  19.863  0.00  0.00    +0.000 A 
ATOM     23  C   UNL     1       1.223  10.146  18.525  0.00  0.00    +0.000 A 
ATOM     24  C   UNL     1       1.863   9.193  17.747  0.00  0.00    +0.000 A 
ATOM     25  C   UNL     1       2.271   7.974  18.313  0.00  0.00    +0.000 A 
ATOM     26  C   UNL     1       2.047   7.676  19.676  0.00  0.00    +0.000 A 
ATOM     27  C   UNL     1       1.419   8.662  20.436  0.00  0.00    +0.000 A 
ATOM     28  S   UNL     1       1.017   8.659  22.172  0.00  0.00    +0.000 S 
ATOM     29  H   UNL     1      -0.001  11.639  20.572  0.00  0.00    +0.000 HD
BRANCH  23  30
ATOM     30  O   UNL     1       0.847  11.306  17.915  0.00  0.00    +0.000 OA
ATOM     31  H   UNL     1       1.144  12.057  18.450  0.00  0.00    +0.000 HD
ENDBRANCH  23  30
ENDBRANCH  18  26
BRANCH  18  32
ATOM     32  O   UNL     1       1.406   5.490  20.506  0.00  0.00    +0.000 OA
ATOM     33  H   UNL     1       1.424   4.798  19.828  0.00  0.00    +0.000 HD
ENDBRANCH  18  32
ENDBRANCH   1  18
TORSDOF 9
ENDMDL
MODEL 5
REMARK VINA RESULT:      -7.8      1.803      4.554
REMARK  Name = 
REMARK  9 active torsions:
REMARK  status: ('A' for Active; 'I' for Inactive)
REMARK    1  A    between atoms: C_5  and  O_6
REMARK    2  A    between atoms: C_9  and  C_10
REMARK    3  A    between atoms: C_10  and  O_11
REMARK    4  A    between atoms: C_10  and  C_12
REMARK    5  A    between atoms: C_12  and  N_13
REMARK    6  A    between atoms: N_13  and  C_14
REMARK    7  A    between atoms: C_19  and  O_20
REMARK    8  A    between atoms: O_20  and  C_21
REMARK    9  A    between atoms: C_21  and  C_22
REMARK                            x       y       z     vdW  Elec       q    Type
REMARK                         _______ _______ _______ _____ _____    ______ ____
ROOT
ATOM      1  C   UNL     1       2.310   7.796  18.124  0.00  0.00    +0.000 C 
ENDROOT
BRANCH   1   2
ATOM      2  N   UNL     1       1.640   6.496  17.911  0.00  0.00    +0.000 NA
ATOM      3  H   UNL     1       1.247   6.484  16.967  0.00  0.00    +0.000 HD
BRANCH   2   4
ATOM      4  C   UNL     1       2.618   5.395  18.057  0.00  0.00    +0.000 C 
ATOM      5  C   UNL     1       2.003   3.998  17.843  0.00  0.00    +0.000 C 
ATOM      6  C   UNL     1       1.008   3.641  18.942  0.00  0.00    +0.000 C 
ATOM      7  C   UNL     1       1.677   3.682  20.314  0.00  0.00    +0.000 C 
ATOM      8  C   UNL     1       2.380   5.015  20.571  0.00  0.00    +0.000 C 
ATOM      9  C   UNL     1       3.351   5.390  19.439  0.00  0.00    +0.000 C 
BRANCH   9  10
ATOM     10  O   UNL     1       4.448   4.466  19.455  0.00  0.00    +0.000 OA
BRANCH  10  11
ATOM     11  C   UNL     1       5.704   5.105  19.216  0.00  0.00    +0.000 C 
BRANCH  11  12
ATOM     12  C   UNL     1       6.151   4.897  17.797  0.00  0.00    +0.000 A 
ATOM     13  C   UNL     1       5.606   3.888  16.996  0.00  0.00    +0.000 A 
ATOM     14  C   UNL     1       5.917   3.810  15.648  0.00  0.00    +0.000 A 
ATOM     15  C   UNL     1       6.780   4.748  15.079  0.00  0.00    +0.000 A 
ATOM     16  C   UNL     1       7.337   5.756  15.866  0.00  0.00    +0.000 A 
ATOM     17  C   UNL     1       7.020   5.835  17.219  0.00  0.00    +0.000 A 
ENDBRANCH  11  12
ENDBRANCH  10  11
ENDBRANCH   9  10
ENDBRANCH   2   4
ENDBRANCH   1   2
BRANCH   1  18
ATOM     18  C   UNL     1       1.390   9.034  18.142  0.00  0.00    +0.000 C 
BRANCH  18  26
ATOM     19  O   UNL     1      -2.549  13.037  20.006  0.00  0.00    +0.000 OA
ATOM     20  C   UNL     1      -1.728  12.149  20.120  0.00  0.00    +0.000 A 
ATOM     21  N   UNL     1      -1.299  11.611  21.303  0.00  0.00    +0.000 N 
ATOM     22  C   UNL     1      -0.339  10.604  21.204  0.00  0.00    +0.000 A 
ATOM     23  C   UNL     1       0.225   9.917  22.261  0.00  0.00    +0.000 A 
ATOM     24  C   UNL     1       1.168   8.935  21.994  0.00  0.00    +0.000 A 
ATOM     25  C   UNL     1       1.546   8.658  20.670  0.00  0.00    +0.000 A 
ATOM     26  C   UNL     1       0.990   9.359  19.576  0.00  0.00    +0.000 A 
ATOM     27  C   UNL     1       0.032  10.326  19.876  0.00  0.00    +0.000 A 
ATOM     28  S   UNL     1      -0.906  11.363  18.770  0.00  0.00    +0.000 S 
ATOM     29  H   UNL     1      -1.690  11.976  22.159  0.00  0.00    +0.000 HD
BRANCH  23  30
ATOM     30  O   UNL     1      -0.095  10.141  23.567  0.00  0.00    +0.000 OA
ATOM     31  H   UNL     1      -0.995  10.496  23.617  0.00  0.00    +0.000 HD
ENDBRANCH  23  30
ENDBRANCH  18  26
BRANCH  18  32
ATOM     32  O   UNL     1       2.058  10.146  17.546  0.00  0.00    +0.000 OA
ATOM     33  H   UNL     1       2.786   9.807  17.003  0.00  0.00    +0.000 HD
ENDBRANCH  18  32
ENDBRANCH   1  18
TORSDOF 9
ENDMDL
MODEL 6
REMARK VINA RESULT:      -7.8      1.795      4.402
REMARK  Name = 
REMARK  9 active torsions:
REMARK  status: ('A' for Active; 'I' for Inactive)
REMARK    1  A    between atoms: C_5  and  O_6
REMARK    2  A    between atoms: C_9  and  C_10
REMARK    3  A    between atoms: C_10  and  O_11
REMARK    4  A    between atoms: C_10  and  C_12
REMARK    5  A    between atoms: C_12  and  N_13
REMARK    6  A    between atoms: N_13  and  C_14
REMARK    7  A    between atoms: C_19  and  O_20
REMARK    8  A    between atoms: O_20  and  C_21
REMARK    9  A    between atoms: C_21  and  C_22
REMARK                            x       y       z     vdW  Elec       q    Type
REMARK                         _______ _______ _______ _____ _____    ______ ____
ROOT
ATOM      1  C   UNL     1       2.614   6.794  19.927  0.00  0.00    +0.000 C 
ENDROOT
BRANCH   1   2
ATOM      2  N   UNL     1       2.220   5.393  19.670  0.00  0.00    +0.000 NA
ATOM      3  H   UNL     1       1.218   5.299  19.850  0.00  0.00    +0.000 HD
BRANCH   2   4
ATOM      4  C   UNL     1       2.509   5.038  18.263  0.00  0.00    +0.000 C 
ATOM      5  C   UNL     1       1.446   4.118  17.633  0.00  0.00    +0.000 C 
ATOM      6  C   UNL     1       1.437   2.736  18.277  0.00  0.00    +0.000 C 
ATOM      7  C   UNL     1       2.804   2.069  18.151  0.00  0.00    +0.000 C 
ATOM      8  C   UNL     1       3.928   2.957  18.685  0.00  0.00    +0.000 C 
ATOM      9  C   UNL     1       3.906   4.363  18.064  0.00  0.00    +0.000 C 
BRANCH   9  10
ATOM     10  O   UNL     1       4.249   4.252  16.674  0.00  0.00    +0.000 OA
BRANCH  10  11
ATOM     11  C   UNL     1       5.659   4.140  16.468  0.00  0.00    +0.000 C 
BRANCH  11  12
ATOM     12  C   UNL     1       6.400   5.196  17.237  0.00  0.00    +0.000 A 
ATOM     13  C   UNL     1       7.170   4.881  18.361  0.00  0.00    +0.000 A 
ATOM     14  C   UNL     1       7.968   5.841  18.963  0.00  0.00    +0.000 A 
ATOM     15  C   UNL     1       8.010   7.136  18.443  0.00  0.00    +0.000 A 
ATOM     16  C   UNL     1       7.241   7.467  17.327  0.00  0.00    +0.000 A 
ATOM     17  C   UNL     1       6.444   6.500  16.721  0.00  0.00    +0.000 A 
ENDBRANCH  11  12
ENDBRANCH  10  11
ENDBRANCH   9  10
ENDBRANCH   2   4
ENDBRANCH   1   2
BRANCH   1  18
ATOM     18  C   UNL     1       1.756   7.874  19.235  0.00  0.00    +0.000 C 
BRANCH  18  26
ATOM     19  O   UNL     1      -2.126  12.257  18.383  0.00  0.00    +0.000 OA
ATOM     20  C   UNL     1      -1.420  11.507  19.028  0.00  0.00    +0.000 A 
ATOM     21  N   UNL     1      -1.278  11.524  20.389  0.00  0.00    +0.000 N 
ATOM     22  C   UNL     1      -0.404  10.578  20.923  0.00  0.00    +0.000 A 
ATOM     23  C   UNL     1      -0.118  10.407  22.264  0.00  0.00    +0.000 A 
ATOM     24  C   UNL     1       0.774   9.411  22.636  0.00  0.00    +0.000 A 
ATOM     25  C   UNL     1       1.382   8.604  21.660  0.00  0.00    +0.000 A 
ATOM     26  C   UNL     1       1.111   8.772  20.283  0.00  0.00    +0.000 A 
ATOM     27  C   UNL     1       0.196   9.767  19.943  0.00  0.00    +0.000 A 
ATOM     28  S   UNL     1      -0.416  10.231  18.335  0.00  0.00    +0.000 S 
ATOM     29  H   UNL     1      -1.798  12.213  20.911  0.00  0.00    +0.000 HD
BRANCH  23  30
ATOM     30  O   UNL     1      -0.668  11.159  23.258  0.00  0.00    +0.000 OA
ATOM     31  H   UNL     1      -0.671  10.647  24.080  0.00  0.00    +0.000 HD
ENDBRANCH  23  30
ENDBRANCH  18  26
BRANCH  18  32
ATOM     32  O   UNL     1       2.568   8.645  18.349  0.00  0.00    +0.000 OA
ATOM     33  H   UNL     1       2.223   8.537  17.449  0.00  0.00    +0.000 HD
ENDBRANCH  18  32
ENDBRANCH   1  18
TORSDOF 9
ENDMDL
MODEL 7
REMARK VINA RESULT:      -7.8      1.737      4.461
REMARK  Name = 
REMARK  9 active torsions:
REMARK  status: ('A' for Active; 'I' for Inactive)
REMARK    1  A    between atoms: C_5  and  O_6
REMARK    2  A    between atoms: C_9  and  C_10
REMARK    3  A    between atoms: C_10  and  O_11
REMARK    4  A    between atoms: C_10  and  C_12
REMARK    5  A    between atoms: C_12  and  N_13
REMARK    6  A    between atoms: N_13  and  C_14
REMARK    7  A    between atoms: C_19  and  O_20
REMARK    8  A    between atoms: O_20  and  C_21
REMARK    9  A    between atoms: C_21  and  C_22
REMARK                            x       y       z     vdW  Elec       q    Type
REMARK                         _______ _______ _______ _____ _____    ______ ____
ROOT
ATOM      1  C   UNL     1       2.545   7.555  18.329  0.00  0.00    +0.000 C 
ENDROOT
BRANCH   1   2
ATOM      2  N   UNL     1       2.002   6.250  18.762  0.00  0.00    +0.000 NA
ATOM      3  H   UNL     1       0.985   6.268  18.649  0.00  0.00    +0.000 HD
BRANCH   2   4
ATOM      4  C   UNL     1       2.576   5.166  17.935  0.00  0.00    +0.000 C 
ATOM      5  C   UNL     1       1.574   4.036  17.625  0.00  0.00    +0.000 C 
ATOM      6  C   UNL     1       1.186   3.261  18.879  0.00  0.00    +0.000 C 
ATOM      7  C   UNL     1       2.418   2.657  19.548  0.00  0.00    +0.000 C 
ATOM      8  C   UNL     1       3.496   3.707  19.819  0.00  0.00    +0.000 C 
ATOM      9  C   UNL     1       3.854   4.515  18.560  0.00  0.00    +0.000 C 
BRANCH   9  10
ATOM     10  O   UNL     1       4.513   3.641  17.631  0.00  0.00    +0.000 OA
BRANCH  10  11
ATOM     11  C   UNL     1       5.188   4.357  16.594  0.00  0.00    +0.000 C 
BRANCH  11  12
ATOM     12  C   UNL     1       6.242   5.263  17.166  0.00  0.00    +0.000 A 
ATOM     13  C   UNL     1       6.330   6.609  16.798  0.00  0.00    +0.000 A 
ATOM     14  C   UNL     1       7.206   7.464  17.448  0.00  0.00    +0.000 A 
ATOM     15  C   UNL     1       8.007   6.982  18.484  0.00  0.00    +0.000 A 
ATOM     16  C   UNL     1       7.935   5.640  18.858  0.00  0.00    +0.000 A 
ATOM     17  C   UNL     1       7.052   4.783  18.207  0.00  0.00    +0.000 A 
ENDBRANCH  11  12
ENDBRANCH  10  11
ENDBRANCH   9  10
ENDBRANCH   2   4
ENDBRANCH   1   2
BRANCH   1  18
ATOM     18  C   UNL     1       1.522   8.704  18.208  0.00  0.00    +0.000 C 
BRANCH  18  26
ATOM     19  O   UNL     1      -2.637  12.673  19.606  0.00  0.00    +0.000 OA
ATOM     20  C   UNL     1      -1.776  11.844  19.820  0.00  0.00    +0.000 A 
ATOM     21  N   UNL     1      -1.343  11.449  21.057  0.00  0.00    +0.000 N 
ATOM     22  C   UNL     1      -0.334  10.487  21.073  0.00  0.00    +0.000 A 
ATOM     23  C   UNL     1       0.243   9.938  22.201  0.00  0.00    +0.000 A 
ATOM     24  C   UNL     1       1.237   8.982  22.047  0.00  0.00    +0.000 A 
ATOM     25  C   UNL     1       1.652   8.593  20.763  0.00  0.00    +0.000 A 
ATOM     26  C   UNL     1       1.082   9.152  19.597  0.00  0.00    +0.000 A 
ATOM     27  C   UNL     1       0.073  10.095  19.785  0.00  0.00    +0.000 A 
ATOM     28  S   UNL     1      -0.893  10.967  18.568  0.00  0.00    +0.000 S 
ATOM     29  H   UNL     1      -1.766  11.879  21.867  0.00  0.00    +0.000 HD
BRANCH  23  30
ATOM     30  O   UNL     1      -0.110  10.276  23.473  0.00  0.00    +0.000 OA
ATOM     31  H   UNL     1      -0.058  11.239  23.572  0.00  0.00    +0.000 HD
ENDBRANCH  23  30
ENDBRANCH  18  26
BRANCH  18  32
ATOM     32  O   UNL     1       2.101   9.795  17.492  0.00  0.00    +0.000 OA
ATOM     33  H   UNL     1       2.452   9.457  16.655  0.00  0.00    +0.000 HD
ENDBRANCH  18  32
ENDBRANCH   1  18
TORSDOF 9
ENDMDL
MODEL 8
REMARK VINA RESULT:      -7.6      1.597      2.647
REMARK  Name = 
REMARK  9 active torsions:
REMARK  status: ('A' for Active; 'I' for Inactive)
REMARK    1  A    between atoms: C_5  and  O_6
REMARK    2  A    between atoms: C_9  and  C_10
REMARK    3  A    between atoms: C_10  and  O_11
REMARK    4  A    between atoms: C_10  and  C_12
REMARK    5  A    between atoms: C_12  and  N_13
REMARK    6  A    between atoms: N_13  and  C_14
REMARK    7  A    between atoms: C_19  and  O_20
REMARK    8  A    between atoms: O_20  and  C_21
REMARK    9  A    between atoms: C_21  and  C_22
REMARK                            x       y       z     vdW  Elec       q    Type
REMARK                         _______ _______ _______ _____ _____    ______ ____
ROOT
ATOM      1  C   UNL     1       2.523   7.320  18.207  0.00  0.00    +0.000 C 
ENDROOT
BRANCH   1   2
ATOM      2  N   UNL     1       3.667   7.328  17.271  0.00  0.00    +0.000 NA
ATOM      3  H   UNL     1       4.047   8.276  17.230  0.00  0.00    +0.000 HD
BRANCH   2   4
ATOM      4  C   UNL     1       4.711   6.391  17.742  0.00  0.00    +0.000 C 
ATOM      5  C   UNL     1       6.021   6.478  16.934  0.00  0.00    +0.000 C 
ATOM      6  C   UNL     1       5.836   5.998  15.499  0.00  0.00    +0.000 C 
ATOM      7  C   UNL     1       5.332   4.557  15.469  0.00  0.00    +0.000 C 
ATOM      8  C   UNL     1       4.072   4.371  16.315  0.00  0.00    +0.000 C 
ATOM      9  C   UNL     1       4.250   4.896  17.749  0.00  0.00    +0.000 C 
BRANCH   9  10
ATOM     10  O   UNL     1       5.193   4.054  18.428  0.00  0.00    +0.000 OA
BRANCH  10  11
ATOM     11  C   UNL     1       4.829   3.814  19.789  0.00  0.00    +0.000 C 
BRANCH  11  12
ATOM     12  C   UNL     1       3.363   3.506  19.907  0.00  0.00    +0.000 A 
ATOM     13  C   UNL     1       2.476   4.389  20.530  0.00  0.00    +0.000 A 
ATOM     14  C   UNL     1       1.109   4.163  20.492  0.00  0.00    +0.000 A 
ATOM     15  C   UNL     1       0.609   3.044  19.824  0.00  0.00    +0.000 A 
ATOM     16  C   UNL     1       1.482   2.151  19.204  0.00  0.00    +0.000 A 
ATOM     17  C   UNL     1       2.854   2.382  19.239  0.00  0.00    +0.000 A 
ENDBRANCH  11  12
ENDBRANCH  10  11
ENDBRANCH   9  10
ENDBRANCH   2   4
ENDBRANCH   1   2
BRANCH   1  18
ATOM     18  C   UNL     1       1.562   8.523  18.108  0.00  0.00    +0.000 C 
BRANCH  18  26
ATOM     19  O   UNL     1      -2.363  12.698  19.583  0.00  0.00    +0.000 OA
ATOM     20  C   UNL     1      -1.550  11.818  19.781  0.00  0.00    +0.000 A 
ATOM     21  N   UNL     1      -1.135  11.380  21.010  0.00  0.00    +0.000 N 
ATOM     22  C   UNL     1      -0.183  10.362  21.007  0.00  0.00    +0.000 A 
ATOM     23  C   UNL     1       0.366   9.764  22.125  0.00  0.00    +0.000 A 
ATOM     24  C   UNL     1       1.304   8.756  21.952  0.00  0.00    +0.000 A 
ATOM     25  C   UNL     1       1.693   8.364  20.660  0.00  0.00    +0.000 A 
ATOM     26  C   UNL     1       1.152   8.973  19.505  0.00  0.00    +0.000 A 
ATOM     27  C   UNL     1       0.198   9.969  19.712  0.00  0.00    +0.000 A 
ATOM     28  S   UNL     1      -0.721  10.913  18.512  0.00  0.00    +0.000 S 
ATOM     29  H   UNL     1      -1.532  11.820  21.828  0.00  0.00    +0.000 HD
BRANCH  23  30
ATOM     30  O   UNL     1       0.036  10.101  23.403  0.00  0.00    +0.000 OA
ATOM     31  H   UNL     1      -0.359   9.334  23.842  0.00  0.00    +0.000 HD
ENDBRANCH  23  30
ENDBRANCH  18  26
BRANCH  18  32
ATOM     32  O   UNL     1       2.194   9.593  17.405  0.00  0.00    +0.000 OA
ATOM     33  H   UNL     1       1.535  10.288  17.252  0.00  0.00    +0.000 HD
ENDBRANCH  18  32
ENDBRANCH   1  18
TORSDOF 9
ENDMDL
MODEL 9
REMARK VINA RESULT:      -7.5      1.625      3.867
REMARK  Name = 
REMARK  9 active torsions:
REMARK  status: ('A' for Active; 'I' for Inactive)
REMARK    1  A    between atoms: C_5  and  O_6
REMARK    2  A    between atoms: C_9  and  C_10
REMARK    3  A    between atoms: C_10  and  O_11
REMARK    4  A    between atoms: C_10  and  C_12
REMARK    5  A    between atoms: C_12  and  N_13
REMARK    6  A    between atoms: N_13  and  C_14
REMARK    7  A    between atoms: C_19  and  O_20
REMARK    8  A    between atoms: O_20  and  C_21
REMARK    9  A    between atoms: C_21  and  C_22
REMARK                            x       y       z     vdW  Elec       q    Type
REMARK                         _______ _______ _______ _____ _____    ______ ____
ROOT
ATOM      1  C   UNL     1       3.097   6.485  20.064  0.00  0.00    +0.000 C 
ENDROOT
BRANCH   1   2
ATOM      2  N   UNL     1       3.030   5.042  19.749  0.00  0.00    +0.000 NA
ATOM      3  H   UNL     1       2.158   4.667  20.131  0.00  0.00    +0.000 HD
BRANCH   2   4
ATOM      4  C   UNL     1       3.056   4.845  18.283  0.00  0.00    +0.000 C 
ATOM      5  C   UNL     1       1.715   4.349  17.707  0.00  0.00    +0.000 C 
ATOM      6  C   UNL     1       1.383   2.937  18.178  0.00  0.00    +0.000 C 
ATOM      7  C   UNL     1       2.484   1.958  17.777  0.00  0.00    +0.000 C 
ATOM      8  C   UNL     1       3.863   2.422  18.246  0.00  0.00    +0.000 C 
ATOM      9  C   UNL     1       4.176   3.862  17.806  0.00  0.00    +0.000 C 
BRANCH   9  10
ATOM     10  O   UNL     1       4.324   3.879  16.378  0.00  0.00    +0.000 OA
BRANCH  10  11
ATOM     11  C   UNL     1       5.695   3.881  15.972  0.00  0.00    +0.000 C 
BRANCH  11  12
ATOM     12  C   UNL     1       6.472   4.932  16.712  0.00  0.00    +0.000 A 
ATOM     13  C   UNL     1       6.231   6.296  16.518  0.00  0.00    +0.000 A 
ATOM     14  C   UNL     1       6.847   7.244  17.319  0.00  0.00    +0.000 A 
ATOM     15  C   UNL     1       7.716   6.838  18.333  0.00  0.00    +0.000 A 
ATOM     16  C   UNL     1       7.972   5.481  18.534  0.00  0.00    +0.000 A 
ATOM     17  C   UNL     1       7.348   4.530  17.732  0.00  0.00    +0.000 A 
ENDBRANCH  11  12
ENDBRANCH  10  11
ENDBRANCH   9  10
ENDBRANCH   2   4
ENDBRANCH   1   2
BRANCH   1  18
ATOM     18  C   UNL     1       1.870   7.074  20.791  0.00  0.00    +0.000 C 
BRANCH  18  26
ATOM     19  O   UNL     1      -0.990  11.661  23.198  0.00  0.00    +0.000 OA
ATOM     20  C   UNL     1      -0.428  11.039  22.318  0.00  0.00    +0.000 A 
ATOM     21  N   UNL     1      -0.255  11.466  21.030  0.00  0.00    +0.000 N 
ATOM     22  C   UNL     1       0.411  10.585  20.179  0.00  0.00    +0.000 A 
ATOM     23  C   UNL     1       0.704  10.812  18.848  0.00  0.00    +0.000 A 
ATOM     24  C   UNL     1       1.381   9.832  18.135  0.00  0.00    +0.000 A 
ATOM     25  C   UNL     1       1.748   8.629  18.760  0.00  0.00    +0.000 A 
ATOM     26  C   UNL     1       1.446   8.373  20.117  0.00  0.00    +0.000 A 
ATOM     27  C   UNL     1       0.783   9.385  20.810  0.00  0.00    +0.000 A 
ATOM     28  S   UNL     1       0.285   9.437  22.520  0.00  0.00    +0.000 S 
ATOM     29  H   UNL     1      -0.622  12.372  20.777  0.00  0.00    +0.000 HD
BRANCH  23  30
ATOM     30  O   UNL     1       0.372  11.954  18.183  0.00  0.00    +0.000 OA
ATOM     31  H   UNL     1       0.264  12.674  18.823  0.00  0.00    +0.000 HD
ENDBRANCH  23  30
ENDBRANCH  18  26
BRANCH  18  32
ATOM     32  O   UNL     1       0.798   6.132  20.777  0.00  0.00    +0.000 OA
ATOM     33  H   UNL     1       0.600   5.911  19.854  0.00  0.00    +0.000 HD
ENDBRANCH  18  32
ENDBRANCH   1  18
TORSDOF 9
ENDMDL
