MODEL 1
REMARK VINA RESULT:      -6.2      0.000      0.000
REMARK  Name = 
REMARK  8 active torsions:
REMARK  status: ('A' for Active; 'I' for Inactive)
REMARK    1  A    between atoms: C_1  and  C_2
REMARK    2  A    between atoms: C_2  and  O_4
REMARK    3  A    between atoms: O_4  and  C_5
REMARK    4  A    between atoms: C_5  and  C_6
REMARK    5  A    between atoms: C_19  and  C_20
REMARK    6  A    between atoms: C_24  and  C_25
REMARK    7  A    between atoms: C_25  and  C_26
REMARK    8  A    between atoms: C_25  and  O_27
REMARK                            x       y       z     vdW  Elec       q    Type
REMARK                         _______ _______ _______ _____ _____    ______ ____
ROOT
ATOM      1  C   UNL     1      -4.338  13.618  21.739  0.00  0.00    +0.000 C 
ATOM      2  C   UNL     1      -3.483  14.552  20.883  0.00  0.00    +0.000 C 
ATOM      3  C   UNL     1      -2.325  13.833  20.179  0.00  0.00    +0.000 C 
ATOM      4  C   UNL     1      -1.457  12.876  21.077  0.00  0.00    +0.000 C 
ATOM      5  C   UNL     1      -2.248  12.374  22.322  0.00  0.00    +0.000 C 
ATOM      6  C   UNL     1      -1.227  11.962  23.357  0.00  0.00    +0.000 C 
ATOM      7  C   UNL     1      -0.925  10.545  22.952  0.00  0.00    +0.000 C 
ATOM      8  C   UNL     1      -0.713  10.362  21.432  0.00  0.00    +0.000 C 
ATOM      9  C   UNL     1      -0.050   9.206  21.228  0.00  0.00    +0.000 C 
ATOM     10  C   UNL     1       0.956   9.109  20.175  0.00  0.00    +0.000 C 
ATOM     11  O   UNL     1       1.685   8.122  20.141  0.00  0.00    +0.000 OA
ATOM     12  C   UNL     1       1.090  10.265  19.224  0.00  0.00    +0.000 C 
ATOM     13  C   UNL     1       0.673  11.623  19.884  0.00  0.00    +0.000 C 
ATOM     14  C   UNL     1      -0.803  11.552  20.386  0.00  0.00    +0.000 C 
ATOM     15  C   UNL     1      -1.603  11.355  19.049  0.00  0.00    +0.000 C 
ATOM     16  C   UNL     1      -3.385  13.186  22.876  0.00  0.00    +0.000 C 
ATOM     17  C   UNL     1      -4.307  12.435  23.839  0.00  0.00    +0.000 C 
ATOM     18  C   UNL     1      -5.586  13.271  23.828  0.00  0.00    +0.000 C 
ATOM     19  C   UNL     1      -5.468  14.257  22.611  0.00  0.00    +0.000 C 
ENDROOT
BRANCH  19  20
ATOM     20  C   UNL     1      -5.221  15.684  23.194  0.00  0.00    +0.000 C 
ATOM     21  C   UNL     1      -5.911  16.861  22.518  0.00  0.00    +0.000 C 
BRANCH  20  22
ATOM     22  O   UNL     1      -5.664  15.695  24.558  0.00  0.00    +0.000 OA
ATOM     23  H   UNL     1      -5.999  14.807  24.767  0.00  0.00    +0.000 HD
ENDBRANCH  20  22
ENDBRANCH  19  20
BRANCH   1  24
ATOM     24  C   UNL     1      -4.890  12.355  20.927  0.00  0.00    +0.000 C 
BRANCH  24  25
ATOM     25  O   UNL     1      -6.242  12.411  20.415  0.00  0.00    +0.000 OA
BRANCH  25  27
ATOM     26  C   UNL     1      -6.793  10.568  18.985  0.00  0.00    +0.000 C 
ATOM     27  C   UNL     1      -6.866  11.191  20.330  0.00  0.00    +0.000 C 
ATOM     28  O   UNL     1      -7.350  10.639  21.294  0.00  0.00    +0.000 OA
ENDBRANCH  25  27
ENDBRANCH  24  25
ENDBRANCH   1  24
TORSDOF 5
ENDMDL
MODEL 2
REMARK VINA RESULT:      -6.0      1.955      6.987
REMARK  Name = 
REMARK  8 active torsions:
REMARK  status: ('A' for Active; 'I' for Inactive)
REMARK    1  A    between atoms: C_1  and  C_2
REMARK    2  A    between atoms: C_2  and  O_4
REMARK    3  A    between atoms: O_4  and  C_5
REMARK    4  A    between atoms: C_5  and  C_6
REMARK    5  A    between atoms: C_19  and  C_20
REMARK    6  A    between atoms: C_24  and  C_25
REMARK    7  A    between atoms: C_25  and  C_26
REMARK    8  A    between atoms: C_25  and  O_27
REMARK                            x       y       z     vdW  Elec       q    Type
REMARK                         _______ _______ _______ _____ _____    ______ ____
ROOT
ATOM      1  C   UNL     1      -0.033  12.293  20.224  0.00  0.00    +0.000 C 
ATOM      2  C   UNL     1       0.047  13.808  20.411  0.00  0.00    +0.000 C 
ATOM      3  C   UNL     1      -1.197  14.399  21.086  0.00  0.00    +0.000 C 
ATOM      4  C   UNL     1      -2.585  13.936  20.505  0.00  0.00    +0.000 C 
ATOM      5  C   UNL     1      -2.479  12.561  19.780  0.00  0.00    +0.000 C 
ATOM      6  C   UNL     1      -3.642  12.478  18.818  0.00  0.00    +0.000 C 
ATOM      7  C   UNL     1      -4.742  11.953  19.701  0.00  0.00    +0.000 C 
ATOM      8  C   UNL     1      -4.826  12.654  21.076  0.00  0.00    +0.000 C 
ATOM      9  C   UNL     1      -6.050  12.430  21.595  0.00  0.00    +0.000 C 
ATOM     10  C   UNL     1      -6.732  13.476  22.353  0.00  0.00    +0.000 C 
ATOM     11  O   UNL     1      -7.916  13.324  22.637  0.00  0.00    +0.000 OA
ATOM     12  C   UNL     1      -5.956  14.719  22.685  0.00  0.00    +0.000 C 
ATOM     13  C   UNL     1      -4.842  15.020  21.626  0.00  0.00    +0.000 C 
ATOM     14  C   UNL     1      -3.849  13.820  21.526  0.00  0.00    +0.000 C 
ATOM     15  C   UNL     1      -3.211  13.792  22.961  0.00  0.00    +0.000 C 
ATOM     16  C   UNL     1      -1.170  12.110  19.195  0.00  0.00    +0.000 C 
ATOM     17  C   UNL     1      -1.095  10.620  18.851  0.00  0.00    +0.000 C 
ATOM     18  C   UNL     1       0.408  10.349  18.786  0.00  0.00    +0.000 C 
ATOM     19  C   UNL     1       1.119  11.595  19.429  0.00  0.00    +0.000 C 
ENDROOT
BRANCH  19  20
ATOM     20  C   UNL     1       1.791  12.393  18.268  0.00  0.00    +0.000 C 
ATOM     21  C   UNL     1       2.880  13.395  18.627  0.00  0.00    +0.000 C 
BRANCH  20  22
ATOM     22  O   UNL     1       2.399  11.453  17.370  0.00  0.00    +0.000 OA
ATOM     23  H   UNL     1       1.770  11.287  16.647  0.00  0.00    +0.000 HD
ENDBRANCH  20  22
ENDBRANCH  19  20
BRANCH   1  24
ATOM     24  C   UNL     1      -0.342  11.510  21.584  0.00  0.00    +0.000 C 
BRANCH  24  25
ATOM     25  O   UNL     1       0.722  10.733  22.181  0.00  0.00    +0.000 OA
BRANCH  25  27
ATOM     26  C   UNL     1      -0.313   8.580  21.976  0.00  0.00    +0.000 C 
ATOM     27  C   UNL     1       0.297   9.612  22.850  0.00  0.00    +0.000 C 
ATOM     28  O   UNL     1       0.489   9.451  24.036  0.00  0.00    +0.000 OA
ENDBRANCH  25  27
ENDBRANCH  24  25
ENDBRANCH   1  24
TORSDOF 5
ENDMDL
MODEL 3
REMARK VINA RESULT:      -5.9      3.053      5.643
REMARK  Name = 
REMARK  8 active torsions:
REMARK  status: ('A' for Active; 'I' for Inactive)
REMARK    1  A    between atoms: C_1  and  C_2
REMARK    2  A    between atoms: C_2  and  O_4
REMARK    3  A    between atoms: O_4  and  C_5
REMARK    4  A    between atoms: C_5  and  C_6
REMARK    5  A    between atoms: C_19  and  C_20
REMARK    6  A    between atoms: C_24  and  C_25
REMARK    7  A    between atoms: C_25  and  C_26
REMARK    8  A    between atoms: C_25  and  O_27
REMARK                            x       y       z     vdW  Elec       q    Type
REMARK                         _______ _______ _______ _____ _____    ______ ____
ROOT
ATOM      1  C   UNL     1      -0.550  13.281  21.250  0.00  0.00    +0.000 C 
ATOM      2  C   UNL     1      -1.253  12.403  22.285  0.00  0.00    +0.000 C 
ATOM      3  C   UNL     1      -0.702  10.973  22.338  0.00  0.00    +0.000 C 
ATOM      4  C   UNL     1      -0.528  10.247  20.952  0.00  0.00    +0.000 C 
ATOM      5  C   UNL     1      -0.378  11.264  19.781  0.00  0.00    +0.000 C 
ATOM      6  C   UNL     1      -0.775  10.541  18.514  0.00  0.00    +0.000 C 
ATOM      7  C   UNL     1       0.512   9.867  18.122  0.00  0.00    +0.000 C 
ATOM      8  C   UNL     1       1.239   9.179  19.299  0.00  0.00    +0.000 C 
ATOM      9  C   UNL     1       2.108   8.278  18.798  0.00  0.00    +0.000 C 
ATOM     10  C   UNL     1       2.322   7.003  19.477  0.00  0.00    +0.000 C 
ATOM     11  O   UNL     1       2.954   6.123  18.899  0.00  0.00    +0.000 OA
ATOM     12  C   UNL     1       1.691   6.813  20.828  0.00  0.00    +0.000 C 
ATOM     13  C   UNL     1       0.384   7.660  20.993  0.00  0.00    +0.000 C 
ATOM     14  C   UNL     1       0.690   9.177  20.788  0.00  0.00    +0.000 C 
ATOM     15  C   UNL     1       1.665   9.486  21.980  0.00  0.00    +0.000 C 
ATOM     16  C   UNL     1      -0.953  12.648  19.899  0.00  0.00    +0.000 C 
ATOM     17  C   UNL     1      -0.430  13.655  18.871  0.00  0.00    +0.000 C 
ATOM     18  C   UNL     1      -0.745  15.007  19.511  0.00  0.00    +0.000 C 
ATOM     19  C   UNL     1      -1.113  14.720  21.011  0.00  0.00    +0.000 C 
ENDROOT
BRANCH  19  20
ATOM     20  C   UNL     1      -2.652  14.936  21.159  0.00  0.00    +0.000 C 
ATOM     21  C   UNL     1      -3.165  15.561  22.449  0.00  0.00    +0.000 C 
BRANCH  20  22
ATOM     22  O   UNL     1      -3.088  15.800  20.100  0.00  0.00    +0.000 OA
ATOM     23  H   UNL     1      -3.735  15.308  19.566  0.00  0.00    +0.000 HD
ENDBRANCH  20  22
ENDBRANCH  19  20
BRANCH   1  24
ATOM     24  C   UNL     1       1.038  13.313  21.432  0.00  0.00    +0.000 C 
BRANCH  24  25
ATOM     25  O   UNL     1       1.617  14.404  22.185  0.00  0.00    +0.000 OA
BRANCH  25  27
ATOM     26  C   UNL     1       3.115  15.167  20.476  0.00  0.00    +0.000 C 
ATOM     27  C   UNL     1       2.923  14.682  21.865  0.00  0.00    +0.000 C 
ATOM     28  O   UNL     1       3.819  14.621  22.679  0.00  0.00    +0.000 OA
ENDBRANCH  25  27
ENDBRANCH  24  25
ENDBRANCH   1  24
TORSDOF 5
ENDMDL
MODEL 4
REMARK VINA RESULT:      -5.8      2.479      6.462
REMARK  Name = 
REMARK  8 active torsions:
REMARK  status: ('A' for Active; 'I' for Inactive)
REMARK    1  A    between atoms: C_1  and  C_2
REMARK    2  A    between atoms: C_2  and  O_4
REMARK    3  A    between atoms: O_4  and  C_5
REMARK    4  A    between atoms: C_5  and  C_6
REMARK    5  A    between atoms: C_19  and  C_20
REMARK    6  A    between atoms: C_24  and  C_25
REMARK    7  A    between atoms: C_25  and  C_26
REMARK    8  A    between atoms: C_25  and  O_27
REMARK                            x       y       z     vdW  Elec       q    Type
REMARK                         _______ _______ _______ _____ _____    ______ ____
ROOT
ATOM      1  C   UNL     1      -1.838  11.137  18.264  0.00  0.00    +0.000 C 
ATOM      2  C   UNL     1      -1.018  12.388  17.947  0.00  0.00    +0.000 C 
ATOM      3  C   UNL     1      -0.756  13.264  19.178  0.00  0.00    +0.000 C 
ATOM      4  C   UNL     1      -2.006  13.575  20.084  0.00  0.00    +0.000 C 
ATOM      5  C   UNL     1      -3.119  12.498  19.924  0.00  0.00    +0.000 C 
ATOM      6  C   UNL     1      -4.419  13.139  20.352  0.00  0.00    +0.000 C 
ATOM      7  C   UNL     1      -4.397  12.927  21.842  0.00  0.00    +0.000 C 
ATOM      8  C   UNL     1      -3.036  13.250  22.498  0.00  0.00    +0.000 C 
ATOM      9  C   UNL     1      -3.232  13.441  23.818  0.00  0.00    +0.000 C 
ATOM     10  C   UNL     1      -2.474  14.462  24.536  0.00  0.00    +0.000 C 
ATOM     11  O   UNL     1      -2.812  14.756  25.678  0.00  0.00    +0.000 OA
ATOM     12  C   UNL     1      -1.357  15.150  23.803  0.00  0.00    +0.000 C 
ATOM     13  C   UNL     1      -1.608  15.201  22.258  0.00  0.00    +0.000 C 
ATOM     14  C   UNL     1      -1.771  13.758  21.686  0.00  0.00    +0.000 C 
ATOM     15  C   UNL     1      -0.360  13.126  21.965  0.00  0.00    +0.000 C 
ATOM     16  C   UNL     1      -3.223  11.695  18.657  0.00  0.00    +0.000 C 
ATOM     17  C   UNL     1      -4.091  10.439  18.757  0.00  0.00    +0.000 C 
ATOM     18  C   UNL     1      -3.620   9.589  17.577  0.00  0.00    +0.000 C 
ATOM     19  C   UNL     1      -2.281  10.233  17.066  0.00  0.00    +0.000 C 
ENDROOT
BRANCH  19  20
ATOM     20  C   UNL     1      -2.593  10.928  15.704  0.00  0.00    +0.000 C 
ATOM     21  C   UNL     1      -2.877  10.042  14.499  0.00  0.00    +0.000 C 
BRANCH  20  22
ATOM     22  O   UNL     1      -3.756  11.750  15.874  0.00  0.00    +0.000 OA
ATOM     23  H   UNL     1      -3.749  12.085  16.787  0.00  0.00    +0.000 HD
ENDBRANCH  20  22
ENDBRANCH  19  20
BRANCH   1  24
ATOM     24  C   UNL     1      -1.205  10.255  19.439  0.00  0.00    +0.000 C 
BRANCH  24  25
ATOM     25  O   UNL     1       0.190   9.887  19.341  0.00  0.00    +0.000 OA
BRANCH  25  27
ATOM     26  C   UNL     1      -0.103   9.402  21.670  0.00  0.00    +0.000 C 
ATOM     27  C   UNL     1       0.668   9.186  20.421  0.00  0.00    +0.000 C 
ATOM     28  O   UNL     1       1.581   8.395  20.331  0.00  0.00    +0.000 OA
ENDBRANCH  25  27
ENDBRANCH  24  25
ENDBRANCH   1  24
TORSDOF 5
ENDMDL
MODEL 5
REMARK VINA RESULT:      -5.8      1.719      2.076
REMARK  Name = 
REMARK  8 active torsions:
REMARK  status: ('A' for Active; 'I' for Inactive)
REMARK    1  A    between atoms: C_1  and  C_2
REMARK    2  A    between atoms: C_2  and  O_4
REMARK    3  A    between atoms: O_4  and  C_5
REMARK    4  A    between atoms: C_5  and  C_6
REMARK    5  A    between atoms: C_19  and  C_20
REMARK    6  A    between atoms: C_24  and  C_25
REMARK    7  A    between atoms: C_25  and  C_26
REMARK    8  A    between atoms: C_25  and  O_27
REMARK                            x       y       z     vdW  Elec       q    Type
REMARK                         _______ _______ _______ _____ _____    ______ ____
ROOT
ATOM      1  C   UNL     1      -2.845  14.214  22.188  0.00  0.00    +0.000 C 
ATOM      2  C   UNL     1      -1.708  15.213  21.974  0.00  0.00    +0.000 C 
ATOM      3  C   UNL     1      -0.665  14.730  20.959  0.00  0.00    +0.000 C 
ATOM      4  C   UNL     1      -0.144  13.257  21.151  0.00  0.00    +0.000 C 
ATOM      5  C   UNL     1      -1.169  12.377  21.928  0.00  0.00    +0.000 C 
ATOM      6  C   UNL     1      -0.395  11.228  22.533  0.00  0.00    +0.000 C 
ATOM      7  C   UNL     1      -0.370  10.237  21.401  0.00  0.00    +0.000 C 
ATOM      8  C   UNL     1      -0.025  10.863  20.031  0.00  0.00    +0.000 C 
ATOM      9  C   UNL     1       0.382   9.882  19.202  0.00  0.00    +0.000 C 
ATOM     10  C   UNL     1       1.460  10.124  18.246  0.00  0.00    +0.000 C 
ATOM     11  O   UNL     1       1.949   9.168  17.652  0.00  0.00    +0.000 OA
ATOM     12  C   UNL     1       1.959  11.533  18.095  0.00  0.00    +0.000 C 
ATOM     13  C   UNL     1       1.780  12.366  19.409  0.00  0.00    +0.000 C 
ATOM     14  C   UNL     1       0.276  12.408  19.825  0.00  0.00    +0.000 C 
ATOM     15  C   UNL     1      -0.383  13.177  18.625  0.00  0.00    +0.000 C 
ATOM     16  C   UNL     1      -2.154  13.012  22.869  0.00  0.00    +0.000 C 
ATOM     17  C   UNL     1      -3.328  12.117  23.276  0.00  0.00    +0.000 C 
ATOM     18  C   UNL     1      -4.378  13.115  23.765  0.00  0.00    +0.000 C 
ATOM     19  C   UNL     1      -3.900  14.537  23.297  0.00  0.00    +0.000 C 
ENDROOT
BRANCH  19  20
ATOM     20  C   UNL     1      -3.413  15.301  24.568  0.00  0.00    +0.000 C 
ATOM     21  C   UNL     1      -4.083  16.625  24.906  0.00  0.00    +0.000 C 
BRANCH  20  22
ATOM     22  O   UNL     1      -3.614  14.453  25.707  0.00  0.00    +0.000 OA
ATOM     23  H   UNL     1      -4.262  14.887  26.287  0.00  0.00    +0.000 HD
ENDBRANCH  20  22
ENDBRANCH  19  20
BRANCH   1  24
ATOM     24  C   UNL     1      -3.564  13.782  20.826  0.00  0.00    +0.000 C 
BRANCH  24  25
ATOM     25  O   UNL     1      -4.964  14.110  20.660  0.00  0.00    +0.000 OA
BRANCH  25  27
ATOM     26  C   UNL     1      -6.662  12.435  20.908  0.00  0.00    +0.000 C 
ATOM     27  C   UNL     1      -5.700  13.140  20.025  0.00  0.00    +0.000 C 
ATOM     28  O   UNL     1      -5.628  12.947  18.831  0.00  0.00    +0.000 OA
ENDBRANCH  25  27
ENDBRANCH  24  25
ENDBRANCH   1  24
TORSDOF 5
ENDMDL
MODEL 6
REMARK VINA RESULT:      -5.8      9.606     12.526
REMARK  Name = 
REMARK  8 active torsions:
REMARK  status: ('A' for Active; 'I' for Inactive)
REMARK    1  A    between atoms: C_1  and  C_2
REMARK    2  A    between atoms: C_2  and  O_4
REMARK    3  A    between atoms: O_4  and  C_5
REMARK    4  A    between atoms: C_5  and  C_6
REMARK    5  A    between atoms: C_19  and  C_20
REMARK    6  A    between atoms: C_24  and  C_25
REMARK    7  A    between atoms: C_25  and  C_26
REMARK    8  A    between atoms: C_25  and  O_27
REMARK                            x       y       z     vdW  Elec       q    Type
REMARK                         _______ _______ _______ _____ _____    ______ ____
ROOT
ATOM      1  C   UNL     1       8.033  13.977  22.967  0.00  0.00    +0.000 C 
ATOM      2  C   UNL     1       9.003  15.140  23.178  0.00  0.00    +0.000 C 
ATOM      3  C   UNL     1       9.770  15.523  21.906  0.00  0.00    +0.000 C 
ATOM      4  C   UNL     1      10.421  14.334  21.107  0.00  0.00    +0.000 C 
ATOM      5  C   UNL     1       9.701  12.982  21.391  0.00  0.00    +0.000 C 
ATOM      6  C   UNL     1      10.683  11.881  21.063  0.00  0.00    +0.000 C 
ATOM      7  C   UNL     1      10.473  11.706  19.583  0.00  0.00    +0.000 C 
ATOM      8  C   UNL     1      10.400  13.036  18.802  0.00  0.00    +0.000 C 
ATOM      9  C   UNL     1      10.638  12.782  17.500  0.00  0.00    +0.000 C 
ATOM     10  C   UNL     1      11.405  13.727  16.692  0.00  0.00    +0.000 C 
ATOM     11  O   UNL     1      11.783  13.381  15.577  0.00  0.00    +0.000 OA
ATOM     12  C   UNL     1      11.751  15.054  17.306  0.00  0.00    +0.000 C 
ATOM     13  C   UNL     1      11.870  14.970  18.865  0.00  0.00    +0.000 C 
ATOM     14  C   UNL     1      10.531  14.462  19.486  0.00  0.00    +0.000 C 
ATOM     15  C   UNL     1       9.527  15.607  19.100  0.00  0.00    +0.000 C 
ATOM     16  C   UNL     1       8.959  12.774  22.683  0.00  0.00    +0.000 C 
ATOM     17  C   UNL     1       7.999  11.583  22.692  0.00  0.00    +0.000 C 
ATOM     18  C   UNL     1       7.051  11.903  23.847  0.00  0.00    +0.000 C 
ATOM     19  C   UNL     1       7.291  13.410  24.221  0.00  0.00    +0.000 C 
ENDROOT
BRANCH  19  20
ATOM     20  C   UNL     1       8.045  13.432  25.588  0.00  0.00    +0.000 C 
ATOM     21  C   UNL     1       7.461  14.277  26.712  0.00  0.00    +0.000 C 
BRANCH  20  22
ATOM     22  O   UNL     1       8.104  12.090  26.090  0.00  0.00    +0.000 OA
ATOM     23  H   UNL     1       8.008  11.487  25.334  0.00  0.00    +0.000 HD
ENDBRANCH  20  22
ENDBRANCH  19  20
BRANCH   1  24
ATOM     24  C   UNL     1       7.010  14.226  21.763  0.00  0.00    +0.000 C 
BRANCH  24  25
ATOM     25  O   UNL     1       5.648  14.591  22.090  0.00  0.00    +0.000 OA
BRANCH  25  27
ATOM     26  C   UNL     1       6.189  16.369  20.574  0.00  0.00    +0.000 C 
ATOM     27  C   UNL     1       5.243  15.792  21.561  0.00  0.00    +0.000 C 
ATOM     28  O   UNL     1       4.164  16.283  21.815  0.00  0.00    +0.000 OA
ENDBRANCH  25  27
ENDBRANCH  24  25
ENDBRANCH   1  24
TORSDOF 5
ENDMDL
MODEL 7
REMARK VINA RESULT:      -5.8      9.165     12.134
REMARK  Name = 
REMARK  8 active torsions:
REMARK  status: ('A' for Active; 'I' for Inactive)
REMARK    1  A    between atoms: C_1  and  C_2
REMARK    2  A    between atoms: C_2  and  O_4
REMARK    3  A    between atoms: O_4  and  C_5
REMARK    4  A    between atoms: C_5  and  C_6
REMARK    5  A    between atoms: C_19  and  C_20
REMARK    6  A    between atoms: C_24  and  C_25
REMARK    7  A    between atoms: C_25  and  C_26
REMARK    8  A    between atoms: C_25  and  O_27
REMARK                            x       y       z     vdW  Elec       q    Type
REMARK                         _______ _______ _______ _____ _____    ______ ____
ROOT
ATOM      1  C   UNL     1       7.816  14.089  23.490  0.00  0.00    +0.000 C 
ATOM      2  C   UNL     1       8.914  15.122  23.742  0.00  0.00    +0.000 C 
ATOM      3  C   UNL     1       9.698  15.490  22.476  0.00  0.00    +0.000 C 
ATOM      4  C   UNL     1      10.196  14.283  21.596  0.00  0.00    +0.000 C 
ATOM      5  C   UNL     1       9.333  13.006  21.822  0.00  0.00    +0.000 C 
ATOM      6  C   UNL     1      10.177  11.823  21.410  0.00  0.00    +0.000 C 
ATOM      7  C   UNL     1       9.924  11.758  19.928  0.00  0.00    +0.000 C 
ATOM      8  C   UNL     1       9.989  13.132  19.224  0.00  0.00    +0.000 C 
ATOM      9  C   UNL     1      10.174  12.929  17.905  0.00  0.00    +0.000 C 
ATOM     10  C   UNL     1      11.029  13.826  17.133  0.00  0.00    +0.000 C 
ATOM     11  O   UNL     1      11.346  13.506  15.991  0.00  0.00    +0.000 OA
ATOM     12  C   UNL     1      11.533  15.069  17.811  0.00  0.00    +0.000 C 
ATOM     13  C   UNL     1      11.669  14.882  19.360  0.00  0.00    +0.000 C 
ATOM     14  C   UNL     1      10.292  14.493  19.983  0.00  0.00    +0.000 C 
ATOM     15  C   UNL     1       9.418  15.763  19.686  0.00  0.00    +0.000 C 
ATOM     16  C   UNL     1       8.594  12.809  23.117  0.00  0.00    +0.000 C 
ATOM     17  C   UNL     1       7.505  11.734  23.082  0.00  0.00    +0.000 C 
ATOM     18  C   UNL     1       6.620  12.091  24.276  0.00  0.00    +0.000 C 
ATOM     19  C   UNL     1       7.035  13.537  24.728  0.00  0.00    +0.000 C 
ENDROOT
BRANCH  19  20
ATOM     20  C   UNL     1       7.811  13.395  26.075  0.00  0.00    +0.000 C 
ATOM     21  C   UNL     1       7.348  14.237  27.257  0.00  0.00    +0.000 C 
BRANCH  20  22
ATOM     22  O   UNL     1       7.722  12.029  26.503  0.00  0.00    +0.000 OA
ATOM     23  H   UNL     1       7.677  11.473  25.707  0.00  0.00    +0.000 HD
ENDBRANCH  20  22
ENDBRANCH  19  20
BRANCH   1  24
ATOM     24  C   UNL     1       6.806  14.521  22.326  0.00  0.00    +0.000 C 
BRANCH  24  25
ATOM     25  O   UNL     1       5.620  15.264  22.692  0.00  0.00    +0.000 OA
BRANCH  25  27
ATOM     26  C   UNL     1       3.457  15.715  21.763  0.00  0.00    +0.000 C 
ATOM     27  C   UNL     1       4.446  14.716  22.237  0.00  0.00    +0.000 C 
ATOM     28  O   UNL     1       4.278  13.519  22.149  0.00  0.00    +0.000 OA
ENDBRANCH  25  27
ENDBRANCH  24  25
ENDBRANCH   1  24
TORSDOF 5
ENDMDL
MODEL 8
REMARK VINA RESULT:      -5.8      3.025      4.952
REMARK  Name = 
REMARK  8 active torsions:
REMARK  status: ('A' for Active; 'I' for Inactive)
REMARK    1  A    between atoms: C_1  and  C_2
REMARK    2  A    between atoms: C_2  and  O_4
REMARK    3  A    between atoms: O_4  and  C_5
REMARK    4  A    between atoms: C_5  and  C_6
REMARK    5  A    between atoms: C_19  and  C_20
REMARK    6  A    between atoms: C_24  and  C_25
REMARK    7  A    between atoms: C_25  and  C_26
REMARK    8  A    between atoms: C_25  and  O_27
REMARK                            x       y       z     vdW  Elec       q    Type
REMARK                         _______ _______ _______ _____ _____    ______ ____
ROOT
ATOM      1  C   UNL     1      -2.602  14.511  21.779  0.00  0.00    +0.000 C 
ATOM      2  C   UNL     1      -1.632  13.379  22.118  0.00  0.00    +0.000 C 
ATOM      3  C   UNL     1      -1.395  12.417  20.948  0.00  0.00    +0.000 C 
ATOM      4  C   UNL     1      -2.683  11.903  20.204  0.00  0.00    +0.000 C 
ATOM      5  C   UNL     1      -3.883  12.881  20.381  0.00  0.00    +0.000 C 
ATOM      6  C   UNL     1      -5.144  12.082  20.143  0.00  0.00    +0.000 C 
ATOM      7  C   UNL     1      -5.281  12.151  18.646  0.00  0.00    +0.000 C 
ATOM      8  C   UNL     1      -3.959  11.896  17.887  0.00  0.00    +0.000 C 
ATOM      9  C   UNL     1      -4.254  11.561  16.615  0.00  0.00    +0.000 C 
ATOM     10  C   UNL     1      -3.464  10.551  15.916  0.00  0.00    +0.000 C 
ATOM     11  O   UNL     1      -3.874  10.118  14.843  0.00  0.00    +0.000 OA
ATOM     12  C   UNL     1      -2.220  10.045  16.589  0.00  0.00    +0.000 C 
ATOM     13  C   UNL     1      -2.322  10.120  18.150  0.00  0.00    +0.000 C 
ATOM     14  C   UNL     1      -2.579  11.590  18.608  0.00  0.00    +0.000 C 
ATOM     15  C   UNL     1      -1.273  12.322  18.135  0.00  0.00    +0.000 C 
ATOM     16  C   UNL     1      -3.952  13.789  21.577  0.00  0.00    +0.000 C 
ATOM     17  C   UNL     1      -4.951  14.943  21.456  0.00  0.00    +0.000 C 
ATOM     18  C   UNL     1      -4.464  15.942  22.505  0.00  0.00    +0.000 C 
ATOM     19  C   UNL     1      -3.024  15.480  22.932  0.00  0.00    +0.000 C 
ENDROOT
BRANCH  19  20
ATOM     20  C   UNL     1      -3.136  14.893  24.374  0.00  0.00    +0.000 C 
ATOM     21  C   UNL     1      -2.034  15.230  25.370  0.00  0.00    +0.000 C 
BRANCH  20  22
ATOM     22  O   UNL     1      -4.357  15.368  24.959  0.00  0.00    +0.000 OA
ATOM     23  H   UNL     1      -4.594  16.199  24.514  0.00  0.00    +0.000 HD
ENDBRANCH  20  22
ENDBRANCH  19  20
BRANCH   1  24
ATOM     24  C   UNL     1      -2.174  15.331  20.474  0.00  0.00    +0.000 C 
BRANCH  24  25
ATOM     25  O   UNL     1      -0.891  15.999  20.477  0.00  0.00    +0.000 OA
BRANCH  25  27
ATOM     26  C   UNL     1      -0.458  16.789  18.256  0.00  0.00    +0.000 C 
ATOM     27  C   UNL     1      -0.155  15.815  19.333  0.00  0.00    +0.000 C 
ATOM     28  O   UNL     1       0.726  14.986  19.252  0.00  0.00    +0.000 OA
ENDBRANCH  25  27
ENDBRANCH  24  25
ENDBRANCH   1  24
TORSDOF 5
ENDMDL
MODEL 9
REMARK VINA RESULT:      -5.7      4.168      6.806
REMARK  Name = 
REMARK  8 active torsions:
REMARK  status: ('A' for Active; 'I' for Inactive)
REMARK    1  A    between atoms: C_1  and  C_2
REMARK    2  A    between atoms: C_2  and  O_4
REMARK    3  A    between atoms: O_4  and  C_5
REMARK    4  A    between atoms: C_5  and  C_6
REMARK    5  A    between atoms: C_19  and  C_20
REMARK    6  A    between atoms: C_24  and  C_25
REMARK    7  A    between atoms: C_25  and  C_26
REMARK    8  A    between atoms: C_25  and  O_27
REMARK                            x       y       z     vdW  Elec       q    Type
REMARK                         _______ _______ _______ _____ _____    ______ ____
ROOT
ATOM      1  C   UNL     1      -0.102  12.364  19.687  0.00  0.00    +0.000 C 
ATOM      2  C   UNL     1       1.070  12.172  18.724  0.00  0.00    +0.000 C 
ATOM      3  C   UNL     1       2.292  13.024  19.085  0.00  0.00    +0.000 C 
ATOM      4  C   UNL     1       2.010  14.542  19.396  0.00  0.00    +0.000 C 
ATOM      5  C   UNL     1       0.540  14.775  19.857  0.00  0.00    +0.000 C 
ATOM      6  C   UNL     1       0.218  16.227  19.590  0.00  0.00    +0.000 C 
ATOM      7  C   UNL     1       0.737  16.896  20.834  0.00  0.00    +0.000 C 
ATOM      8  C   UNL     1       2.135  16.404  21.271  0.00  0.00    +0.000 C 
ATOM      9  C   UNL     1       2.675  17.323  22.096  0.00  0.00    +0.000 C 
ATOM     10  C   UNL     1       4.104  17.614  22.042  0.00  0.00    +0.000 C 
ATOM     11  O   UNL     1       4.533  18.590  22.650  0.00  0.00    +0.000 OA
ATOM     12  C   UNL     1       4.967  16.735  21.180  0.00  0.00    +0.000 C 
ATOM     13  C   UNL     1       4.172  16.130  19.974  0.00  0.00    +0.000 C 
ATOM     14  C   UNL     1       2.957  15.295  20.488  0.00  0.00    +0.000 C 
ATOM     15  C   UNL     1       3.659  14.137  21.284  0.00  0.00    +0.000 C 
ATOM     16  C   UNL     1      -0.546  13.822  19.440  0.00  0.00    +0.000 C 
ATOM     17  C   UNL     1      -1.845  13.934  20.241  0.00  0.00    +0.000 C 
ATOM     18  C   UNL     1      -2.531  12.591  19.988  0.00  0.00    +0.000 C 
ATOM     19  C   UNL     1      -1.450  11.647  19.348  0.00  0.00    +0.000 C 
ENDROOT
BRANCH  19  20
ATOM     20  C   UNL     1      -1.824  11.473  17.842  0.00  0.00    +0.000 C 
ATOM     21  C   UNL     1      -1.857  10.060  17.274  0.00  0.00    +0.000 C 
BRANCH  20  22
ATOM     22  O   UNL     1      -3.138  12.011  17.640  0.00  0.00    +0.000 OA
ATOM     23  H   UNL     1      -3.775  11.395  18.039  0.00  0.00    +0.000 HD
ENDBRANCH  20  22
ENDBRANCH  19  20
BRANCH   1  24
ATOM     24  C   UNL     1       0.300  12.125  21.217  0.00  0.00    +0.000 C 
BRANCH  24  25
ATOM     25  O   UNL     1       0.944  10.877  21.567  0.00  0.00    +0.000 OA
BRANCH  25  27
ATOM     26  C   UNL     1      -0.205   8.774  21.601  0.00  0.00    +0.000 C 
ATOM     27  C   UNL     1       0.161  10.026  22.307  0.00  0.00    +0.000 C 
ATOM     28  O   UNL     1      -0.123  10.245  23.465  0.00  0.00    +0.000 OA
ENDBRANCH  25  27
ENDBRANCH  24  25
ENDBRANCH   1  24
TORSDOF 5
ENDMDL
