MODEL 1
REMARK VINA RESULT:      -7.7      0.000      0.000
REMARK  Name = 
REMARK  8 active torsions:
REMARK  status: ('A' for Active; 'I' for Inactive)
REMARK    1  A    between atoms: C_2  and  O_3
REMARK    2  A    between atoms: C_2  and  C_4
REMARK    3  A    between atoms: C_4  and  C_5
REMARK    4  A    between atoms: C_5  and  C_6
REMARK    5  A    between atoms: C_9  and  O_10
REMARK    6  A    between atoms: O_10  and  C_11
REMARK    7  A    between atoms: C_11  and  C_12
REMARK    8  A    between atoms: C_14  and  C_15
REMARK                            x       y       z     vdW  Elec       q    Type
REMARK                         _______ _______ _______ _____ _____    ______ ____
ROOT
ATOM      1  O   UNL     1       6.598   5.659  19.255  0.00  0.00    +0.000 OA
ENDROOT
BRANCH   1   5
ATOM      2  C   UNL     1       2.810   4.297  18.154  0.00  0.00    +0.000 A 
ATOM      3  C   UNL     1       3.001   5.232  19.180  0.00  0.00    +0.000 A 
ATOM      4  C   UNL     1       4.285   5.655  19.523  0.00  0.00    +0.000 A 
ATOM      5  C   UNL     1       5.399   5.124  18.875  0.00  0.00    +0.000 A 
ATOM      6  C   UNL     1       5.224   4.166  17.878  0.00  0.00    +0.000 A 
ATOM      7  C   UNL     1       3.935   3.749  17.524  0.00  0.00    +0.000 A 
BRANCH   2   8
ATOM      8  C   UNL     1       1.417   3.932  17.691  0.00  0.00    +0.000 C 
BRANCH   8   9
ATOM      9  C   UNL     1       0.595   3.372  18.860  0.00  0.00    +0.000 C 
BRANCH   9  11
ATOM     10  O   UNL     1       1.512   2.316  20.838  0.00  0.00    +0.000 OA
ATOM     11  C   UNL     1       1.317   2.302  19.631  0.00  0.00    +0.000 C 
BRANCH  11  12
ATOM     12  O   UNL     1       1.738   1.281  18.849  0.00  0.00    +0.000 OA
ATOM     13  H   UNL     1       1.086   0.962  18.190  0.00  0.00    +0.000 HD
ENDBRANCH  11  12
ENDBRANCH   9  11
ENDBRANCH   8   9
ENDBRANCH   2   8
ENDBRANCH   1   5
BRANCH   1  14
ATOM     14  C   UNL     1       7.566   5.798  18.217  0.00  0.00    +0.000 C 
BRANCH  14  15
ATOM     15  C   UNL     1       7.897   7.238  18.121  0.00  0.00    +0.000 A 
ATOM     16  N   UNL     1       8.720   7.963  18.847  0.00  0.00    +0.000 NA
ATOM     17  C   UNL     1       8.540   9.225  18.324  0.00  0.00    +0.000 A 
ATOM     18  N   UNL     1       7.649   9.277  17.319  0.00  0.00    +0.000 NA
ATOM     19  O   UNL     1       7.224   7.961  17.184  0.00  0.00    +0.000 OA
BRANCH  17  20
ATOM     20  C   UNL     1       9.247  10.389  18.839  0.00  0.00    +0.000 A 
ATOM     21  C   UNL     1       9.321  10.628  20.221  0.00  0.00    +0.000 A 
ATOM     22  C   UNL     1       9.983  11.753  20.714  0.00  0.00    +0.000 A 
ATOM     23  C   UNL     1      10.579  12.651  19.830  0.00  0.00    +0.000 A 
ATOM     24  C   UNL     1      10.518  12.415  18.457  0.00  0.00    +0.000 A 
ATOM     25 BR   UNL     1      11.320  13.638  17.260  0.00  0.00    +0.000 Br
ATOM     26  C   UNL     1       9.862  11.289  17.958  0.00  0.00    +0.000 A 
ENDBRANCH  17  20
ENDBRANCH  14  15
ENDBRANCH   1  14
TORSDOF 8
ENDMDL
MODEL 2
REMARK VINA RESULT:      -7.7      1.497      2.057
REMARK  Name = 
REMARK  8 active torsions:
REMARK  status: ('A' for Active; 'I' for Inactive)
REMARK    1  A    between atoms: C_2  and  O_3
REMARK    2  A    between atoms: C_2  and  C_4
REMARK    3  A    between atoms: C_4  and  C_5
REMARK    4  A    between atoms: C_5  and  C_6
REMARK    5  A    between atoms: C_9  and  O_10
REMARK    6  A    between atoms: O_10  and  C_11
REMARK    7  A    between atoms: C_11  and  C_12
REMARK    8  A    between atoms: C_14  and  C_15
REMARK                            x       y       z     vdW  Elec       q    Type
REMARK                         _______ _______ _______ _____ _____    ______ ____
ROOT
ATOM      1  O   UNL     1       6.729   5.426  17.129  0.00  0.00    +0.000 OA
ENDROOT
BRANCH   1   5
ATOM      2  C   UNL     1       2.700   4.469  17.643  0.00  0.00    +0.000 A 
ATOM      3  C   UNL     1       3.616   3.573  17.075  0.00  0.00    +0.000 A 
ATOM      4  C   UNL     1       4.953   3.936  16.913  0.00  0.00    +0.000 A 
ATOM      5  C   UNL     1       5.389   5.208  17.278  0.00  0.00    +0.000 A 
ATOM      6  C   UNL     1       4.479   6.121  17.811  0.00  0.00    +0.000 A 
ATOM      7  C   UNL     1       3.139   5.755  17.985  0.00  0.00    +0.000 A 
BRANCH   2   8
ATOM      8  C   UNL     1       1.281   4.037  17.940  0.00  0.00    +0.000 C 
BRANCH   8   9
ATOM      9  C   UNL     1       1.265   2.998  19.069  0.00  0.00    +0.000 C 
BRANCH   9  11
ATOM     10  O   UNL     1       1.049   4.806  20.667  0.00  0.00    +0.000 OA
ATOM     11  C   UNL     1       1.082   3.607  20.431  0.00  0.00    +0.000 C 
BRANCH  11  12
ATOM     12  O   UNL     1       0.941   2.681  21.409  0.00  0.00    +0.000 OA
ATOM     13  H   UNL     1       0.017   2.430  21.617  0.00  0.00    +0.000 HD
ENDBRANCH  11  12
ENDBRANCH   9  11
ENDBRANCH   8   9
ENDBRANCH   2   8
ENDBRANCH   1   5
BRANCH   1  14
ATOM     14  C   UNL     1       7.427   5.812  18.311  0.00  0.00    +0.000 C 
BRANCH  14  15
ATOM     15  C   UNL     1       7.834   7.224  18.135  0.00  0.00    +0.000 A 
ATOM     16  N   UNL     1       8.606   7.977  18.887  0.00  0.00    +0.000 NA
ATOM     17  C   UNL     1       8.544   9.195  18.246  0.00  0.00    +0.000 A 
ATOM     18  N   UNL     1       7.772   9.194  17.146  0.00  0.00    +0.000 NA
ATOM     19  O   UNL     1       7.302   7.888  17.072  0.00  0.00    +0.000 OA
BRANCH  17  20
ATOM     20  C   UNL     1       9.246  10.371  18.740  0.00  0.00    +0.000 A 
ATOM     21  C   UNL     1      10.207  11.018  17.946  0.00  0.00    +0.000 A 
ATOM     22  C   UNL     1      10.892  12.135  18.426  0.00  0.00    +0.000 A 
ATOM     23  C   UNL     1      10.623  12.617  19.706  0.00  0.00    +0.000 A 
ATOM     24  C   UNL     1       9.664  11.986  20.497  0.00  0.00    +0.000 A 
ATOM     25 BR   UNL     1       9.306  12.638  22.235  0.00  0.00    +0.000 Br
ATOM     26  C   UNL     1       8.971  10.873  20.020  0.00  0.00    +0.000 A 
ENDBRANCH  17  20
ENDBRANCH  14  15
ENDBRANCH   1  14
TORSDOF 8
ENDMDL
MODEL 3
REMARK VINA RESULT:      -7.6      7.296      9.335
REMARK  Name = 
REMARK  8 active torsions:
REMARK  status: ('A' for Active; 'I' for Inactive)
REMARK    1  A    between atoms: C_2  and  O_3
REMARK    2  A    between atoms: C_2  and  C_4
REMARK    3  A    between atoms: C_4  and  C_5
REMARK    4  A    between atoms: C_5  and  C_6
REMARK    5  A    between atoms: C_9  and  O_10
REMARK    6  A    between atoms: O_10  and  C_11
REMARK    7  A    between atoms: C_11  and  C_12
REMARK    8  A    between atoms: C_14  and  C_15
REMARK                            x       y       z     vdW  Elec       q    Type
REMARK                         _______ _______ _______ _____ _____    ______ ____
ROOT
ATOM      1  O   UNL     1      -0.467   9.792  17.599  0.00  0.00    +0.000 OA
ENDROOT
BRANCH   1   5
ATOM      2  C   UNL     1      -4.186  11.551  18.298  0.00  0.00    +0.000 A 
ATOM      3  C   UNL     1      -3.976  10.630  17.263  0.00  0.00    +0.000 A 
ATOM      4  C   UNL     1      -2.714  10.071  17.058  0.00  0.00    +0.000 A 
ATOM      5  C   UNL     1      -1.636  10.451  17.856  0.00  0.00    +0.000 A 
ATOM      6  C   UNL     1      -1.825  11.394  18.865  0.00  0.00    +0.000 A 
ATOM      7  C   UNL     1      -3.093  11.947  19.079  0.00  0.00    +0.000 A 
BRANCH   2   8
ATOM      8  C   UNL     1      -5.577  12.061  18.606  0.00  0.00    +0.000 C 
BRANCH   8   9
ATOM      9  C   UNL     1      -6.618  10.967  18.336  0.00  0.00    +0.000 C 
BRANCH   9  11
ATOM     10  O   UNL     1      -6.969  10.640  20.710  0.00  0.00    +0.000 OA
ATOM     11  C   UNL     1      -7.006  10.201  19.569  0.00  0.00    +0.000 C 
BRANCH  11  12
ATOM     12  O   UNL     1      -7.424   8.943  19.299  0.00  0.00    +0.000 OA
ATOM     13  H   UNL     1      -6.942   8.487  18.578  0.00  0.00    +0.000 HD
ENDBRANCH  11  12
ENDBRANCH   9  11
ENDBRANCH   8   9
ENDBRANCH   2   8
ENDBRANCH   1   5
BRANCH   1  14
ATOM     14  C   UNL     1       0.636  10.149  18.430  0.00  0.00    +0.000 C 
BRANCH  14  15
ATOM     15  C   UNL     1       1.418   8.915  18.670  0.00  0.00    +0.000 A 
ATOM     16  N   UNL     1       1.968   8.086  17.810  0.00  0.00    +0.000 NA
ATOM     17  C   UNL     1       2.483   7.109  18.633  0.00  0.00    +0.000 A 
ATOM     18  N   UNL     1       2.265   7.325  19.941  0.00  0.00    +0.000 NA
ATOM     19  O   UNL     1       1.560   8.522  19.966  0.00  0.00    +0.000 OA
BRANCH  17  20
ATOM     20  C   UNL     1       3.184   5.943  18.112  0.00  0.00    +0.000 A 
ATOM     21  C   UNL     1       2.480   4.779  17.767  0.00  0.00    +0.000 A 
ATOM     22  C   UNL     1       3.153   3.656  17.284  0.00  0.00    +0.000 A 
ATOM     23  C   UNL     1       4.540   3.686  17.142  0.00  0.00    +0.000 A 
ATOM     24  C   UNL     1       5.245   4.841  17.474  0.00  0.00    +0.000 A 
ATOM     25 BR   UNL     1       7.126   4.877  17.287  0.00  0.00    +0.000 Br
ATOM     26  C   UNL     1       4.577   5.969  17.951  0.00  0.00    +0.000 A 
ENDBRANCH  17  20
ENDBRANCH  14  15
ENDBRANCH   1  14
TORSDOF 8
ENDMDL
MODEL 4
REMARK VINA RESULT:      -7.5      1.686      2.420
REMARK  Name = 
REMARK  8 active torsions:
REMARK  status: ('A' for Active; 'I' for Inactive)
REMARK    1  A    between atoms: C_2  and  O_3
REMARK    2  A    between atoms: C_2  and  C_4
REMARK    3  A    between atoms: C_4  and  C_5
REMARK    4  A    between atoms: C_5  and  C_6
REMARK    5  A    between atoms: C_9  and  O_10
REMARK    6  A    between atoms: O_10  and  C_11
REMARK    7  A    between atoms: C_11  and  C_12
REMARK    8  A    between atoms: C_14  and  C_15
REMARK                            x       y       z     vdW  Elec       q    Type
REMARK                         _______ _______ _______ _____ _____    ______ ____
ROOT
ATOM      1  O   UNL     1       5.749   5.570  16.144  0.00  0.00    +0.000 OA
ENDROOT
BRANCH   1   5
ATOM      2  C   UNL     1       2.376   4.537  18.374  0.00  0.00    +0.000 A 
ATOM      3  C   UNL     1       3.207   3.575  17.783  0.00  0.00    +0.000 A 
ATOM      4  C   UNL     1       4.320   3.963  17.038  0.00  0.00    +0.000 A 
ATOM      5  C   UNL     1       4.601   5.314  16.839  0.00  0.00    +0.000 A 
ATOM      6  C   UNL     1       3.760   6.280  17.391  0.00  0.00    +0.000 A 
ATOM      7  C   UNL     1       2.650   5.893  18.149  0.00  0.00    +0.000 A 
BRANCH   2   8
ATOM      8  C   UNL     1       1.245   4.123  19.289  0.00  0.00    +0.000 C 
BRANCH   8   9
ATOM      9  C   UNL     1       1.653   2.902  20.123  0.00  0.00    +0.000 C 
BRANCH   9  11
ATOM     10  O   UNL     1       2.522   2.467  22.342  0.00  0.00    +0.000 OA
ATOM     11  C   UNL     1       2.209   3.266  21.472  0.00  0.00    +0.000 C 
BRANCH  11  12
ATOM     12  O   UNL     1       2.348   4.601  21.642  0.00  0.00    +0.000 OA
ATOM     13  H   UNL     1       3.265   4.940  21.564  0.00  0.00    +0.000 HD
ENDBRANCH  11  12
ENDBRANCH   9  11
ENDBRANCH   8   9
ENDBRANCH   2   8
ENDBRANCH   1   5
BRANCH   1  14
ATOM     14  C   UNL     1       6.957   5.143  16.772  0.00  0.00    +0.000 C 
BRANCH  14  15
ATOM     15  C   UNL     1       7.498   6.306  17.510  0.00  0.00    +0.000 A 
ATOM     16  N   UNL     1       7.564   7.571  17.157  0.00  0.00    +0.000 NA
ATOM     17  C   UNL     1       8.229   8.139  18.222  0.00  0.00    +0.000 A 
ATOM     18  N   UNL     1       8.556   7.267  19.190  0.00  0.00    +0.000 NA
ATOM     19  O   UNL     1       8.071   6.052  18.719  0.00  0.00    +0.000 OA
BRANCH  17  20
ATOM     20  C   UNL     1       8.554   9.558  18.268  0.00  0.00    +0.000 A 
ATOM     21  C   UNL     1       7.847  10.481  17.482  0.00  0.00    +0.000 A 
ATOM     22  C   UNL     1       8.170  11.838  17.513  0.00  0.00    +0.000 A 
ATOM     23  C   UNL     1       9.206  12.286  18.331  0.00  0.00    +0.000 A 
ATOM     24  C   UNL     1       9.907  11.377  19.121  0.00  0.00    +0.000 A 
ATOM     25 BR   UNL     1      11.316  11.986  20.224  0.00  0.00    +0.000 Br
ATOM     26  C   UNL     1       9.584  10.020  19.100  0.00  0.00    +0.000 A 
ENDBRANCH  17  20
ENDBRANCH  14  15
ENDBRANCH   1  14
TORSDOF 8
ENDMDL
MODEL 5
REMARK VINA RESULT:      -7.4      4.115     10.210
REMARK  Name = 
REMARK  8 active torsions:
REMARK  status: ('A' for Active; 'I' for Inactive)
REMARK    1  A    between atoms: C_2  and  O_3
REMARK    2  A    between atoms: C_2  and  C_4
REMARK    3  A    between atoms: C_4  and  C_5
REMARK    4  A    between atoms: C_5  and  C_6
REMARK    5  A    between atoms: C_9  and  O_10
REMARK    6  A    between atoms: O_10  and  C_11
REMARK    7  A    between atoms: C_11  and  C_12
REMARK    8  A    between atoms: C_14  and  C_15
REMARK                            x       y       z     vdW  Elec       q    Type
REMARK                         _______ _______ _______ _____ _____    ______ ____
ROOT
ATOM      1  O   UNL     1       8.689   8.499  18.718  0.00  0.00    +0.000 OA
ENDROOT
BRANCH   1   5
ATOM      2  C   UNL     1       9.334  12.601  19.133  0.00  0.00    +0.000 A 
ATOM      3  C   UNL     1       9.040  12.010  17.897  0.00  0.00    +0.000 A 
ATOM      4  C   UNL     1       8.839  10.633  17.800  0.00  0.00    +0.000 A 
ATOM      5  C   UNL     1       8.967   9.821  18.925  0.00  0.00    +0.000 A 
ATOM      6  C   UNL     1       9.296  10.393  20.153  0.00  0.00    +0.000 A 
ATOM      7  C   UNL     1       9.486  11.775  20.255  0.00  0.00    +0.000 A 
BRANCH   2   8
ATOM      8  C   UNL     1       9.424  14.105  19.268  0.00  0.00    +0.000 C 
BRANCH   8   9
ATOM      9  C   UNL     1      10.484  14.664  18.309  0.00  0.00    +0.000 C 
BRANCH   9  11
ATOM     10  O   UNL     1      10.636  16.607  16.870  0.00  0.00    +0.000 OA
ATOM     11  C   UNL     1       9.956  15.747  17.410  0.00  0.00    +0.000 C 
BRANCH  11  12
ATOM     12  O   UNL     1       8.615  15.680  17.234  0.00  0.00    +0.000 OA
ATOM     13  H   UNL     1       8.080  15.790  18.048  0.00  0.00    +0.000 HD
ENDBRANCH  11  12
ENDBRANCH   9  11
ENDBRANCH   8   9
ENDBRANCH   2   8
ENDBRANCH   1   5
BRANCH   1  14
ATOM     14  C   UNL     1       7.870   8.211  17.587  0.00  0.00    +0.000 C 
BRANCH  14  15
ATOM     15  C   UNL     1       7.144   6.956  17.883  0.00  0.00    +0.000 A 
ATOM     16  N   UNL     1       5.880   6.648  17.688  0.00  0.00    +0.000 NA
ATOM     17  C   UNL     1       5.799   5.383  18.228  0.00  0.00    +0.000 A 
ATOM     18  N   UNL     1       6.959   4.928  18.731  0.00  0.00    +0.000 NA
ATOM     19  O   UNL     1       7.851   5.970  18.502  0.00  0.00    +0.000 OA
BRANCH  17  20
ATOM     20  C   UNL     1       4.554   4.628  18.257  0.00  0.00    +0.000 A 
ATOM     21  C   UNL     1       4.030   4.066  17.083  0.00  0.00    +0.000 A 
ATOM     22  C   UNL     1       2.828   3.357  17.107  0.00  0.00    +0.000 A 
ATOM     23  C   UNL     1       2.137   3.204  18.308  0.00  0.00    +0.000 A 
ATOM     24  C   UNL     1       2.655   3.752  19.480  0.00  0.00    +0.000 A 
ATOM     25 BR   UNL     1       1.713   3.549  21.106  0.00  0.00    +0.000 Br
ATOM     26  C   UNL     1       3.860   4.456  19.463  0.00  0.00    +0.000 A 
ENDBRANCH  17  20
ENDBRANCH  14  15
ENDBRANCH   1  14
TORSDOF 8
ENDMDL
MODEL 6
REMARK VINA RESULT:      -7.4      5.096      7.478
REMARK  Name = 
REMARK  8 active torsions:
REMARK  status: ('A' for Active; 'I' for Inactive)
REMARK    1  A    between atoms: C_2  and  O_3
REMARK    2  A    between atoms: C_2  and  C_4
REMARK    3  A    between atoms: C_4  and  C_5
REMARK    4  A    between atoms: C_5  and  C_6
REMARK    5  A    between atoms: C_9  and  O_10
REMARK    6  A    between atoms: O_10  and  C_11
REMARK    7  A    between atoms: C_11  and  C_12
REMARK    8  A    between atoms: C_14  and  C_15
REMARK                            x       y       z     vdW  Elec       q    Type
REMARK                         _______ _______ _______ _____ _____    ______ ____
ROOT
ATOM      1  O   UNL     1       5.679   6.840  16.988  0.00  0.00    +0.000 OA
ENDROOT
BRANCH   1   5
ATOM      2  C   UNL     1       2.667   5.741  19.658  0.00  0.00    +0.000 A 
ATOM      3  C   UNL     1       3.859   5.014  19.533  0.00  0.00    +0.000 A 
ATOM      4  C   UNL     1       4.837   5.411  18.622  0.00  0.00    +0.000 A 
ATOM      5  C   UNL     1       4.627   6.513  17.795  0.00  0.00    +0.000 A 
ATOM      6  C   UNL     1       3.429   7.222  17.885  0.00  0.00    +0.000 A 
ATOM      7  C   UNL     1       2.451   6.833  18.807  0.00  0.00    +0.000 A 
BRANCH   2   8
ATOM      8  C   UNL     1       1.660   5.393  20.733  0.00  0.00    +0.000 C 
BRANCH   8   9
ATOM      9  C   UNL     1       0.860   4.147  20.331  0.00  0.00    +0.000 C 
BRANCH   9  11
ATOM     10  O   UNL     1       1.554   2.630  22.087  0.00  0.00    +0.000 OA
ATOM     11  C   UNL     1       1.424   2.873  20.896  0.00  0.00    +0.000 C 
BRANCH  11  12
ATOM     12  O   UNL     1       1.778   1.983  19.940  0.00  0.00    +0.000 OA
ATOM     13  H   UNL     1       1.458   2.189  19.037  0.00  0.00    +0.000 HD
ENDBRANCH  11  12
ENDBRANCH   9  11
ENDBRANCH   8   9
ENDBRANCH   2   8
ENDBRANCH   1   5
BRANCH   1  14
ATOM     14  C   UNL     1       6.731   5.879  16.927  0.00  0.00    +0.000 C 
BRANCH  14  15
ATOM     15  C   UNL     1       6.769   5.362  15.541  0.00  0.00    +0.000 A 
ATOM     16  N   UNL     1       5.933   4.559  14.919  0.00  0.00    +0.000 NA
ATOM     17  C   UNL     1       6.542   4.393  13.694  0.00  0.00    +0.000 A 
ATOM     18  N   UNL     1       7.699   5.064  13.564  0.00  0.00    +0.000 NA
ATOM     19  O   UNL     1       7.849   5.707  14.787  0.00  0.00    +0.000 OA
BRANCH  17  20
ATOM     20  C   UNL     1       5.976   3.548  12.652  0.00  0.00    +0.000 A 
ATOM     21  C   UNL     1       6.556   2.308  12.342  0.00  0.00    +0.000 A 
ATOM     22  C   UNL     1       6.025   1.506  11.332  0.00  0.00    +0.000 A 
ATOM     23  C   UNL     1       4.906   1.936  10.620  0.00  0.00    +0.000 A 
ATOM     24  C   UNL     1       4.318   3.162  10.928  0.00  0.00    +0.000 A 
ATOM     25 BR   UNL     1       2.806   3.746   9.957  0.00  0.00    +0.000 Br
ATOM     26  C   UNL     1       4.841   3.965  11.942  0.00  0.00    +0.000 A 
ENDBRANCH  17  20
ENDBRANCH  14  15
ENDBRANCH   1  14
TORSDOF 8
ENDMDL
MODEL 7
REMARK VINA RESULT:      -7.4      4.108     10.153
REMARK  Name = 
REMARK  8 active torsions:
REMARK  status: ('A' for Active; 'I' for Inactive)
REMARK    1  A    between atoms: C_2  and  O_3
REMARK    2  A    between atoms: C_2  and  C_4
REMARK    3  A    between atoms: C_4  and  C_5
REMARK    4  A    between atoms: C_5  and  C_6
REMARK    5  A    between atoms: C_9  and  O_10
REMARK    6  A    between atoms: O_10  and  C_11
REMARK    7  A    between atoms: C_11  and  C_12
REMARK    8  A    between atoms: C_14  and  C_15
REMARK                            x       y       z     vdW  Elec       q    Type
REMARK                         _______ _______ _______ _____ _____    ______ ____
ROOT
ATOM      1  O   UNL     1       7.420   8.592  17.736  0.00  0.00    +0.000 OA
ENDROOT
BRANCH   1   5
ATOM      2  C   UNL     1       9.666  11.912  18.897  0.00  0.00    +0.000 A 
ATOM      3  C   UNL     1       8.748  11.961  17.839  0.00  0.00    +0.000 A 
ATOM      4  C   UNL     1       8.023  10.826  17.478  0.00  0.00    +0.000 A 
ATOM      5  C   UNL     1       8.230   9.616  18.138  0.00  0.00    +0.000 A 
ATOM      6  C   UNL     1       9.167   9.546  19.168  0.00  0.00    +0.000 A 
ATOM      7  C   UNL     1       9.886  10.687  19.541  0.00  0.00    +0.000 A 
BRANCH   2   8
ATOM      8  C   UNL     1      10.358  13.169  19.378  0.00  0.00    +0.000 C 
BRANCH   8   9
ATOM      9  C   UNL     1      11.361  13.660  18.326  0.00  0.00    +0.000 C 
BRANCH   9  11
ATOM     10  O   UNL     1      10.143  15.713  17.914  0.00  0.00    +0.000 OA
ATOM     11  C   UNL     1      10.838  14.799  17.496  0.00  0.00    +0.000 C 
BRANCH  11  12
ATOM     12  O   UNL     1      11.225  14.729  16.200  0.00  0.00    +0.000 OA
ATOM     13  H   UNL     1      10.498  14.766  15.544  0.00  0.00    +0.000 HD
ENDBRANCH  11  12
ENDBRANCH   9  11
ENDBRANCH   8   9
ENDBRANCH   2   8
ENDBRANCH   1   5
BRANCH   1  14
ATOM     14  C   UNL     1       8.042   7.312  17.650  0.00  0.00    +0.000 C 
BRANCH  14  15
ATOM     15  C   UNL     1       7.054   6.314  18.119  0.00  0.00    +0.000 A 
ATOM     16  N   UNL     1       5.766   6.226  17.873  0.00  0.00    +0.000 NA
ATOM     17  C   UNL     1       5.393   5.145  18.641  0.00  0.00    +0.000 A 
ATOM     18  N   UNL     1       6.405   4.589  19.328  0.00  0.00    +0.000 NA
ATOM     19  O   UNL     1       7.506   5.363  18.982  0.00  0.00    +0.000 OA
BRANCH  17  20
ATOM     20  C   UNL     1       4.017   4.672  18.704  0.00  0.00    +0.000 A 
ATOM     21  C   UNL     1       3.141   4.874  17.626  0.00  0.00    +0.000 A 
ATOM     22  C   UNL     1       1.818   4.437  17.692  0.00  0.00    +0.000 A 
ATOM     23  C   UNL     1       1.356   3.793  18.840  0.00  0.00    +0.000 A 
ATOM     24  C   UNL     1       2.222   3.581  19.911  0.00  0.00    +0.000 A 
ATOM     25 BR   UNL     1       1.593   2.714  21.468  0.00  0.00    +0.000 Br
ATOM     26  C   UNL     1       3.548   4.009  19.848  0.00  0.00    +0.000 A 
ENDBRANCH  17  20
ENDBRANCH  14  15
ENDBRANCH   1  14
TORSDOF 8
ENDMDL
MODEL 8
REMARK VINA RESULT:      -7.3      5.309      7.369
REMARK  Name = 
REMARK  8 active torsions:
REMARK  status: ('A' for Active; 'I' for Inactive)
REMARK    1  A    between atoms: C_2  and  O_3
REMARK    2  A    between atoms: C_2  and  C_4
REMARK    3  A    between atoms: C_4  and  C_5
REMARK    4  A    between atoms: C_5  and  C_6
REMARK    5  A    between atoms: C_9  and  O_10
REMARK    6  A    between atoms: O_10  and  C_11
REMARK    7  A    between atoms: C_11  and  C_12
REMARK    8  A    between atoms: C_14  and  C_15
REMARK                            x       y       z     vdW  Elec       q    Type
REMARK                         _______ _______ _______ _____ _____    ______ ____
ROOT
ATOM      1  O   UNL     1       6.429   5.441  18.071  0.00  0.00    +0.000 OA
ENDROOT
BRANCH   1   5
ATOM      2  C   UNL     1       2.606   3.788  18.335  0.00  0.00    +0.000 A 
ATOM      3  C   UNL     1       3.757   3.075  18.699  0.00  0.00    +0.000 A 
ATOM      4  C   UNL     1       5.017   3.662  18.587  0.00  0.00    +0.000 A 
ATOM      5  C   UNL     1       5.153   4.952  18.076  0.00  0.00    +0.000 A 
ATOM      6  C   UNL     1       4.018   5.657  17.677  0.00  0.00    +0.000 A 
ATOM      7  C   UNL     1       2.752   5.074  17.800  0.00  0.00    +0.000 A 
BRANCH   2   8
ATOM      8  C   UNL     1       1.231   3.206  18.576  0.00  0.00    +0.000 C 
BRANCH   8   9
ATOM      9  C   UNL     1       1.061   2.830  20.054  0.00  0.00    +0.000 C 
BRANCH   9  11
ATOM     10  O   UNL     1       1.175   5.110  20.864  0.00  0.00    +0.000 OA
ATOM     11  C   UNL     1       1.466   3.930  20.995  0.00  0.00    +0.000 C 
BRANCH  11  12
ATOM     12  O   UNL     1       2.199   3.485  22.042  0.00  0.00    +0.000 OA
ATOM     13  H   UNL     1       2.974   2.934  21.807  0.00  0.00    +0.000 HD
ENDBRANCH  11  12
ENDBRANCH   9  11
ENDBRANCH   8   9
ENDBRANCH   2   8
ENDBRANCH   1   5
BRANCH   1  14
ATOM     14  C   UNL     1       7.399   4.624  17.418  0.00  0.00    +0.000 C 
BRANCH  14  15
ATOM     15  C   UNL     1       7.050   4.597  15.980  0.00  0.00    +0.000 A 
ATOM     16  N   UNL     1       6.476   3.650  15.271  0.00  0.00    +0.000 NA
ATOM     17  C   UNL     1       6.490   4.184  14.001  0.00  0.00    +0.000 A 
ATOM     18  N   UNL     1       7.043   5.406  13.929  0.00  0.00    +0.000 NA
ATOM     19  O   UNL     1       7.414   5.681  15.240  0.00  0.00    +0.000 OA
BRANCH  17  20
ATOM     20  C   UNL     1       5.962   3.466  12.849  0.00  0.00    +0.000 A 
ATOM     21  C   UNL     1       6.538   2.255  12.436  0.00  0.00    +0.000 A 
ATOM     22  C   UNL     1       6.044   1.575  11.321  0.00  0.00    +0.000 A 
ATOM     23  C   UNL     1       4.968   2.102  10.608  0.00  0.00    +0.000 A 
ATOM     24  C   UNL     1       4.385   3.300  11.018  0.00  0.00    +0.000 A 
ATOM     25 BR   UNL     1       2.931   4.015  10.045  0.00  0.00    +0.000 Br
ATOM     26  C   UNL     1       4.870   3.980  12.135  0.00  0.00    +0.000 A 
ENDBRANCH  17  20
ENDBRANCH  14  15
ENDBRANCH   1  14
TORSDOF 8
ENDMDL
MODEL 9
REMARK VINA RESULT:      -7.3      4.146      8.168
REMARK  Name = 
REMARK  8 active torsions:
REMARK  status: ('A' for Active; 'I' for Inactive)
REMARK    1  A    between atoms: C_2  and  O_3
REMARK    2  A    between atoms: C_2  and  C_4
REMARK    3  A    between atoms: C_4  and  C_5
REMARK    4  A    between atoms: C_5  and  C_6
REMARK    5  A    between atoms: C_9  and  O_10
REMARK    6  A    between atoms: O_10  and  C_11
REMARK    7  A    between atoms: C_11  and  C_12
REMARK    8  A    between atoms: C_14  and  C_15
REMARK                            x       y       z     vdW  Elec       q    Type
REMARK                         _______ _______ _______ _____ _____    ______ ____
ROOT
ATOM      1  O   UNL     1       6.090   4.031  18.280  0.00  0.00    +0.000 OA
ENDROOT
BRANCH   1   5
ATOM      2  C   UNL     1       7.839   7.796  17.856  0.00  0.00    +0.000 A 
ATOM      3  C   UNL     1       6.978   7.257  16.890  0.00  0.00    +0.000 A 
ATOM      4  C   UNL     1       6.421   5.991  17.067  0.00  0.00    +0.000 A 
ATOM      5  C   UNL     1       6.743   5.228  18.188  0.00  0.00    +0.000 A 
ATOM      6  C   UNL     1       7.628   5.739  19.137  0.00  0.00    +0.000 A 
ATOM      7  C   UNL     1       8.178   7.014  18.968  0.00  0.00    +0.000 A 
BRANCH   2   8
ATOM      8  C   UNL     1       8.342   9.218  17.734  0.00  0.00    +0.000 C 
BRANCH   8   9
ATOM      9  C   UNL     1       9.024   9.656  19.037  0.00  0.00    +0.000 C 
BRANCH   9  11
ATOM     10  O   UNL     1      10.626  11.366  19.652  0.00  0.00    +0.000 OA
ATOM     11  C   UNL     1       9.725  10.981  18.922  0.00  0.00    +0.000 C 
BRANCH  11  12
ATOM     12  O   UNL     1       9.263  11.735  17.897  0.00  0.00    +0.000 OA
ATOM     13  H   UNL     1       9.498  12.686  17.937  0.00  0.00    +0.000 HD
ENDBRANCH  11  12
ENDBRANCH   9  11
ENDBRANCH   8   9
ENDBRANCH   2   8
ENDBRANCH   1   5
BRANCH   1  14
ATOM     14  C   UNL     1       4.794   3.989  17.686  0.00  0.00    +0.000 C 
BRANCH  14  15
ATOM     15  C   UNL     1       3.909   4.842  18.511  0.00  0.00    +0.000 A 
ATOM     16  N   UNL     1       3.400   6.026  18.250  0.00  0.00    +0.000 NA
ATOM     17  C   UNL     1       2.733   6.323  19.419  0.00  0.00    +0.000 A 
ATOM     18  N   UNL     1       2.823   5.365  20.357  0.00  0.00    +0.000 NA
ATOM     19  O   UNL     1       3.601   4.383  19.756  0.00  0.00    +0.000 OA
BRANCH  17  20
ATOM     20  C   UNL     1       2.014   7.575  19.608  0.00  0.00    +0.000 A 
ATOM     21  C   UNL     1       1.901   8.501  18.559  0.00  0.00    +0.000 A 
ATOM     22  C   UNL     1       1.227   9.709  18.745  0.00  0.00    +0.000 A 
ATOM     23  C   UNL     1       0.660  10.003  19.984  0.00  0.00    +0.000 A 
ATOM     24  C   UNL     1       0.760   9.085  21.028  0.00  0.00    +0.000 A 
ATOM     25 BR   UNL     1      -0.003   9.490  22.709  0.00  0.00    +0.000 Br
ATOM     26  C   UNL     1       1.427   7.873  20.846  0.00  0.00    +0.000 A 
ENDBRANCH  17  20
ENDBRANCH  14  15
ENDBRANCH   1  14
TORSDOF 8
ENDMDL
