MODEL 1
REMARK VINA RESULT:      -7.0      0.000      0.000
REMARK  Name = 
REMARK  11 active torsions:
REMARK  status: ('A' for Active; 'I' for Inactive)
REMARK    1  A    between atoms: C_2  and  C_3
REMARK    2  A    between atoms: C_3  and  N_4
REMARK    3  A    between atoms: N_4  and  C_5
REMARK    4  A    between atoms: N_4  and  C_6
REMARK    5  A    between atoms: C_6  and  C_7
REMARK    6  A    between atoms: C_7  and  O_8
REMARK    7  A    between atoms: O_8  and  C_9
REMARK    8  A    between atoms: C_9  and  C_10
REMARK    9  A    between atoms: C_10  and  O_11
REMARK   10  A    between atoms: C_10  and  C_12
REMARK   11  A    between atoms: C_10  and  C_18
REMARK                            x       y       z     vdW  Elec       q    Type
REMARK                         _______ _______ _______ _____ _____    ______ ____
ROOT
ATOM      1  C   UNL     1       3.041   5.802  19.007  0.00  0.00    +0.000 C 
ENDROOT
BRANCH   1   2
ATOM      2  C   UNL     1       2.342   7.169  19.079  0.00  0.00    +0.000 A 
ATOM      3  C   UNL     1       1.761   7.666  20.260  0.00  0.00    +0.000 A 
ATOM      4  C   UNL     1       1.170   8.934  20.301  0.00  0.00    +0.000 A 
ATOM      5  C   UNL     1       1.146   9.728  19.158  0.00  0.00    +0.000 A 
ATOM      6  C   UNL     1       1.700   9.253  17.976  0.00  0.00    +0.000 A 
ATOM      7  C   UNL     1       2.293   7.988  17.936  0.00  0.00    +0.000 A 
ENDBRANCH   1   2
BRANCH   1   8
ATOM      8  C   UNL     1       2.312   4.703  19.801  0.00  0.00    +0.000 A 
ATOM      9  C   UNL     1       2.772   4.308  21.070  0.00  0.00    +0.000 A 
ATOM     10  C   UNL     1       2.187   3.239  21.753  0.00  0.00    +0.000 A 
ATOM     11  C   UNL     1       1.128   2.541  21.180  0.00  0.00    +0.000 A 
ATOM     12  C   UNL     1       0.654   2.909  19.925  0.00  0.00    +0.000 A 
ATOM     13  C   UNL     1       1.243   3.976  19.239  0.00  0.00    +0.000 A 
ENDBRANCH   1   8
BRANCH   1  14
ATOM     14  O   UNL     1       4.368   5.986  19.545  0.00  0.00    +0.000 OA
ATOM     15  H   UNL     1       4.520   6.948  19.452  0.00  0.00    +0.000 HD
ENDBRANCH   1  14
BRANCH   1  16
ATOM     16  C   UNL     1       3.247   5.244  17.571  0.00  0.00    +0.000 C 
BRANCH  16  17
ATOM     17  O   UNL     1       4.049   4.053  17.591  0.00  0.00    +0.000 OA
BRANCH  17  18
ATOM     18  C   UNL     1       5.031   4.037  16.548  0.00  0.00    +0.000 C 
BRANCH  18  19
ATOM     19  C   UNL     1       5.219   5.400  15.844  0.00  0.00    +0.000 C 
BRANCH  19  20
ATOM     20  N   UNL     1       6.629   5.745  15.552  0.00  0.00    +0.000 NA
ATOM     21  C   UNL     1       7.148   4.858  14.507  0.00  0.00    +0.000 C 
BRANCH  20  22
ATOM     22  C   UNL     1       7.426   5.686  16.781  0.00  0.00    +0.000 C 
BRANCH  22  24
ATOM     23  C   UNL     1       7.751   8.050  17.536  0.00  0.00    +0.000 C 
ATOM     24  C   UNL     1       7.197   6.841  17.709  0.00  0.00    +0.000 C 
ENDBRANCH  22  24
ENDBRANCH  20  22
ENDBRANCH  19  20
ENDBRANCH  18  19
ENDBRANCH  17  18
ENDBRANCH  16  17
ENDBRANCH   1  16
TORSDOF 10
ENDMDL
MODEL 2
REMARK VINA RESULT:      -6.9      0.980      4.345
REMARK  Name = 
REMARK  11 active torsions:
REMARK  status: ('A' for Active; 'I' for Inactive)
REMARK    1  A    between atoms: C_2  and  C_3
REMARK    2  A    between atoms: C_3  and  N_4
REMARK    3  A    between atoms: N_4  and  C_5
REMARK    4  A    between atoms: N_4  and  C_6
REMARK    5  A    between atoms: C_6  and  C_7
REMARK    6  A    between atoms: C_7  and  O_8
REMARK    7  A    between atoms: O_8  and  C_9
REMARK    8  A    between atoms: C_9  and  C_10
REMARK    9  A    between atoms: C_10  and  O_11
REMARK   10  A    between atoms: C_10  and  C_12
REMARK   11  A    between atoms: C_10  and  C_18
REMARK                            x       y       z     vdW  Elec       q    Type
REMARK                         _______ _______ _______ _____ _____    ______ ____
ROOT
ATOM      1  C   UNL     1       3.137   5.680  18.858  0.00  0.00    +0.000 C 
ENDROOT
BRANCH   1   2
ATOM      2  C   UNL     1       2.422   4.586  19.668  0.00  0.00    +0.000 A 
ATOM      3  C   UNL     1       2.714   4.325  21.019  0.00  0.00    +0.000 A 
ATOM      4  C   UNL     1       2.013   3.350  21.739  0.00  0.00    +0.000 A 
ATOM      5  C   UNL     1       1.008   2.614  21.117  0.00  0.00    +0.000 A 
ATOM      6  C   UNL     1       0.712   2.844  19.778  0.00  0.00    +0.000 A 
ATOM      7  C   UNL     1       1.410   3.820  19.061  0.00  0.00    +0.000 A 
ENDBRANCH   1   2
BRANCH   1   8
ATOM      8  C   UNL     1       2.488   7.069  19.006  0.00  0.00    +0.000 A 
ATOM      9  C   UNL     1       1.911   7.465  20.226  0.00  0.00    +0.000 A 
ATOM     10  C   UNL     1       1.223   8.675  20.343  0.00  0.00    +0.000 A 
ATOM     11  C   UNL     1       1.098   9.516  19.241  0.00  0.00    +0.000 A 
ATOM     12  C   UNL     1       1.658   9.147  18.022  0.00  0.00    +0.000 A 
ATOM     13  C   UNL     1       2.342   7.933  17.903  0.00  0.00    +0.000 A 
ENDBRANCH   1   8
BRANCH   1  14
ATOM     14  O   UNL     1       3.088   5.269  17.475  0.00  0.00    +0.000 OA
ATOM     15  H   UNL     1       2.421   4.555  17.473  0.00  0.00    +0.000 HD
ENDBRANCH   1  14
BRANCH   1  16
ATOM     16  C   UNL     1       4.645   5.863  19.187  0.00  0.00    +0.000 C 
BRANCH  16  17
ATOM     17  O   UNL     1       5.413   4.741  18.724  0.00  0.00    +0.000 OA
BRANCH  17  18
ATOM     18  C   UNL     1       6.823   4.978  18.789  0.00  0.00    +0.000 C 
BRANCH  18  19
ATOM     19  C   UNL     1       7.559   4.748  17.448  0.00  0.00    +0.000 C 
BRANCH  19  20
ATOM     20  N   UNL     1       7.348   5.817  16.446  0.00  0.00    +0.000 NA
ATOM     21  C   UNL     1       7.397   7.127  17.102  0.00  0.00    +0.000 C 
BRANCH  20  22
ATOM     22  C   UNL     1       6.084   5.597  15.735  0.00  0.00    +0.000 C 
BRANCH  22  24
ATOM     23  C   UNL     1       6.148   3.945  13.855  0.00  0.00    +0.000 C 
ATOM     24  C   UNL     1       5.948   4.222  15.153  0.00  0.00    +0.000 C 
ENDBRANCH  22  24
ENDBRANCH  20  22
ENDBRANCH  19  20
ENDBRANCH  18  19
ENDBRANCH  17  18
ENDBRANCH  16  17
ENDBRANCH   1  16
TORSDOF 10
ENDMDL
MODEL 3
REMARK VINA RESULT:      -6.9      0.757      1.761
REMARK  Name = 
REMARK  11 active torsions:
REMARK  status: ('A' for Active; 'I' for Inactive)
REMARK    1  A    between atoms: C_2  and  C_3
REMARK    2  A    between atoms: C_3  and  N_4
REMARK    3  A    between atoms: N_4  and  C_5
REMARK    4  A    between atoms: N_4  and  C_6
REMARK    5  A    between atoms: C_6  and  C_7
REMARK    6  A    between atoms: C_7  and  O_8
REMARK    7  A    between atoms: O_8  and  C_9
REMARK    8  A    between atoms: C_9  and  C_10
REMARK    9  A    between atoms: C_10  and  O_11
REMARK   10  A    between atoms: C_10  and  C_12
REMARK   11  A    between atoms: C_10  and  C_18
REMARK                            x       y       z     vdW  Elec       q    Type
REMARK                         _______ _______ _______ _____ _____    ______ ____
ROOT
ATOM      1  C   UNL     1       3.237   5.797  18.968  0.00  0.00    +0.000 C 
ENDROOT
BRANCH   1   2
ATOM      2  C   UNL     1       2.503   7.146  19.058  0.00  0.00    +0.000 A 
ATOM      3  C   UNL     1       2.365   8.012  17.959  0.00  0.00    +0.000 A 
ATOM      4  C   UNL     1       1.654   9.213  18.065  0.00  0.00    +0.000 A 
ATOM      5  C   UNL     1       1.069   9.571  19.276  0.00  0.00    +0.000 A 
ATOM      6  C   UNL     1       1.204   8.737  20.380  0.00  0.00    +0.000 A 
ATOM      7  C   UNL     1       1.912   7.537  20.273  0.00  0.00    +0.000 A 
ENDBRANCH   1   2
BRANCH   1   8
ATOM      8  C   UNL     1       2.503   4.656  19.698  0.00  0.00    +0.000 A 
ATOM      9  C   UNL     1       1.436   3.979  19.080  0.00  0.00    +0.000 A 
ATOM     10  C   UNL     1       0.691   3.018  19.770  0.00  0.00    +0.000 A 
ATOM     11  C   UNL     1       0.999   2.715  21.093  0.00  0.00    +0.000 A 
ATOM     12  C   UNL     1       2.048   3.372  21.727  0.00  0.00    +0.000 A 
ATOM     13  C   UNL     1       2.790   4.337  21.039  0.00  0.00    +0.000 A 
ENDBRANCH   1   8
BRANCH   1  14
ATOM     14  O   UNL     1       4.537   5.993  19.564  0.00  0.00    +0.000 OA
ATOM     15  H   UNL     1       5.089   5.308  19.137  0.00  0.00    +0.000 HD
ENDBRANCH   1  14
BRANCH   1  16
ATOM     16  C   UNL     1       3.510   5.291  17.525  0.00  0.00    +0.000 C 
BRANCH  16  17
ATOM     17  O   UNL     1       4.757   4.584  17.454  0.00  0.00    +0.000 OA
BRANCH  17  18
ATOM     18  C   UNL     1       5.456   4.826  16.228  0.00  0.00    +0.000 C 
BRANCH  18  19
ATOM     19  C   UNL     1       6.370   6.072  16.265  0.00  0.00    +0.000 C 
BRANCH  19  20
ATOM     20  N   UNL     1       7.623   5.888  17.033  0.00  0.00    +0.000 NA
ATOM     21  C   UNL     1       7.694   4.514  17.538  0.00  0.00    +0.000 C 
BRANCH  20  22
ATOM     22  C   UNL     1       7.705   6.883  18.107  0.00  0.00    +0.000 C 
BRANCH  22  24
ATOM     23  C   UNL     1       8.431   9.277  18.207  0.00  0.00    +0.000 C 
ATOM     24  C   UNL     1       7.722   8.300  17.619  0.00  0.00    +0.000 C 
ENDBRANCH  22  24
ENDBRANCH  20  22
ENDBRANCH  19  20
ENDBRANCH  18  19
ENDBRANCH  17  18
ENDBRANCH  16  17
ENDBRANCH   1  16
TORSDOF 10
ENDMDL
MODEL 4
REMARK VINA RESULT:      -6.8      0.616      1.246
REMARK  Name = 
REMARK  11 active torsions:
REMARK  status: ('A' for Active; 'I' for Inactive)
REMARK    1  A    between atoms: C_2  and  C_3
REMARK    2  A    between atoms: C_3  and  N_4
REMARK    3  A    between atoms: N_4  and  C_5
REMARK    4  A    between atoms: N_4  and  C_6
REMARK    5  A    between atoms: C_6  and  C_7
REMARK    6  A    between atoms: C_7  and  O_8
REMARK    7  A    between atoms: O_8  and  C_9
REMARK    8  A    between atoms: C_9  and  C_10
REMARK    9  A    between atoms: C_10  and  O_11
REMARK   10  A    between atoms: C_10  and  C_12
REMARK   11  A    between atoms: C_10  and  C_18
REMARK                            x       y       z     vdW  Elec       q    Type
REMARK                         _______ _______ _______ _____ _____    ______ ____
ROOT
ATOM      1  C   UNL     1       3.133   5.884  18.994  0.00  0.00    +0.000 C 
ENDROOT
BRANCH   1   2
ATOM      2  C   UNL     1       2.423   7.248  19.019  0.00  0.00    +0.000 A 
ATOM      3  C   UNL     1       2.302   8.065  17.880  0.00  0.00    +0.000 A 
ATOM      4  C   UNL     1       1.612   9.282  17.929  0.00  0.00    +0.000 A 
ATOM      5  C   UNL     1       1.032   9.705  19.121  0.00  0.00    +0.000 A 
ATOM      6  C   UNL     1       1.151   8.922  20.264  0.00  0.00    +0.000 A 
ATOM      7  C   UNL     1       1.837   7.706  20.214  0.00  0.00    +0.000 A 
ENDBRANCH   1   2
BRANCH   1   8
ATOM      8  C   UNL     1       2.205   4.709  19.356  0.00  0.00    +0.000 A 
ATOM      9  C   UNL     1       2.141   4.226  20.675  0.00  0.00    +0.000 A 
ATOM     10  C   UNL     1       1.389   3.093  20.996  0.00  0.00    +0.000 A 
ATOM     11  C   UNL     1       0.684   2.419  20.003  0.00  0.00    +0.000 A 
ATOM     12  C   UNL     1       0.732   2.876  18.689  0.00  0.00    +0.000 A 
ATOM     13  C   UNL     1       1.489   4.007  18.367  0.00  0.00    +0.000 A 
ENDBRANCH   1   8
BRANCH   1  14
ATOM     14  O   UNL     1       4.211   5.961  19.951  0.00  0.00    +0.000 OA
ATOM     15  H   UNL     1       5.008   6.036  19.390  0.00  0.00    +0.000 HD
ENDBRANCH   1  14
BRANCH   1  16
ATOM     16  C   UNL     1       3.801   5.515  17.640  0.00  0.00    +0.000 C 
BRANCH  16  17
ATOM     17  O   UNL     1       4.577   4.313  17.760  0.00  0.00    +0.000 OA
BRANCH  17  18
ATOM     18  C   UNL     1       5.106   3.875  16.503  0.00  0.00    +0.000 C 
BRANCH  18  19
ATOM     19  C   UNL     1       5.181   4.989  15.433  0.00  0.00    +0.000 C 
BRANCH  19  20
ATOM     20  N   UNL     1       6.547   5.502  15.182  0.00  0.00    +0.000 NA
ATOM     21  C   UNL     1       7.100   4.867  13.983  0.00  0.00    +0.000 C 
BRANCH  20  22
ATOM     22  C   UNL     1       7.388   5.291  16.365  0.00  0.00    +0.000 C 
BRANCH  22  24
ATOM     23  C   UNL     1       7.685   6.363  18.607  0.00  0.00    +0.000 C 
ATOM     24  C   UNL     1       7.432   6.467  17.294  0.00  0.00    +0.000 C 
ENDBRANCH  22  24
ENDBRANCH  20  22
ENDBRANCH  19  20
ENDBRANCH  18  19
ENDBRANCH  17  18
ENDBRANCH  16  17
ENDBRANCH   1  16
TORSDOF 10
ENDMDL
MODEL 5
REMARK VINA RESULT:      -6.8      1.501      2.935
REMARK  Name = 
REMARK  11 active torsions:
REMARK  status: ('A' for Active; 'I' for Inactive)
REMARK    1  A    between atoms: C_2  and  C_3
REMARK    2  A    between atoms: C_3  and  N_4
REMARK    3  A    between atoms: N_4  and  C_5
REMARK    4  A    between atoms: N_4  and  C_6
REMARK    5  A    between atoms: C_6  and  C_7
REMARK    6  A    between atoms: C_7  and  O_8
REMARK    7  A    between atoms: O_8  and  C_9
REMARK    8  A    between atoms: C_9  and  C_10
REMARK    9  A    between atoms: C_10  and  O_11
REMARK   10  A    between atoms: C_10  and  C_12
REMARK   11  A    between atoms: C_10  and  C_18
REMARK                            x       y       z     vdW  Elec       q    Type
REMARK                         _______ _______ _______ _____ _____    ______ ____
ROOT
ATOM      1  C   UNL     1       3.336   5.942  18.802  0.00  0.00    +0.000 C 
ENDROOT
BRANCH   1   2
ATOM      2  C   UNL     1       2.562   7.268  18.890  0.00  0.00    +0.000 A 
ATOM      3  C   UNL     1       2.417   8.139  17.797  0.00  0.00    +0.000 A 
ATOM      4  C   UNL     1       1.669   9.318  17.901  0.00  0.00    +0.000 A 
ATOM      5  C   UNL     1       1.055   9.648  19.106  0.00  0.00    +0.000 A 
ATOM      6  C   UNL     1       1.196   8.809  20.205  0.00  0.00    +0.000 A 
ATOM      7  C   UNL     1       1.940   7.631  20.100  0.00  0.00    +0.000 A 
ENDBRANCH   1   2
BRANCH   1   8
ATOM      8  C   UNL     1       2.458   4.706  19.073  0.00  0.00    +0.000 A 
ATOM      9  C   UNL     1       2.017   3.892  18.014  0.00  0.00    +0.000 A 
ATOM     10  C   UNL     1       1.131   2.834  18.234  0.00  0.00    +0.000 A 
ATOM     11  C   UNL     1       0.669   2.567  19.520  0.00  0.00    +0.000 A 
ATOM     12  C   UNL     1       1.089   3.357  20.584  0.00  0.00    +0.000 A 
ATOM     13  C   UNL     1       1.971   4.420  20.364  0.00  0.00    +0.000 A 
ENDBRANCH   1   8
BRANCH   1  14
ATOM     14  O   UNL     1       4.390   6.011  19.786  0.00  0.00    +0.000 OA
ATOM     15  H   UNL     1       3.907   6.056  20.635  0.00  0.00    +0.000 HD
ENDBRANCH   1  14
BRANCH   1  16
ATOM     16  C   UNL     1       4.048   5.685  17.444  0.00  0.00    +0.000 C 
BRANCH  16  17
ATOM     17  O   UNL     1       5.347   5.107  17.645  0.00  0.00    +0.000 OA
BRANCH  17  18
ATOM     18  C   UNL     1       5.752   4.277  16.551  0.00  0.00    +0.000 C 
BRANCH  18  19
ATOM     19  C   UNL     1       6.550   5.027  15.459  0.00  0.00    +0.000 C 
BRANCH  19  20
ATOM     20  N   UNL     1       6.789   4.239  14.228  0.00  0.00    +0.000 NA
ATOM     21  C   UNL     1       7.541   5.045  13.263  0.00  0.00    +0.000 C 
BRANCH  20  22
ATOM     22  C   UNL     1       5.514   3.761  13.684  0.00  0.00    +0.000 C 
BRANCH  22  24
ATOM     23  C   UNL     1       4.470   3.181  11.483  0.00  0.00    +0.000 C 
ATOM     24  C   UNL     1       5.561   3.445  12.219  0.00  0.00    +0.000 C 
ENDBRANCH  22  24
ENDBRANCH  20  22
ENDBRANCH  19  20
ENDBRANCH  18  19
ENDBRANCH  17  18
ENDBRANCH  16  17
ENDBRANCH   1  16
TORSDOF 10
ENDMDL
MODEL 6
REMARK VINA RESULT:      -6.8      0.247      1.438
REMARK  Name = 
REMARK  11 active torsions:
REMARK  status: ('A' for Active; 'I' for Inactive)
REMARK    1  A    between atoms: C_2  and  C_3
REMARK    2  A    between atoms: C_3  and  N_4
REMARK    3  A    between atoms: N_4  and  C_5
REMARK    4  A    between atoms: N_4  and  C_6
REMARK    5  A    between atoms: C_6  and  C_7
REMARK    6  A    between atoms: C_7  and  O_8
REMARK    7  A    between atoms: O_8  and  C_9
REMARK    8  A    between atoms: C_9  and  C_10
REMARK    9  A    between atoms: C_10  and  O_11
REMARK   10  A    between atoms: C_10  and  C_12
REMARK   11  A    between atoms: C_10  and  C_18
REMARK                            x       y       z     vdW  Elec       q    Type
REMARK                         _______ _______ _______ _____ _____    ______ ____
ROOT
ATOM      1  C   UNL     1       3.135   5.724  18.892  0.00  0.00    +0.000 C 
ENDROOT
BRANCH   1   2
ATOM      2  C   UNL     1       2.426   7.080  19.043  0.00  0.00    +0.000 A 
ATOM      3  C   UNL     1       2.209   7.951  17.960  0.00  0.00    +0.000 A 
ATOM      4  C   UNL     1       1.522   9.160  18.126  0.00  0.00    +0.000 A 
ATOM      5  C   UNL     1       1.041   9.520  19.382  0.00  0.00    +0.000 A 
ATOM      6  C   UNL     1       1.256   8.682  20.470  0.00  0.00    +0.000 A 
ATOM      7  C   UNL     1       1.939   7.475  20.303  0.00  0.00    +0.000 A 
ENDBRANCH   1   2
BRANCH   1   8
ATOM      8  C   UNL     1       2.446   4.588  19.670  0.00  0.00    +0.000 A 
ATOM      9  C   UNL     1       1.290   3.968  19.162  0.00  0.00    +0.000 A 
ATOM     10  C   UNL     1       0.593   3.014  19.908  0.00  0.00    +0.000 A 
ATOM     11  C   UNL     1       1.038   2.658  21.177  0.00  0.00    +0.000 A 
ATOM     12  C   UNL     1       2.179   3.257  21.703  0.00  0.00    +0.000 A 
ATOM     13  C   UNL     1       2.873   4.217  20.960  0.00  0.00    +0.000 A 
ENDBRANCH   1   8
BRANCH   1  14
ATOM     14  O   UNL     1       4.479   5.903  19.386  0.00  0.00    +0.000 OA
ATOM     15  H   UNL     1       5.020   5.929  18.572  0.00  0.00    +0.000 HD
ENDBRANCH   1  14
BRANCH   1  16
ATOM     16  C   UNL     1       3.291   5.223  17.429  0.00  0.00    +0.000 C 
BRANCH  16  17
ATOM     17  O   UNL     1       4.316   4.222  17.334  0.00  0.00    +0.000 OA
BRANCH  17  18
ATOM     18  C   UNL     1       4.948   4.206  16.049  0.00  0.00    +0.000 C 
BRANCH  18  19
ATOM     19  C   UNL     1       5.315   5.609  15.514  0.00  0.00    +0.000 C 
BRANCH  19  20
ATOM     20  N   UNL     1       6.770   5.866  15.423  0.00  0.00    +0.000 NA
ATOM     21  C   UNL     1       7.383   4.910  14.497  0.00  0.00    +0.000 C 
BRANCH  20  22
ATOM     22  C   UNL     1       7.373   5.815  16.759  0.00  0.00    +0.000 C 
BRANCH  22  24
ATOM     23  C   UNL     1       7.844   8.141  17.554  0.00  0.00    +0.000 C 
ATOM     24  C   UNL     1       7.097   7.028  17.595  0.00  0.00    +0.000 C 
ENDBRANCH  22  24
ENDBRANCH  20  22
ENDBRANCH  19  20
ENDBRANCH  18  19
ENDBRANCH  17  18
ENDBRANCH  16  17
ENDBRANCH   1  16
TORSDOF 10
ENDMDL
MODEL 7
REMARK VINA RESULT:      -6.8      1.326      2.430
REMARK  Name = 
REMARK  11 active torsions:
REMARK  status: ('A' for Active; 'I' for Inactive)
REMARK    1  A    between atoms: C_2  and  C_3
REMARK    2  A    between atoms: C_3  and  N_4
REMARK    3  A    between atoms: N_4  and  C_5
REMARK    4  A    between atoms: N_4  and  C_6
REMARK    5  A    between atoms: C_6  and  C_7
REMARK    6  A    between atoms: C_7  and  O_8
REMARK    7  A    between atoms: O_8  and  C_9
REMARK    8  A    between atoms: C_9  and  C_10
REMARK    9  A    between atoms: C_10  and  O_11
REMARK   10  A    between atoms: C_10  and  C_12
REMARK   11  A    between atoms: C_10  and  C_18
REMARK                            x       y       z     vdW  Elec       q    Type
REMARK                         _______ _______ _______ _____ _____    ______ ____
ROOT
ATOM      1  C   UNL     1       3.091   5.957  18.855  0.00  0.00    +0.000 C 
ENDROOT
BRANCH   1   2
ATOM      2  C   UNL     1       2.359   7.305  18.962  0.00  0.00    +0.000 A 
ATOM      3  C   UNL     1       1.786   7.768  20.160  0.00  0.00    +0.000 A 
ATOM      4  C   UNL     1       1.165   9.020  20.232  0.00  0.00    +0.000 A 
ATOM      5  C   UNL     1       1.102   9.832  19.103  0.00  0.00    +0.000 A 
ATOM      6  C   UNL     1       1.648   9.390  17.904  0.00  0.00    +0.000 A 
ATOM      7  C   UNL     1       2.271   8.141  17.833  0.00  0.00    +0.000 A 
ENDBRANCH   1   2
BRANCH   1   8
ATOM      8  C   UNL     1       2.217   4.757  19.262  0.00  0.00    +0.000 A 
ATOM      9  C   UNL     1       2.142   4.346  20.606  0.00  0.00    +0.000 A 
ATOM     10  C   UNL     1       1.442   3.194  20.973  0.00  0.00    +0.000 A 
ATOM     11  C   UNL     1       0.800   2.428  20.004  0.00  0.00    +0.000 A 
ATOM     12  C   UNL     1       0.860   2.812  18.668  0.00  0.00    +0.000 A 
ATOM     13  C   UNL     1       1.565   3.962  18.299  0.00  0.00    +0.000 A 
ENDBRANCH   1   8
BRANCH   1  14
ATOM     14  O   UNL     1       4.237   6.038  19.729  0.00  0.00    +0.000 OA
ATOM     15  H   UNL     1       4.161   6.929  20.124  0.00  0.00    +0.000 HD
ENDBRANCH   1  14
BRANCH   1  16
ATOM     16  C   UNL     1       3.661   5.628  17.447  0.00  0.00    +0.000 C 
BRANCH  16  17
ATOM     17  O   UNL     1       4.964   6.203  17.272  0.00  0.00    +0.000 OA
BRANCH  17  18
ATOM     18  C   UNL     1       5.470   6.021  15.945  0.00  0.00    +0.000 C 
BRANCH  18  19
ATOM     19  C   UNL     1       6.812   5.254  15.887  0.00  0.00    +0.000 C 
BRANCH  19  20
ATOM     20  N   UNL     1       7.023   4.489  14.637  0.00  0.00    +0.000 NA
ATOM     21  C   UNL     1       7.688   5.338  13.644  0.00  0.00    +0.000 C 
BRANCH  20  22
ATOM     22  C   UNL     1       5.745   3.958  14.151  0.00  0.00    +0.000 C 
BRANCH  22  24
ATOM     23  C   UNL     1       4.741   3.459  11.913  0.00  0.00    +0.000 C 
ATOM     24  C   UNL     1       5.796   3.451  12.742  0.00  0.00    +0.000 C 
ENDBRANCH  22  24
ENDBRANCH  20  22
ENDBRANCH  19  20
ENDBRANCH  18  19
ENDBRANCH  17  18
ENDBRANCH  16  17
ENDBRANCH   1  16
TORSDOF 10
ENDMDL
MODEL 8
REMARK VINA RESULT:      -6.8      1.134      4.491
REMARK  Name = 
REMARK  11 active torsions:
REMARK  status: ('A' for Active; 'I' for Inactive)
REMARK    1  A    between atoms: C_2  and  C_3
REMARK    2  A    between atoms: C_3  and  N_4
REMARK    3  A    between atoms: N_4  and  C_5
REMARK    4  A    between atoms: N_4  and  C_6
REMARK    5  A    between atoms: C_6  and  C_7
REMARK    6  A    between atoms: C_7  and  O_8
REMARK    7  A    between atoms: O_8  and  C_9
REMARK    8  A    between atoms: C_9  and  C_10
REMARK    9  A    between atoms: C_10  and  O_11
REMARK   10  A    between atoms: C_10  and  C_12
REMARK   11  A    between atoms: C_10  and  C_18
REMARK                            x       y       z     vdW  Elec       q    Type
REMARK                         _______ _______ _______ _____ _____    ______ ____
ROOT
ATOM      1  C   UNL     1       3.406   5.571  18.648  0.00  0.00    +0.000 C 
ENDROOT
BRANCH   1   2
ATOM      2  C   UNL     1       2.480   4.443  19.135  0.00  0.00    +0.000 A 
ATOM      3  C   UNL     1       1.669   3.694  18.264  0.00  0.00    +0.000 A 
ATOM      4  C   UNL     1       0.871   2.646  18.736  0.00  0.00    +0.000 A 
ATOM      5  C   UNL     1       0.867   2.331  20.092  0.00  0.00    +0.000 A 
ATOM      6  C   UNL     1       1.649   3.067  20.975  0.00  0.00    +0.000 A 
ATOM      7  C   UNL     1       2.448   4.111  20.502  0.00  0.00    +0.000 A 
ENDBRANCH   1   2
BRANCH   1   8
ATOM      8  C   UNL     1       2.776   6.970  18.771  0.00  0.00    +0.000 A 
ATOM      9  C   UNL     1       2.090   7.349  19.939  0.00  0.00    +0.000 A 
ATOM     10  C   UNL     1       1.420   8.572  20.022  0.00  0.00    +0.000 A 
ATOM     11  C   UNL     1       1.423   9.444  18.937  0.00  0.00    +0.000 A 
ATOM     12  C   UNL     1       2.092   9.093  17.769  0.00  0.00    +0.000 A 
ATOM     13  C   UNL     1       2.758   7.866  17.683  0.00  0.00    +0.000 A 
ENDBRANCH   1   8
BRANCH   1  14
ATOM     14  O   UNL     1       3.701   5.294  17.262  0.00  0.00    +0.000 OA
ATOM     15  H   UNL     1       4.376   5.964  17.034  0.00  0.00    +0.000 HD
ENDBRANCH   1  14
BRANCH   1  16
ATOM     16  C   UNL     1       4.784   5.645  19.362  0.00  0.00    +0.000 C 
BRANCH  16  17
ATOM     17  O   UNL     1       5.568   4.473  19.092  0.00  0.00    +0.000 OA
BRANCH  17  18
ATOM     18  C   UNL     1       6.840   4.785  18.514  0.00  0.00    +0.000 C 
BRANCH  18  19
ATOM     19  C   UNL     1       6.936   4.463  17.004  0.00  0.00    +0.000 C 
BRANCH  19  20
ATOM     20  N   UNL     1       7.415   5.588  16.170  0.00  0.00    +0.000 NA
ATOM     21  C   UNL     1       6.941   6.856  16.732  0.00  0.00    +0.000 C 
BRANCH  20  22
ATOM     22  C   UNL     1       6.988   5.399  14.779  0.00  0.00    +0.000 C 
BRANCH  22  24
ATOM     23  C   UNL     1       5.974   3.644  13.310  0.00  0.00    +0.000 C 
ATOM     24  C   UNL     1       6.278   4.102  14.534  0.00  0.00    +0.000 C 
ENDBRANCH  22  24
ENDBRANCH  20  22
ENDBRANCH  19  20
ENDBRANCH  18  19
ENDBRANCH  17  18
ENDBRANCH  16  17
ENDBRANCH   1  16
TORSDOF 10
ENDMDL
MODEL 9
REMARK VINA RESULT:      -6.7      0.898      1.542
REMARK  Name = 
REMARK  11 active torsions:
REMARK  status: ('A' for Active; 'I' for Inactive)
REMARK    1  A    between atoms: C_2  and  C_3
REMARK    2  A    between atoms: C_3  and  N_4
REMARK    3  A    between atoms: N_4  and  C_5
REMARK    4  A    between atoms: N_4  and  C_6
REMARK    5  A    between atoms: C_6  and  C_7
REMARK    6  A    between atoms: C_7  and  O_8
REMARK    7  A    between atoms: O_8  and  C_9
REMARK    8  A    between atoms: C_9  and  C_10
REMARK    9  A    between atoms: C_10  and  O_11
REMARK   10  A    between atoms: C_10  and  C_12
REMARK   11  A    between atoms: C_10  and  C_18
REMARK                            x       y       z     vdW  Elec       q    Type
REMARK                         _______ _______ _______ _____ _____    ______ ____
ROOT
ATOM      1  C   UNL     1       3.138   5.989  18.915  0.00  0.00    +0.000 C 
ENDROOT
BRANCH   1   2
ATOM      2  C   UNL     1       2.340   7.256  19.266  0.00  0.00    +0.000 A 
ATOM      3  C   UNL     1       2.122   8.297  18.346  0.00  0.00    +0.000 A 
ATOM      4  C   UNL     1       1.354   9.418  18.686  0.00  0.00    +0.000 A 
ATOM      5  C   UNL     1       0.793   9.518  19.956  0.00  0.00    +0.000 A 
ATOM      6  C   UNL     1       1.007   8.508  20.887  0.00  0.00    +0.000 A 
ATOM      7  C   UNL     1       1.771   7.388  20.546  0.00  0.00    +0.000 A 
ENDBRANCH   1   2
BRANCH   1   8
ATOM      8  C   UNL     1       2.392   4.686  19.259  0.00  0.00    +0.000 A 
ATOM      9  C   UNL     1       2.725   3.951  20.411  0.00  0.00    +0.000 A 
ATOM     10  C   UNL     1       2.134   2.713  20.676  0.00  0.00    +0.000 A 
ATOM     11  C   UNL     1       1.195   2.184  19.794  0.00  0.00    +0.000 A 
ATOM     12  C   UNL     1       0.849   2.891  18.647  0.00  0.00    +0.000 A 
ATOM     13  C   UNL     1       1.445   4.127  18.378  0.00  0.00    +0.000 A 
ENDBRANCH   1   8
BRANCH   1  14
ATOM     14  O   UNL     1       4.368   6.053  19.667  0.00  0.00    +0.000 OA
ATOM     15  H   UNL     1       4.658   5.121  19.710  0.00  0.00    +0.000 HD
ENDBRANCH   1  14
BRANCH   1  16
ATOM     16  C   UNL     1       3.564   5.871  17.425  0.00  0.00    +0.000 C 
BRANCH  16  17
ATOM     17  O   UNL     1       4.329   4.677  17.201  0.00  0.00    +0.000 OA
BRANCH  17  18
ATOM     18  C   UNL     1       5.148   4.763  16.029  0.00  0.00    +0.000 C 
BRANCH  18  19
ATOM     19  C   UNL     1       6.530   4.088  16.182  0.00  0.00    +0.000 C 
BRANCH  19  20
ATOM     20  N   UNL     1       7.587   4.977  16.715  0.00  0.00    +0.000 NA
ATOM     21  C   UNL     1       7.891   4.609  18.100  0.00  0.00    +0.000 C 
BRANCH  20  22
ATOM     22  C   UNL     1       7.175   6.379  16.587  0.00  0.00    +0.000 C 
BRANCH  22  24
ATOM     23  C   UNL     1       8.048   8.400  17.778  0.00  0.00    +0.000 C 
ATOM     24  C   UNL     1       7.444   7.203  17.810  0.00  0.00    +0.000 C 
ENDBRANCH  22  24
ENDBRANCH  20  22
ENDBRANCH  19  20
ENDBRANCH  18  19
ENDBRANCH  17  18
ENDBRANCH  16  17
ENDBRANCH   1  16
TORSDOF 10
ENDMDL
