MODEL 1
REMARK VINA RESULT:      -8.1      0.000      0.000
REMARK  Name = 
REMARK  6 active torsions:
REMARK  status: ('A' for Active; 'I' for Inactive)
REMARK    1  A    between atoms: N_1  and  S_2
REMARK    2  A    between atoms: S_2  and  C_5
REMARK    3  A    between atoms: C_8  and  N_9
REMARK    4  A    between atoms: C_11  and  C_12
REMARK    5  A    between atoms: C_17  and  C_18
REMARK    6  A    between atoms: C_21  and  O_22
REMARK                            x       y       z     vdW  Elec       q    Type
REMARK                         _______ _______ _______ _____ _____    ______ ____
ROOT
ATOM      1  N   UNL     1       5.298   4.262  15.859  0.00  0.00    +0.000 N 
ATOM      2  N   UNL     1       5.157   3.409  14.811  0.00  0.00    +0.000 NA
ATOM      3  C   UNL     1       5.923   3.926  13.834  0.00  0.00    +0.000 A 
ATOM      4  C   UNL     1       6.708   4.995  14.331  0.00  0.00    +0.000 A 
ATOM      5  C   UNL     1       6.360   5.149  15.664  0.00  0.00    +0.000 A 
ENDROOT
BRANCH   1   9
ATOM      6  C   UNL     1       2.710   4.044  19.172  0.00  0.00    +0.000 A 
ATOM      7  C   UNL     1       3.306   2.877  18.686  0.00  0.00    +0.000 A 
ATOM      8  C   UNL     1       4.134   2.944  17.560  0.00  0.00    +0.000 A 
ATOM      9  C   UNL     1       4.381   4.183  16.945  0.00  0.00    +0.000 A 
ATOM     10  C   UNL     1       3.728   5.333  17.405  0.00  0.00    +0.000 A 
ATOM     11  C   UNL     1       2.896   5.266  18.520  0.00  0.00    +0.000 A 
BRANCH   6  12
ATOM     12  S   UNL     1       1.673   4.003  20.605  0.00  0.00    +0.000 S 
ATOM     13  O   UNL     1       1.115   5.313  20.826  0.00  0.00    +0.000 OA
ATOM     14  O   UNL     1       2.337   3.254  21.649  0.00  0.00    +0.000 OA
BRANCH  12  15
ATOM     15  N   UNL     1       0.408   3.035  20.076  0.00  0.00    +0.000 NA
ATOM     16  H   UNL     1       0.749   2.393  19.360  0.00  0.00    +0.000 HD
ATOM     17  H   UNL     1      -0.376   3.611  19.771  0.00  0.00    +0.000 HD
ENDBRANCH  12  15
ENDBRANCH   6  12
ENDBRANCH   1   9
BRANCH   5  18
ATOM     18  C   UNL     1       6.987   6.014  16.676  0.00  0.00    +0.000 A 
ATOM     19  C   UNL     1       7.517   5.465  17.855  0.00  0.00    +0.000 A 
ATOM     20  C   UNL     1       8.145   6.275  18.810  0.00  0.00    +0.000 A 
ATOM     21  C   UNL     1       8.254   7.642  18.585  0.00  0.00    +0.000 A 
ATOM     22  C   UNL     1       7.721   8.212  17.438  0.00  0.00    +0.000 A 
ATOM     23  C   UNL     1       7.063   7.407  16.506  0.00  0.00    +0.000 A 
BRANCH  21  24
ATOM     24  O   UNL     1       8.877   8.467  19.470  0.00  0.00    +0.000 OA
ATOM     25  H   UNL     1       9.837   8.377  19.362  0.00  0.00    +0.000 HD
ENDBRANCH  21  24
ENDBRANCH   5  18
BRANCH   3  26
ATOM     26  C   UNL     1       5.939   3.401  12.422  0.00  0.00    +0.000 C 
ATOM     27  F   UNL     1       6.066   2.052  12.337  0.00  0.00    +0.000 F 
ATOM     28  F   UNL     1       4.792   3.727  11.765  0.00  0.00    +0.000 F 
ATOM     29  F   UNL     1       6.958   3.941  11.699  0.00  0.00    +0.000 F 
ENDBRANCH   3  26
TORSDOF 6
ENDMDL
MODEL 2
REMARK VINA RESULT:      -8.0      0.326      1.007
REMARK  Name = 
REMARK  6 active torsions:
REMARK  status: ('A' for Active; 'I' for Inactive)
REMARK    1  A    between atoms: N_1  and  S_2
REMARK    2  A    between atoms: S_2  and  C_5
REMARK    3  A    between atoms: C_8  and  N_9
REMARK    4  A    between atoms: C_11  and  C_12
REMARK    5  A    between atoms: C_17  and  C_18
REMARK    6  A    between atoms: C_21  and  O_22
REMARK                            x       y       z     vdW  Elec       q    Type
REMARK                         _______ _______ _______ _____ _____    ______ ____
ROOT
ATOM      1  N   UNL     1       5.329   4.152  15.842  0.00  0.00    +0.000 N 
ATOM      2  N   UNL     1       5.196   3.320  14.776  0.00  0.00    +0.000 NA
ATOM      3  C   UNL     1       5.926   3.886  13.798  0.00  0.00    +0.000 A 
ATOM      4  C   UNL     1       6.686   4.968  14.307  0.00  0.00    +0.000 A 
ATOM      5  C   UNL     1       6.358   5.078  15.650  0.00  0.00    +0.000 A 
ENDROOT
BRANCH   1   9
ATOM      6  C   UNL     1       2.570   3.736  18.993  0.00  0.00    +0.000 A 
ATOM      7  C   UNL     1       2.803   5.000  18.445  0.00  0.00    +0.000 A 
ATOM      8  C   UNL     1       3.751   5.144  17.425  0.00  0.00    +0.000 A 
ATOM      9  C   UNL     1       4.437   4.017  16.943  0.00  0.00    +0.000 A 
ATOM     10  C   UNL     1       4.238   2.768  17.544  0.00  0.00    +0.000 A 
ATOM     11  C   UNL     1       3.303   2.625  18.565  0.00  0.00    +0.000 A 
BRANCH   6  12
ATOM     12  S   UNL     1       1.365   3.509  20.270  0.00  0.00    +0.000 S 
ATOM     13  O   UNL     1       0.798   4.786  20.622  0.00  0.00    +0.000 OA
ATOM     14  O   UNL     1       1.891   2.592  21.258  0.00  0.00    +0.000 OA
BRANCH  12  15
ATOM     15  N   UNL     1       0.165   2.669  19.453  0.00  0.00    +0.000 NA
ATOM     16  H   UNL     1       0.047   3.066  18.521  0.00  0.00    +0.000 HD
ATOM     17  H   UNL     1      -0.694   2.652  20.003  0.00  0.00    +0.000 HD
ENDBRANCH  12  15
ENDBRANCH   6  12
ENDBRANCH   1   9
BRANCH   5  18
ATOM     18  C   UNL     1       6.976   5.940  16.671  0.00  0.00    +0.000 A 
ATOM     19  C   UNL     1       7.516   5.383  17.841  0.00  0.00    +0.000 A 
ATOM     20  C   UNL     1       8.136   6.190  18.805  0.00  0.00    +0.000 A 
ATOM     21  C   UNL     1       8.225   7.561  18.596  0.00  0.00    +0.000 A 
ATOM     22  C   UNL     1       7.682   8.138  17.459  0.00  0.00    +0.000 A 
ATOM     23  C   UNL     1       7.032   7.335  16.518  0.00  0.00    +0.000 A 
BRANCH  21  24
ATOM     24  O   UNL     1       8.839   8.384  19.491  0.00  0.00    +0.000 OA
ATOM     25  H   UNL     1       8.940   9.262  19.092  0.00  0.00    +0.000 HD
ENDBRANCH  21  24
ENDBRANCH   5  18
BRANCH   3  26
ATOM     26  C   UNL     1       5.932   3.396  12.374  0.00  0.00    +0.000 C 
ATOM     27  F   UNL     1       6.080   2.051  12.254  0.00  0.00    +0.000 F 
ATOM     28  F   UNL     1       4.772   3.719  11.739  0.00  0.00    +0.000 F 
ATOM     29  F   UNL     1       6.933   3.969  11.652  0.00  0.00    +0.000 F 
ENDBRANCH   3  26
TORSDOF 6
ENDMDL
MODEL 3
REMARK VINA RESULT:      -7.8      3.468      5.762
REMARK  Name = 
REMARK  6 active torsions:
REMARK  status: ('A' for Active; 'I' for Inactive)
REMARK    1  A    between atoms: N_1  and  S_2
REMARK    2  A    between atoms: S_2  and  C_5
REMARK    3  A    between atoms: C_8  and  N_9
REMARK    4  A    between atoms: C_11  and  C_12
REMARK    5  A    between atoms: C_17  and  C_18
REMARK    6  A    between atoms: C_21  and  O_22
REMARK                            x       y       z     vdW  Elec       q    Type
REMARK                         _______ _______ _______ _____ _____    ______ ____
ROOT
ATOM      1  N   UNL     1       3.676   5.702  17.774  0.00  0.00    +0.000 N 
ATOM      2  N   UNL     1       4.357   5.844  16.607  0.00  0.00    +0.000 NA
ATOM      3  C   UNL     1       5.131   4.747  16.517  0.00  0.00    +0.000 A 
ATOM      4  C   UNL     1       4.788   3.814  17.527  0.00  0.00    +0.000 A 
ATOM      5  C   UNL     1       3.787   4.404  18.281  0.00  0.00    +0.000 A 
ENDROOT
BRANCH   1   9
ATOM      6  C   UNL     1       1.555   8.976  19.353  0.00  0.00    +0.000 A 
ATOM      7  C   UNL     1       2.030   9.033  18.039  0.00  0.00    +0.000 A 
ATOM      8  C   UNL     1       2.770   7.960  17.529  0.00  0.00    +0.000 A 
ATOM      9  C   UNL     1       3.006   6.828  18.327  0.00  0.00    +0.000 A 
ATOM     10  C   UNL     1       2.578   6.813  19.661  0.00  0.00    +0.000 A 
ATOM     11  C   UNL     1       1.850   7.884  20.173  0.00  0.00    +0.000 A 
BRANCH   6  12
ATOM     12  S   UNL     1       0.599  10.304  20.029  0.00  0.00    +0.000 S 
ATOM     13  O   UNL     1       1.094  10.626  21.343  0.00  0.00    +0.000 OA
ATOM     14  O   UNL     1      -0.802  10.060  19.763  0.00  0.00    +0.000 OA
BRANCH  12  15
ATOM     15  N   UNL     1       1.042  11.578  19.031  0.00  0.00    +0.000 NA
ATOM     16  H   UNL     1       0.260  12.226  18.941  0.00  0.00    +0.000 HD
ATOM     17  H   UNL     1       1.389  11.226  18.139  0.00  0.00    +0.000 HD
ENDBRANCH  12  15
ENDBRANCH   6  12
ENDBRANCH   1   9
BRANCH   5  18
ATOM     18  C   UNL     1       2.977   3.801  19.352  0.00  0.00    +0.000 A 
ATOM     19  C   UNL     1       3.594   3.227  20.475  0.00  0.00    +0.000 A 
ATOM     20  C   UNL     1       2.832   2.679  21.516  0.00  0.00    +0.000 A 
ATOM     21  C   UNL     1       1.445   2.711  21.441  0.00  0.00    +0.000 A 
ATOM     22  C   UNL     1       0.812   3.254  20.334  0.00  0.00    +0.000 A 
ATOM     23  C   UNL     1       1.575   3.766  19.281  0.00  0.00    +0.000 A 
BRANCH  21  24
ATOM     24  O   UNL     1       0.662   2.214  22.437  0.00  0.00    +0.000 OA
ATOM     25  H   UNL     1      -0.252   2.152  22.117  0.00  0.00    +0.000 HD
ENDBRANCH  21  24
ENDBRANCH   5  18
BRANCH   3  26
ATOM     26  C   UNL     1       6.189   4.558  15.463  0.00  0.00    +0.000 C 
ATOM     27  F   UNL     1       6.057   3.410  14.749  0.00  0.00    +0.000 F 
ATOM     28  F   UNL     1       6.173   5.580  14.563  0.00  0.00    +0.000 F 
ATOM     29  F   UNL     1       7.438   4.547  16.002  0.00  0.00    +0.000 F 
ENDBRANCH   3  26
TORSDOF 6
ENDMDL
MODEL 4
REMARK VINA RESULT:      -7.8      0.735      1.497
REMARK  Name = 
REMARK  6 active torsions:
REMARK  status: ('A' for Active; 'I' for Inactive)
REMARK    1  A    between atoms: N_1  and  S_2
REMARK    2  A    between atoms: S_2  and  C_5
REMARK    3  A    between atoms: C_8  and  N_9
REMARK    4  A    between atoms: C_11  and  C_12
REMARK    5  A    between atoms: C_17  and  C_18
REMARK    6  A    between atoms: C_21  and  O_22
REMARK                            x       y       z     vdW  Elec       q    Type
REMARK                         _______ _______ _______ _____ _____    ______ ____
ROOT
ATOM      1  N   UNL     1       5.374   4.215  15.825  0.00  0.00    +0.000 N 
ATOM      2  N   UNL     1       5.250   3.373  14.765  0.00  0.00    +0.000 NA
ATOM      3  C   UNL     1       6.006   3.918  13.795  0.00  0.00    +0.000 A 
ATOM      4  C   UNL     1       6.770   4.996  14.307  0.00  0.00    +0.000 A 
ATOM      5  C   UNL     1       6.419   5.125  15.642  0.00  0.00    +0.000 A 
ENDROOT
BRANCH   1   9
ATOM      6  C   UNL     1       2.552   3.858  18.926  0.00  0.00    +0.000 A 
ATOM      7  C   UNL     1       2.753   5.100  18.318  0.00  0.00    +0.000 A 
ATOM      8  C   UNL     1       3.720   5.227  17.315  0.00  0.00    +0.000 A 
ATOM      9  C   UNL     1       4.459   4.103  16.909  0.00  0.00    +0.000 A 
ATOM     10  C   UNL     1       4.291   2.880  17.571  0.00  0.00    +0.000 A 
ATOM     11  C   UNL     1       3.335   2.755  18.576  0.00  0.00    +0.000 A 
BRANCH   6  12
ATOM     12  S   UNL     1       1.324   3.652  20.185  0.00  0.00    +0.000 S 
ATOM     13  O   UNL     1       0.296   2.763  19.707  0.00  0.00    +0.000 OA
ATOM     14  O   UNL     1       1.027   4.942  20.771  0.00  0.00    +0.000 OA
BRANCH  12  15
ATOM     15  N   UNL     1       2.179   2.802  21.351  0.00  0.00    +0.000 NA
ATOM     16  H   UNL     1       2.796   2.129  20.896  0.00  0.00    +0.000 HD
ATOM     17  H   UNL     1       1.539   2.382  22.025  0.00  0.00    +0.000 HD
ENDBRANCH  12  15
ENDBRANCH   6  12
ENDBRANCH   1   9
BRANCH   5  18
ATOM     18  C   UNL     1       7.028   5.990  16.666  0.00  0.00    +0.000 A 
ATOM     19  C   UNL     1       7.519   5.441  17.861  0.00  0.00    +0.000 A 
ATOM     20  C   UNL     1       8.131   6.250  18.828  0.00  0.00    +0.000 A 
ATOM     21  C   UNL     1       8.261   7.614  18.599  0.00  0.00    +0.000 A 
ATOM     22  C   UNL     1       7.767   8.183  17.435  0.00  0.00    +0.000 A 
ATOM     23  C   UNL     1       7.125   7.380  16.490  0.00  0.00    +0.000 A 
BRANCH  21  24
ATOM     24  O   UNL     1       8.870   8.438  19.496  0.00  0.00    +0.000 OA
ATOM     25  H   UNL     1       8.702   9.359  19.242  0.00  0.00    +0.000 HD
ENDBRANCH  21  24
ENDBRANCH   5  18
BRANCH   3  26
ATOM     26  C   UNL     1       6.034   3.413  12.377  0.00  0.00    +0.000 C 
ATOM     27  F   UNL     1       6.946   4.035  11.587  0.00  0.00    +0.000 F 
ATOM     28  F   UNL     1       6.325   2.084  12.336  0.00  0.00    +0.000 F 
ATOM     29  F   UNL     1       4.824   3.556  11.771  0.00  0.00    +0.000 F 
ENDBRANCH   3  26
TORSDOF 6
ENDMDL
MODEL 5
REMARK VINA RESULT:      -7.8      3.399      5.723
REMARK  Name = 
REMARK  6 active torsions:
REMARK  status: ('A' for Active; 'I' for Inactive)
REMARK    1  A    between atoms: N_1  and  S_2
REMARK    2  A    between atoms: S_2  and  C_5
REMARK    3  A    between atoms: C_8  and  N_9
REMARK    4  A    between atoms: C_11  and  C_12
REMARK    5  A    between atoms: C_17  and  C_18
REMARK    6  A    between atoms: C_21  and  O_22
REMARK                            x       y       z     vdW  Elec       q    Type
REMARK                         _______ _______ _______ _____ _____    ______ ____
ROOT
ATOM      1  N   UNL     1       3.714   5.701  17.746  0.00  0.00    +0.000 N 
ATOM      2  N   UNL     1       4.404   5.837  16.584  0.00  0.00    +0.000 NA
ATOM      3  C   UNL     1       5.186   4.745  16.512  0.00  0.00    +0.000 A 
ATOM      4  C   UNL     1       4.841   3.819  17.528  0.00  0.00    +0.000 A 
ATOM      5  C   UNL     1       3.829   4.410  18.268  0.00  0.00    +0.000 A 
ENDROOT
BRANCH   1   9
ATOM      6  C   UNL     1       1.557   8.975  19.277  0.00  0.00    +0.000 A 
ATOM      7  C   UNL     1       2.013   9.009  17.957  0.00  0.00    +0.000 A 
ATOM      8  C   UNL     1       2.765   7.937  17.461  0.00  0.00    +0.000 A 
ATOM      9  C   UNL     1       3.031   6.829  18.282  0.00  0.00    +0.000 A 
ATOM     10  C   UNL     1       2.621   6.837  19.621  0.00  0.00    +0.000 A 
ATOM     11  C   UNL     1       1.881   7.907  20.119  0.00  0.00    +0.000 A 
BRANCH   6  12
ATOM     12  S   UNL     1       0.586  10.301  19.935  0.00  0.00    +0.000 S 
ATOM     13  O   UNL     1      -0.804  10.067  19.637  0.00  0.00    +0.000 OA
ATOM     14  O   UNL     1       1.244  11.557  19.647  0.00  0.00    +0.000 OA
BRANCH  12  15
ATOM     15  N   UNL     1       0.762  10.057  21.586  0.00  0.00    +0.000 NA
ATOM     16  H   UNL     1       0.090   9.356  21.899  0.00  0.00    +0.000 HD
ATOM     17  H   UNL     1       0.691  10.944  22.085  0.00  0.00    +0.000 HD
ENDBRANCH  12  15
ENDBRANCH   6  12
ENDBRANCH   1   9
BRANCH   5  18
ATOM     18  C   UNL     1       3.014   3.812  19.338  0.00  0.00    +0.000 A 
ATOM     19  C   UNL     1       3.627   3.222  20.455  0.00  0.00    +0.000 A 
ATOM     20  C   UNL     1       2.860   2.679  21.495  0.00  0.00    +0.000 A 
ATOM     21  C   UNL     1       1.473   2.731  21.425  0.00  0.00    +0.000 A 
ATOM     22  C   UNL     1       0.845   3.290  20.323  0.00  0.00    +0.000 A 
ATOM     23  C   UNL     1       1.611   3.797  19.271  0.00  0.00    +0.000 A 
BRANCH  21  24
ATOM     24  O   UNL     1       0.686   2.240  22.421  0.00  0.00    +0.000 OA
ATOM     25  H   UNL     1       0.666   1.272  22.357  0.00  0.00    +0.000 HD
ENDBRANCH  21  24
ENDBRANCH   5  18
BRANCH   3  26
ATOM     26  C   UNL     1       6.254   4.552  15.468  0.00  0.00    +0.000 C 
ATOM     27  F   UNL     1       7.516   4.520  15.970  0.00  0.00    +0.000 F 
ATOM     28  F   UNL     1       6.074   3.384  14.792  0.00  0.00    +0.000 F 
ATOM     29  F   UNL     1       6.225   5.540  14.533  0.00  0.00    +0.000 F 
ENDBRANCH   3  26
TORSDOF 6
ENDMDL
MODEL 6
REMARK VINA RESULT:      -7.7      3.481      5.839
REMARK  Name = 
REMARK  6 active torsions:
REMARK  status: ('A' for Active; 'I' for Inactive)
REMARK    1  A    between atoms: N_1  and  S_2
REMARK    2  A    between atoms: S_2  and  C_5
REMARK    3  A    between atoms: C_8  and  N_9
REMARK    4  A    between atoms: C_11  and  C_12
REMARK    5  A    between atoms: C_17  and  C_18
REMARK    6  A    between atoms: C_21  and  O_22
REMARK                            x       y       z     vdW  Elec       q    Type
REMARK                         _______ _______ _______ _____ _____    ______ ____
ROOT
ATOM      1  N   UNL     1       3.638   5.773  17.783  0.00  0.00    +0.000 N 
ATOM      2  N   UNL     1       4.321   5.889  16.614  0.00  0.00    +0.000 NA
ATOM      3  C   UNL     1       5.091   4.787  16.548  0.00  0.00    +0.000 A 
ATOM      4  C   UNL     1       4.743   3.876  17.576  0.00  0.00    +0.000 A 
ATOM      5  C   UNL     1       3.744   4.487  18.318  0.00  0.00    +0.000 A 
ENDROOT
BRANCH   1   9
ATOM      6  C   UNL     1       1.530   9.089  19.291  0.00  0.00    +0.000 A 
ATOM      7  C   UNL     1       2.004   9.115  17.977  0.00  0.00    +0.000 A 
ATOM      8  C   UNL     1       2.740   8.029  17.490  0.00  0.00    +0.000 A 
ATOM      9  C   UNL     1       2.972   6.914  18.312  0.00  0.00    +0.000 A 
ATOM     10  C   UNL     1       2.545   6.929  19.646  0.00  0.00    +0.000 A 
ATOM     11  C   UNL     1       1.821   8.013  20.135  0.00  0.00    +0.000 A 
BRANCH   6  12
ATOM     12  S   UNL     1       0.578  10.434  19.939  0.00  0.00    +0.000 S 
ATOM     13  O   UNL     1      -0.823  10.103  19.869  0.00  0.00    +0.000 OA
ATOM     14  O   UNL     1       1.110  11.679  19.428  0.00  0.00    +0.000 OA
BRANCH  12  15
ATOM     15  N   UNL     1       0.993  10.386  21.564  0.00  0.00    +0.000 NA
ATOM     16  H   UNL     1       1.736   9.701  21.704  0.00  0.00    +0.000 HD
ATOM     17  H   UNL     1       0.167  10.219  22.137  0.00  0.00    +0.000 HD
ENDBRANCH  12  15
ENDBRANCH   6  12
ENDBRANCH   1   9
BRANCH   5  18
ATOM     18  C   UNL     1       2.930   3.909  19.400  0.00  0.00    +0.000 A 
ATOM     19  C   UNL     1       1.536   3.807  19.268  0.00  0.00    +0.000 A 
ATOM     20  C   UNL     1       0.756   3.229  20.279  0.00  0.00    +0.000 A 
ATOM     21  C   UNL     1       1.371   2.742  21.426  0.00  0.00    +0.000 A 
ATOM     22  C   UNL     1       2.743   2.849  21.589  0.00  0.00    +0.000 A 
ATOM     23  C   UNL     1       3.513   3.459  20.596  0.00  0.00    +0.000 A 
BRANCH  21  24
ATOM     24  O   UNL     1       0.659   2.150  22.424  0.00  0.00    +0.000 OA
ATOM     25  H   UNL     1       0.411   2.825  23.076  0.00  0.00    +0.000 HD
ENDBRANCH  21  24
ENDBRANCH   5  18
BRANCH   3  26
ATOM     26  C   UNL     1       6.149   4.572  15.499  0.00  0.00    +0.000 C 
ATOM     27  F   UNL     1       6.103   3.348  14.912  0.00  0.00    +0.000 F 
ATOM     28  F   UNL     1       6.039   5.488  14.497  0.00  0.00    +0.000 F 
ATOM     29  F   UNL     1       7.401   4.718  16.011  0.00  0.00    +0.000 F 
ENDBRANCH   3  26
TORSDOF 6
ENDMDL
MODEL 7
REMARK VINA RESULT:      -7.7      3.507      5.816
REMARK  Name = 
REMARK  6 active torsions:
REMARK  status: ('A' for Active; 'I' for Inactive)
REMARK    1  A    between atoms: N_1  and  S_2
REMARK    2  A    between atoms: S_2  and  C_5
REMARK    3  A    between atoms: C_8  and  N_9
REMARK    4  A    between atoms: C_11  and  C_12
REMARK    5  A    between atoms: C_17  and  C_18
REMARK    6  A    between atoms: C_21  and  O_22
REMARK                            x       y       z     vdW  Elec       q    Type
REMARK                         _______ _______ _______ _____ _____    ______ ____
ROOT
ATOM      1  N   UNL     1       3.625   5.704  17.810  0.00  0.00    +0.000 N 
ATOM      2  N   UNL     1       4.338   5.849  16.662  0.00  0.00    +0.000 NA
ATOM      3  C   UNL     1       5.175   4.795  16.635  0.00  0.00    +0.000 A 
ATOM      4  C   UNL     1       4.848   3.875  17.662  0.00  0.00    +0.000 A 
ATOM      5  C   UNL     1       3.789   4.431  18.362  0.00  0.00    +0.000 A 
ENDROOT
BRANCH   1   9
ATOM      6  C   UNL     1       1.539   9.035  19.314  0.00  0.00    +0.000 A 
ATOM      7  C   UNL     1       1.842   7.970  20.167  0.00  0.00    +0.000 A 
ATOM      8  C   UNL     1       2.499   6.846  19.656  0.00  0.00    +0.000 A 
ATOM      9  C   UNL     1       2.873   6.807  18.303  0.00  0.00    +0.000 A 
ATOM     10  C   UNL     1       2.508   7.854  17.447  0.00  0.00    +0.000 A 
ATOM     11  C   UNL     1       1.845   8.970  17.952  0.00  0.00    +0.000 A 
BRANCH   6  12
ATOM     12  S   UNL     1       0.726  10.484  19.925  0.00  0.00    +0.000 S 
ATOM     13  O   UNL     1      -0.700  10.311  19.819  0.00  0.00    +0.000 OA
ATOM     14  O   UNL     1       1.408  11.657  19.421  0.00  0.00    +0.000 OA
BRANCH  12  15
ATOM     15  N   UNL     1       1.090  10.407  21.562  0.00  0.00    +0.000 NA
ATOM     16  H   UNL     1       1.154  11.352  21.940  0.00  0.00    +0.000 HD
ATOM     17  H   UNL     1       1.929   9.847  21.713  0.00  0.00    +0.000 HD
ENDBRANCH  12  15
ENDBRANCH   6  12
ENDBRANCH   1   9
BRANCH   5  18
ATOM     18  C   UNL     1       2.976   3.816  19.424  0.00  0.00    +0.000 A 
ATOM     19  C   UNL     1       3.591   3.220  20.538  0.00  0.00    +0.000 A 
ATOM     20  C   UNL     1       2.826   2.660  21.570  0.00  0.00    +0.000 A 
ATOM     21  C   UNL     1       1.439   2.702  21.497  0.00  0.00    +0.000 A 
ATOM     22  C   UNL     1       0.809   3.267  20.398  0.00  0.00    +0.000 A 
ATOM     23  C   UNL     1       1.574   3.790  19.354  0.00  0.00    +0.000 A 
BRANCH  21  24
ATOM     24  O   UNL     1       0.653   2.194  22.486  0.00  0.00    +0.000 OA
ATOM     25  H   UNL     1       1.091   2.337  23.340  0.00  0.00    +0.000 HD
ENDBRANCH  21  24
ENDBRANCH   5  18
BRANCH   3  26
ATOM     26  C   UNL     1       6.278   4.634  15.623  0.00  0.00    +0.000 C 
ATOM     27  F   UNL     1       6.343   5.640  14.713  0.00  0.00    +0.000 F 
ATOM     28  F   UNL     1       7.496   4.579  16.230  0.00  0.00    +0.000 F 
ATOM     29  F   UNL     1       6.150   3.474  14.923  0.00  0.00    +0.000 F 
ENDBRANCH   3  26
TORSDOF 6
ENDMDL
MODEL 8
REMARK VINA RESULT:      -7.6      3.459      5.847
REMARK  Name = 
REMARK  6 active torsions:
REMARK  status: ('A' for Active; 'I' for Inactive)
REMARK    1  A    between atoms: N_1  and  S_2
REMARK    2  A    between atoms: S_2  and  C_5
REMARK    3  A    between atoms: C_8  and  N_9
REMARK    4  A    between atoms: C_11  and  C_12
REMARK    5  A    between atoms: C_17  and  C_18
REMARK    6  A    between atoms: C_21  and  O_22
REMARK                            x       y       z     vdW  Elec       q    Type
REMARK                         _______ _______ _______ _____ _____    ______ ____
ROOT
ATOM      1  N   UNL     1       3.691   5.729  17.776  0.00  0.00    +0.000 N 
ATOM      2  N   UNL     1       4.400   5.835  16.621  0.00  0.00    +0.000 NA
ATOM      3  C   UNL     1       5.189   4.745  16.595  0.00  0.00    +0.000 A 
ATOM      4  C   UNL     1       4.831   3.847  17.631  0.00  0.00    +0.000 A 
ATOM      5  C   UNL     1       3.804   4.454  18.337  0.00  0.00    +0.000 A 
ENDROOT
BRANCH   1   9
ATOM      6  C   UNL     1       1.492   9.034  19.174  0.00  0.00    +0.000 A 
ATOM      7  C   UNL     1       1.973   9.033  17.862  0.00  0.00    +0.000 A 
ATOM      8  C   UNL     1       2.738   7.952  17.411  0.00  0.00    +0.000 A 
ATOM      9  C   UNL     1       2.993   6.868  18.267  0.00  0.00    +0.000 A 
ATOM     10  C   UNL     1       2.559   6.912  19.598  0.00  0.00    +0.000 A 
ATOM     11  C   UNL     1       1.805   7.992  20.051  0.00  0.00    +0.000 A 
BRANCH   6  12
ATOM     12  S   UNL     1       0.503  10.374  19.776  0.00  0.00    +0.000 S 
ATOM     13  O   UNL     1       1.307  11.567  19.841  0.00  0.00    +0.000 OA
ATOM     14  O   UNL     1      -0.292   9.910  20.893  0.00  0.00    +0.000 OA
BRANCH  12  15
ATOM     15  N   UNL     1      -0.570  10.596  18.506  0.00  0.00    +0.000 NA
ATOM     16  H   UNL     1      -0.411   9.878  17.798  0.00  0.00    +0.000 HD
ATOM     17  H   UNL     1      -0.503  11.548  18.147  0.00  0.00    +0.000 HD
ENDBRANCH  12  15
ENDBRANCH   6  12
ENDBRANCH   1   9
BRANCH   5  18
ATOM     18  C   UNL     1       2.974   3.883  19.410  0.00  0.00    +0.000 A 
ATOM     19  C   UNL     1       1.584   3.766  19.250  0.00  0.00    +0.000 A 
ATOM     20  C   UNL     1       0.789   3.193  20.252  0.00  0.00    +0.000 A 
ATOM     21  C   UNL     1       1.384   2.728  21.418  0.00  0.00    +0.000 A 
ATOM     22  C   UNL     1       2.752   2.851  21.609  0.00  0.00    +0.000 A 
ATOM     23  C   UNL     1       3.536   3.455  20.624  0.00  0.00    +0.000 A 
BRANCH  21  24
ATOM     24  O   UNL     1       0.657   2.142  22.410  0.00  0.00    +0.000 OA
ATOM     25  H   UNL     1       0.027   2.790  22.763  0.00  0.00    +0.000 HD
ENDBRANCH  21  24
ENDBRANCH   5  18
BRANCH   3  26
ATOM     26  C   UNL     1       6.275   4.528  15.575  0.00  0.00    +0.000 C 
ATOM     27  F   UNL     1       6.349   5.503  14.632  0.00  0.00    +0.000 F 
ATOM     28  F   UNL     1       7.499   4.467  16.168  0.00  0.00    +0.000 F 
ATOM     29  F   UNL     1       6.114   3.350  14.914  0.00  0.00    +0.000 F 
ENDBRANCH   3  26
TORSDOF 6
ENDMDL
MODEL 9
REMARK VINA RESULT:      -7.6      4.970      6.418
REMARK  Name = 
REMARK  6 active torsions:
REMARK  status: ('A' for Active; 'I' for Inactive)
REMARK    1  A    between atoms: N_1  and  S_2
REMARK    2  A    between atoms: S_2  and  C_5
REMARK    3  A    between atoms: C_8  and  N_9
REMARK    4  A    between atoms: C_11  and  C_12
REMARK    5  A    between atoms: C_17  and  C_18
REMARK    6  A    between atoms: C_21  and  O_22
REMARK                            x       y       z     vdW  Elec       q    Type
REMARK                         _______ _______ _______ _____ _____    ______ ____
ROOT
ATOM      1  N   UNL     1       2.422   5.826  19.447  0.00  0.00    +0.000 N 
ATOM      2  N   UNL     1       1.601   5.013  20.163  0.00  0.00    +0.000 NA
ATOM      3  C   UNL     1       1.940   3.764  19.796  0.00  0.00    +0.000 A 
ATOM      4  C   UNL     1       3.113   3.780  19.001  0.00  0.00    +0.000 A 
ATOM      5  C   UNL     1       3.466   5.113  18.853  0.00  0.00    +0.000 A 
ENDROOT
BRANCH   1   9
ATOM      6  C   UNL     1       1.376   9.892  19.142  0.00  0.00    +0.000 A 
ATOM      7  C   UNL     1       1.864   9.221  18.017  0.00  0.00    +0.000 A 
ATOM      8  C   UNL     1       2.249   7.880  18.130  0.00  0.00    +0.000 A 
ATOM      9  C   UNL     1       2.118   7.214  19.360  0.00  0.00    +0.000 A 
ATOM     10  C   UNL     1       1.688   7.917  20.492  0.00  0.00    +0.000 A 
ATOM     11  C   UNL     1       1.313   9.254  20.384  0.00  0.00    +0.000 A 
BRANCH   6  12
ATOM     12  S   UNL     1       0.860  11.582  19.036  0.00  0.00    +0.000 S 
ATOM     13  O   UNL     1       1.169  12.253  20.273  0.00  0.00    +0.000 OA
ATOM     14  O   UNL     1      -0.451  11.638  18.426  0.00  0.00    +0.000 OA
BRANCH  12  15
ATOM     15  N   UNL     1       1.927  12.187  17.891  0.00  0.00    +0.000 NA
ATOM     16  H   UNL     1       1.578  11.975  16.956  0.00  0.00    +0.000 HD
ATOM     17  H   UNL     1       2.870  11.839  18.065  0.00  0.00    +0.000 HD
ENDBRANCH  12  15
ENDBRANCH   6  12
ENDBRANCH   1   9
BRANCH   5  18
ATOM     18  C   UNL     1       4.686   5.670  18.247  0.00  0.00    +0.000 A 
ATOM     19  C   UNL     1       4.670   6.161  16.932  0.00  0.00    +0.000 A 
ATOM     20  C   UNL     1       5.817   6.724  16.357  0.00  0.00    +0.000 A 
ATOM     21  C   UNL     1       6.988   6.805  17.102  0.00  0.00    +0.000 A 
ATOM     22  C   UNL     1       7.036   6.309  18.396  0.00  0.00    +0.000 A 
ATOM     23  C   UNL     1       5.901   5.715  18.952  0.00  0.00    +0.000 A 
BRANCH  21  24
ATOM     24  O   UNL     1       8.121   7.365  16.597  0.00  0.00    +0.000 OA
ATOM     25  H   UNL     1       7.906   7.813  15.763  0.00  0.00    +0.000 HD
ENDBRANCH  21  24
ENDBRANCH   5  18
BRANCH   3  26
ATOM     26  C   UNL     1       1.173   2.537  20.212  0.00  0.00    +0.000 C 
ATOM     27  F   UNL     1       0.993   2.427  21.553  0.00  0.00    +0.000 F 
ATOM     28  F   UNL     1      -0.067   2.521  19.650  0.00  0.00    +0.000 F 
ATOM     29  F   UNL     1       1.791   1.396  19.800  0.00  0.00    +0.000 F 
ENDBRANCH   3  26
TORSDOF 6
ENDMDL
