MODEL 1
REMARK VINA RESULT:      -8.3      0.000      0.000
REMARK  Name = 
REMARK  9 active torsions:
REMARK  status: ('A' for Active; 'I' for Inactive)
REMARK    1  A    between atoms: C_1  and  C_2
REMARK    2  A    between atoms: C_7  and  C_8
REMARK    3  A    between atoms: C_8  and  N_9
REMARK    4  A    between atoms: N_9  and  C_10
REMARK    5  A    between atoms: C_17  and  C_18
REMARK    6  A    between atoms: C_18  and  C_19
REMARK    7  A    between atoms: C_19  and  O_21
REMARK    8  A    between atoms: C_25  and  C_26
REMARK    9  A    between atoms: N_28  and  C_29
REMARK                            x       y       z     vdW  Elec       q    Type
REMARK                         _______ _______ _______ _____ _____    ______ ____
ROOT
ATOM      1  C   UNL     1       0.544  10.046  19.802  0.00  0.00    +0.000 A 
ATOM      2  N   UNL     1       1.197   8.915  19.426  0.00  0.00    +0.000 NA
ATOM      3  C   UNL     1       1.623   8.024  20.351  0.00  0.00    +0.000 A 
ATOM      4  N   UNL     1       2.169   6.829  19.924  0.00  0.00    +0.000 N 
ATOM      5  C   UNL     1       2.815   6.756  18.620  0.00  0.00    +0.000 C 
ATOM      6  C   UNL     1       2.109   5.739  17.730  0.00  0.00    +0.000 C 
ATOM      7  C   UNL     1       1.972   4.390  18.433  0.00  0.00    +0.000 C 
ATOM      8  C   UNL     1       1.251   4.539  19.782  0.00  0.00    +0.000 C 
ATOM      9  C   UNL     1       1.972   5.583  20.665  0.00  0.00    +0.000 C 
ATOM     10  C   UNL     1       1.486   8.310  21.704  0.00  0.00    +0.000 A 
ATOM     11  C   UNL     1       0.834   9.469  22.108  0.00  0.00    +0.000 A 
ATOM     12  C   UNL     1       0.308  10.343  21.154  0.00  0.00    +0.000 A 
ENDROOT
BRANCH  12  13
ATOM     13  C   UNL     1      -0.476  11.505  21.680  0.00  0.00    +0.000 C 
ATOM     14  O   UNL     1      -1.498  11.314  22.332  0.00  0.00    +0.000 OA
ATOM     15  N   UNL     1      -0.021  12.760  21.365  0.00  0.00    +0.000 N 
ATOM     16  H   UNL     1       0.927  12.812  20.995  0.00  0.00    +0.000 HD
BRANCH  15  17
ATOM     17  C   UNL     1      -0.724  13.999  21.679  0.00  0.00    +0.000 C 
ATOM     18  C   UNL     1       0.269  15.021  22.250  0.00  0.00    +0.000 C 
ATOM     19  C   UNL     1       1.280  15.488  21.199  0.00  0.00    +0.000 C 
ATOM     20  C   UNL     1       0.597  16.025  19.943  0.00  0.00    +0.000 C 
ATOM     21  C   UNL     1      -0.435  15.054  19.383  0.00  0.00    +0.000 C 
ATOM     22  C   UNL     1      -1.429  14.611  20.456  0.00  0.00    +0.000 C 
ENDBRANCH  15  17
ENDBRANCH  12  13
BRANCH   1  23
ATOM     23  N   UNL     1      -0.001  10.853  18.772  0.00  0.00    +0.000 N 
ATOM     24  H   UNL     1      -0.574  11.557  19.241  0.00  0.00    +0.000 HD
BRANCH  23  25
ATOM     25  C   UNL     1      -0.833  10.113  17.814  0.00  0.00    +0.000 C 
BRANCH  25  32
ATOM     26  C   UNL     1      -2.730   9.808  15.451  0.00  0.00    +0.000 C 
ATOM     27  C   UNL     1      -3.113  10.562  16.696  0.00  0.00    +0.000 A 
ATOM     28  C   UNL     1      -4.384  11.166  16.748  0.00  0.00    +0.000 A 
ATOM     29  C   UNL     1      -4.790  11.896  17.862  0.00  0.00    +0.000 A 
ATOM     30  C   UNL     1      -3.929  12.043  18.942  0.00  0.00    +0.000 A 
ATOM     31  C   UNL     1      -2.664  11.459  18.904  0.00  0.00    +0.000 A 
ATOM     32  C   UNL     1      -2.235  10.704  17.794  0.00  0.00    +0.000 A 
ENDBRANCH  25  32
ENDBRANCH  23  25
ENDBRANCH   1  23
BRANCH   8  33
ATOM     33  C   UNL     1       1.158   3.174  20.473  0.00  0.00    +0.000 C 
BRANCH  33  34
ATOM     34  C   UNL     1       2.492   2.703  20.994  0.00  0.00    +0.000 C 
ATOM     35  O   UNL     1       3.447   2.459  20.272  0.00  0.00    +0.000 OA
BRANCH  34  36
ATOM     36  O   UNL     1       2.553   2.610  22.338  0.00  0.00    +0.000 OA
ATOM     37  H   UNL     1       3.162   1.925  22.671  0.00  0.00    +0.000 HD
ENDBRANCH  34  36
ENDBRANCH  33  34
ENDBRANCH   8  33
TORSDOF 8
ENDMDL
MODEL 2
REMARK VINA RESULT:      -8.1      0.897      1.077
REMARK  Name = 
REMARK  9 active torsions:
REMARK  status: ('A' for Active; 'I' for Inactive)
REMARK    1  A    between atoms: C_1  and  C_2
REMARK    2  A    between atoms: C_7  and  C_8
REMARK    3  A    between atoms: C_8  and  N_9
REMARK    4  A    between atoms: N_9  and  C_10
REMARK    5  A    between atoms: C_17  and  C_18
REMARK    6  A    between atoms: C_18  and  C_19
REMARK    7  A    between atoms: C_19  and  O_21
REMARK    8  A    between atoms: C_25  and  C_26
REMARK    9  A    between atoms: N_28  and  C_29
REMARK                            x       y       z     vdW  Elec       q    Type
REMARK                         _______ _______ _______ _____ _____    ______ ____
ROOT
ATOM      1  C   UNL     1       0.400  10.249  20.085  0.00  0.00    +0.000 A 
ATOM      2  N   UNL     1       1.114   9.185  19.631  0.00  0.00    +0.000 NA
ATOM      3  C   UNL     1       1.577   8.247  20.489  0.00  0.00    +0.000 A 
ATOM      4  N   UNL     1       2.188   7.119  19.977  0.00  0.00    +0.000 N 
ATOM      5  C   UNL     1       2.848   7.181  18.679  0.00  0.00    +0.000 C 
ATOM      6  C   UNL     1       2.203   6.202  17.704  0.00  0.00    +0.000 C 
ATOM      7  C   UNL     1       2.129   4.797  18.298  0.00  0.00    +0.000 C 
ATOM      8  C   UNL     1       1.391   4.803  19.646  0.00  0.00    +0.000 C 
ATOM      9  C   UNL     1       2.049   5.810  20.616  0.00  0.00    +0.000 C 
ATOM     10  C   UNL     1       1.415   8.419  21.857  0.00  0.00    +0.000 A 
ATOM     11  C   UNL     1       0.701   9.508  22.343  0.00  0.00    +0.000 A 
ATOM     12  C   UNL     1       0.139  10.426  21.454  0.00  0.00    +0.000 A 
ENDROOT
BRANCH  12  13
ATOM     13  C   UNL     1      -0.709  11.502  22.059  0.00  0.00    +0.000 C 
ATOM     14  O   UNL     1      -1.788  11.221  22.570  0.00  0.00    +0.000 OA
ATOM     15  N   UNL     1      -0.241  12.788  21.973  0.00  0.00    +0.000 N 
ATOM     16  H   UNL     1       0.738  12.892  21.712  0.00  0.00    +0.000 HD
BRANCH  15  17
ATOM     17  C   UNL     1      -0.988  13.971  22.390  0.00  0.00    +0.000 C 
ATOM     18  C   UNL     1      -0.007  15.096  22.751  0.00  0.00    +0.000 C 
ATOM     19  C   UNL     1       0.750  15.614  21.525  0.00  0.00    +0.000 C 
ATOM     20  C   UNL     1      -0.195  16.046  20.406  0.00  0.00    +0.000 C 
ATOM     21  C   UNL     1      -1.217  14.968  20.061  0.00  0.00    +0.000 C 
ATOM     22  C   UNL     1      -1.955  14.476  21.305  0.00  0.00    +0.000 C 
ENDBRANCH  15  17
ENDBRANCH  12  13
BRANCH   1  23
ATOM     23  N   UNL     1      -0.176  11.105  19.115  0.00  0.00    +0.000 N 
ATOM     24  H   UNL     1      -0.826  11.709  19.624  0.00  0.00    +0.000 HD
BRANCH  23  25
ATOM     25  C   UNL     1      -0.907  10.397  18.055  0.00  0.00    +0.000 C 
BRANCH  25  32
ATOM     26  C   UNL     1      -2.778   9.846  15.716  0.00  0.00    +0.000 C 
ATOM     27  C   UNL     1      -3.211  10.634  16.923  0.00  0.00    +0.000 A 
ATOM     28  C   UNL     1      -4.521  11.153  16.949  0.00  0.00    +0.000 A 
ATOM     29  C   UNL     1      -4.975  11.909  18.027  0.00  0.00    +0.000 A 
ATOM     30  C   UNL     1      -4.126  12.167  19.096  0.00  0.00    +0.000 A 
ATOM     31  C   UNL     1      -2.825  11.669  19.082  0.00  0.00    +0.000 A 
ATOM     32  C   UNL     1      -2.345  10.890  18.010  0.00  0.00    +0.000 A 
ENDBRANCH  25  32
ENDBRANCH  23  25
ENDBRANCH   1  23
BRANCH   8  33
ATOM     33  C   UNL     1       1.363   3.385  20.227  0.00  0.00    +0.000 C 
BRANCH  33  34
ATOM     34  C   UNL     1       1.156   2.334  19.166  0.00  0.00    +0.000 C 
ATOM     35  O   UNL     1       0.134   2.242  18.502  0.00  0.00    +0.000 OA
BRANCH  34  36
ATOM     36  O   UNL     1       2.218   1.523  18.984  0.00  0.00    +0.000 OA
ATOM     37  H   UNL     1       2.472   1.003  19.769  0.00  0.00    +0.000 HD
ENDBRANCH  34  36
ENDBRANCH  33  34
ENDBRANCH   8  33
TORSDOF 8
ENDMDL
MODEL 3
REMARK VINA RESULT:      -8.1      2.995      9.235
REMARK  Name = 
REMARK  9 active torsions:
REMARK  status: ('A' for Active; 'I' for Inactive)
REMARK    1  A    between atoms: C_1  and  C_2
REMARK    2  A    between atoms: C_7  and  C_8
REMARK    3  A    between atoms: C_8  and  N_9
REMARK    4  A    between atoms: N_9  and  C_10
REMARK    5  A    between atoms: C_17  and  C_18
REMARK    6  A    between atoms: C_18  and  C_19
REMARK    7  A    between atoms: C_19  and  O_21
REMARK    8  A    between atoms: C_25  and  C_26
REMARK    9  A    between atoms: N_28  and  C_29
REMARK                            x       y       z     vdW  Elec       q    Type
REMARK                         _______ _______ _______ _____ _____    ______ ____
ROOT
ATOM      1  C   UNL     1       2.417   6.978  19.874  0.00  0.00    +0.000 A 
ATOM      2  N   UNL     1       1.600   8.063  19.926  0.00  0.00    +0.000 NA
ATOM      3  C   UNL     1       1.622   8.993  18.943  0.00  0.00    +0.000 A 
ATOM      4  N   UNL     1       0.690  10.012  18.968  0.00  0.00    +0.000 N 
ATOM      5  C   UNL     1       0.122  10.439  20.240  0.00  0.00    +0.000 C 
ATOM      6  C   UNL     1      -1.390  10.243  20.243  0.00  0.00    +0.000 C 
ATOM      7  C   UNL     1      -2.035  10.897  19.023  0.00  0.00    +0.000 C 
ATOM      8  C   UNL     1      -1.411  10.373  17.719  0.00  0.00    +0.000 C 
ATOM      9  C   UNL     1       0.122  10.567  17.740  0.00  0.00    +0.000 C 
ATOM     10  C   UNL     1       2.557   8.898  17.921  0.00  0.00    +0.000 A 
ATOM     11  C   UNL     1       3.412   7.803  17.857  0.00  0.00    +0.000 A 
ATOM     12  C   UNL     1       3.325   6.794  18.819  0.00  0.00    +0.000 A 
ENDROOT
BRANCH  12  13
ATOM     13  C   UNL     1       4.204   5.600  18.607  0.00  0.00    +0.000 C 
ATOM     14  O   UNL     1       4.731   5.046  19.566  0.00  0.00    +0.000 OA
ATOM     15  N   UNL     1       4.412   5.200  17.312  0.00  0.00    +0.000 N 
ATOM     16  H   UNL     1       3.784   5.595  16.614  0.00  0.00    +0.000 HD
BRANCH  15  17
ATOM     17  C   UNL     1       5.336   4.144  16.910  0.00  0.00    +0.000 C 
ATOM     18  C   UNL     1       5.138   3.830  15.420  0.00  0.00    +0.000 C 
ATOM     19  C   UNL     1       5.576   4.992  14.525  0.00  0.00    +0.000 C 
ATOM     20  C   UNL     1       7.012   5.429  14.810  0.00  0.00    +0.000 C 
ATOM     21  C   UNL     1       7.254   5.696  16.291  0.00  0.00    +0.000 C 
ATOM     22  C   UNL     1       6.809   4.516  17.155  0.00  0.00    +0.000 C 
ENDBRANCH  15  17
ENDBRANCH  12  13
BRANCH   1  23
ATOM     23  N   UNL     1       2.231   5.978  20.860  0.00  0.00    +0.000 N 
ATOM     24  H   UNL     1       3.095   5.431  20.872  0.00  0.00    +0.000 HD
BRANCH  23  25
ATOM     25  C   UNL     1       1.098   5.082  20.591  0.00  0.00    +0.000 C 
BRANCH  25  32
ATOM     26  C   UNL     1       2.579   2.650  21.673  0.00  0.00    +0.000 C 
ATOM     27  C   UNL     1       2.245   2.804  20.214  0.00  0.00    +0.000 A 
ATOM     28  C   UNL     1       2.660   1.795  19.322  0.00  0.00    +0.000 A 
ATOM     29  C   UNL     1       2.401   1.888  17.958  0.00  0.00    +0.000 A 
ATOM     30  C   UNL     1       1.729   2.996  17.456  0.00  0.00    +0.000 A 
ATOM     31  C   UNL     1       1.319   4.007  18.323  0.00  0.00    +0.000 A 
ATOM     32  C   UNL     1       1.557   3.930  19.709  0.00  0.00    +0.000 A 
ENDBRANCH  25  32
ENDBRANCH  23  25
ENDBRANCH   1  23
BRANCH   8  33
ATOM     33  C   UNL     1      -2.059  11.073  16.518  0.00  0.00    +0.000 C 
BRANCH  33  34
ATOM     34  C   UNL     1      -3.249  10.316  15.987  0.00  0.00    +0.000 C 
ATOM     35  O   UNL     1      -3.153   9.314  15.294  0.00  0.00    +0.000 OA
BRANCH  34  36
ATOM     36  O   UNL     1      -4.437  10.820  16.378  0.00  0.00    +0.000 OA
ATOM     37  H   UNL     1      -4.381  11.506  17.068  0.00  0.00    +0.000 HD
ENDBRANCH  34  36
ENDBRANCH  33  34
ENDBRANCH   8  33
TORSDOF 8
ENDMDL
MODEL 4
REMARK VINA RESULT:      -7.9      2.900      9.334
REMARK  Name = 
REMARK  9 active torsions:
REMARK  status: ('A' for Active; 'I' for Inactive)
REMARK    1  A    between atoms: C_1  and  C_2
REMARK    2  A    between atoms: C_7  and  C_8
REMARK    3  A    between atoms: C_8  and  N_9
REMARK    4  A    between atoms: N_9  and  C_10
REMARK    5  A    between atoms: C_17  and  C_18
REMARK    6  A    between atoms: C_18  and  C_19
REMARK    7  A    between atoms: C_19  and  O_21
REMARK    8  A    between atoms: C_25  and  C_26
REMARK    9  A    between atoms: N_28  and  C_29
REMARK                            x       y       z     vdW  Elec       q    Type
REMARK                         _______ _______ _______ _____ _____    ______ ____
ROOT
ATOM      1  C   UNL     1       2.458   7.114  19.666  0.00  0.00    +0.000 A 
ATOM      2  N   UNL     1       1.824   8.250  20.061  0.00  0.00    +0.000 NA
ATOM      3  C   UNL     1       1.546   9.231  19.172  0.00  0.00    +0.000 A 
ATOM      4  N   UNL     1       0.792  10.312  19.586  0.00  0.00    +0.000 N 
ATOM      5  C   UNL     1       0.801  10.703  20.989  0.00  0.00    +0.000 C 
ATOM      6  C   UNL     1      -0.603  10.617  21.577  0.00  0.00    +0.000 C 
ATOM      7  C   UNL     1      -1.609  11.386  20.723  0.00  0.00    +0.000 C 
ATOM      8  C   UNL     1      -1.588  10.896  19.267  0.00  0.00    +0.000 C 
ATOM      9  C   UNL     1      -0.156  10.977  18.692  0.00  0.00    +0.000 C 
ATOM     10  C   UNL     1       2.000   9.129  17.863  0.00  0.00    +0.000 A 
ATOM     11  C   UNL     1       2.663   7.981  17.443  0.00  0.00    +0.000 A 
ATOM     12  C   UNL     1       2.865   6.927  18.335  0.00  0.00    +0.000 A 
ENDROOT
BRANCH  12  13
ATOM     13  C   UNL     1       3.484   5.687  17.767  0.00  0.00    +0.000 C 
ATOM     14  O   UNL     1       2.779   4.834  17.237  0.00  0.00    +0.000 OA
ATOM     15  N   UNL     1       4.841   5.546  17.906  0.00  0.00    +0.000 N 
ATOM     16  H   UNL     1       5.352   6.384  18.178  0.00  0.00    +0.000 HD
BRANCH  15  17
ATOM     17  C   UNL     1       5.593   4.353  17.531  0.00  0.00    +0.000 C 
ATOM     18  C   UNL     1       5.122   3.862  16.155  0.00  0.00    +0.000 C 
ATOM     19  C   UNL     1       5.499   4.838  15.037  0.00  0.00    +0.000 C 
ATOM     20  C   UNL     1       6.993   5.153  15.028  0.00  0.00    +0.000 C 
ATOM     21  C   UNL     1       7.502   5.592  16.396  0.00  0.00    +0.000 C 
ATOM     22  C   UNL     1       7.112   4.595  17.487  0.00  0.00    +0.000 C 
ENDBRANCH  15  17
ENDBRANCH  12  13
BRANCH   1  23
ATOM     23  N   UNL     1       2.579   6.073  20.620  0.00  0.00    +0.000 N 
ATOM     24  H   UNL     1       3.516   5.686  20.494  0.00  0.00    +0.000 HD
BRANCH  23  25
ATOM     25  C   UNL     1       1.588   5.001  20.460  0.00  0.00    +0.000 C 
BRANCH  25  32
ATOM     26  C   UNL     1       0.250   2.876  18.736  0.00  0.00    +0.000 C 
ATOM     27  C   UNL     1       1.665   2.736  19.230  0.00  0.00    +0.000 A 
ATOM     28  C   UNL     1       2.376   1.565  18.900  0.00  0.00    +0.000 A 
ATOM     29  C   UNL     1       3.680   1.365  19.345  0.00  0.00    +0.000 A 
ATOM     30  C   UNL     1       4.296   2.327  20.135  0.00  0.00    +0.000 A 
ATOM     31  C   UNL     1       3.604   3.487  20.478  0.00  0.00    +0.000 A 
ATOM     32  C   UNL     1       2.289   3.720  20.029  0.00  0.00    +0.000 A 
ENDBRANCH  25  32
ENDBRANCH  23  25
ENDBRANCH   1  23
BRANCH   8  33
ATOM     33  C   UNL     1      -2.585  11.709  18.433  0.00  0.00    +0.000 C 
BRANCH  33  34
ATOM     34  C   UNL     1      -3.187  10.902  17.311  0.00  0.00    +0.000 C 
ATOM     35  O   UNL     1      -3.386   9.698  17.381  0.00  0.00    +0.000 OA
BRANCH  34  36
ATOM     36  O   UNL     1      -3.527  11.634  16.231  0.00  0.00    +0.000 OA
ATOM     37  H   UNL     1      -4.208  12.312  16.397  0.00  0.00    +0.000 HD
ENDBRANCH  34  36
ENDBRANCH  33  34
ENDBRANCH   8  33
TORSDOF 8
ENDMDL
MODEL 5
REMARK VINA RESULT:      -7.8      3.082      9.327
REMARK  Name = 
REMARK  9 active torsions:
REMARK  status: ('A' for Active; 'I' for Inactive)
REMARK    1  A    between atoms: C_1  and  C_2
REMARK    2  A    between atoms: C_7  and  C_8
REMARK    3  A    between atoms: C_8  and  N_9
REMARK    4  A    between atoms: N_9  and  C_10
REMARK    5  A    between atoms: C_17  and  C_18
REMARK    6  A    between atoms: C_18  and  C_19
REMARK    7  A    between atoms: C_19  and  O_21
REMARK    8  A    between atoms: C_25  and  C_26
REMARK    9  A    between atoms: N_28  and  C_29
REMARK                            x       y       z     vdW  Elec       q    Type
REMARK                         _______ _______ _______ _____ _____    ______ ____
ROOT
ATOM      1  C   UNL     1       2.708   6.808  19.797  0.00  0.00    +0.000 A 
ATOM      2  N   UNL     1       1.869   7.874  19.883  0.00  0.00    +0.000 NA
ATOM      3  C   UNL     1       1.845   8.815  18.911  0.00  0.00    +0.000 A 
ATOM      4  N   UNL     1       0.893   9.814  18.972  0.00  0.00    +0.000 N 
ATOM      5  C   UNL     1       0.349  10.214  20.263  0.00  0.00    +0.000 C 
ATOM      6  C   UNL     1      -1.158   9.985  20.302  0.00  0.00    +0.000 C 
ATOM      7  C   UNL     1      -1.848  10.639  19.107  0.00  0.00    +0.000 C 
ATOM      8  C   UNL     1      -1.247  10.144  17.782  0.00  0.00    +0.000 C 
ATOM      9  C   UNL     1       0.281  10.371  17.766  0.00  0.00    +0.000 C 
ATOM     10  C   UNL     1       2.755   8.753  17.863  0.00  0.00    +0.000 A 
ATOM     11  C   UNL     1       3.632   7.678  17.765  0.00  0.00    +0.000 A 
ATOM     12  C   UNL     1       3.591   6.656  18.716  0.00  0.00    +0.000 A 
ENDROOT
BRANCH  12  13
ATOM     13  C   UNL     1       4.490   5.484  18.468  0.00  0.00    +0.000 C 
ATOM     14  O   UNL     1       5.116   4.981  19.394  0.00  0.00    +0.000 OA
ATOM     15  N   UNL     1       4.600   5.046  17.172  0.00  0.00    +0.000 N 
ATOM     16  H   UNL     1       3.901   5.396  16.520  0.00  0.00    +0.000 HD
BRANCH  15  17
ATOM     17  C   UNL     1       5.522   4.006  16.726  0.00  0.00    +0.000 C 
ATOM     18  C   UNL     1       5.209   3.634  15.270  0.00  0.00    +0.000 C 
ATOM     19  C   UNL     1       5.528   4.777  14.303  0.00  0.00    +0.000 C 
ATOM     20  C   UNL     1       6.967   5.269  14.448  0.00  0.00    +0.000 C 
ATOM     21  C   UNL     1       7.325   5.596  15.893  0.00  0.00    +0.000 C 
ATOM     22  C   UNL     1       6.997   4.433  16.830  0.00  0.00    +0.000 C 
ENDBRANCH  15  17
ENDBRANCH  12  13
BRANCH   1  23
ATOM     23  N   UNL     1       2.568   5.793  20.775  0.00  0.00    +0.000 N 
ATOM     24  H   UNL     1       3.473   5.319  20.817  0.00  0.00    +0.000 HD
BRANCH  23  25
ATOM     25  C   UNL     1       1.523   4.808  20.465  0.00  0.00    +0.000 C 
BRANCH  25  32
ATOM     26  C   UNL     1       1.008   4.270  17.511  0.00  0.00    +0.000 C 
ATOM     27  C   UNL     1       1.894   3.385  18.347  0.00  0.00    +0.000 A 
ATOM     28  C   UNL     1       2.477   2.257  17.738  0.00  0.00    +0.000 A 
ATOM     29  C   UNL     1       3.289   1.387  18.461  0.00  0.00    +0.000 A 
ATOM     30  C   UNL     1       3.526   1.624  19.809  0.00  0.00    +0.000 A 
ATOM     31  C   UNL     1       2.949   2.730  20.429  0.00  0.00    +0.000 A 
ATOM     32  C   UNL     1       2.136   3.633  19.717  0.00  0.00    +0.000 A 
ENDBRANCH  25  32
ENDBRANCH  23  25
ENDBRANCH   1  23
BRANCH   8  33
ATOM     33  C   UNL     1      -1.941  10.843  16.607  0.00  0.00    +0.000 C 
BRANCH  33  34
ATOM     34  C   UNL     1      -3.287  10.241  16.295  0.00  0.00    +0.000 C 
ATOM     35  O   UNL     1      -4.291  10.461  16.957  0.00  0.00    +0.000 OA
BRANCH  34  36
ATOM     36  O   UNL     1      -3.299   9.465  15.192  0.00  0.00    +0.000 OA
ATOM     37  H   UNL     1      -4.105   9.542  14.649  0.00  0.00    +0.000 HD
ENDBRANCH  34  36
ENDBRANCH  33  34
ENDBRANCH   8  33
TORSDOF 8
ENDMDL
MODEL 6
REMARK VINA RESULT:      -7.7      0.678      1.540
REMARK  Name = 
REMARK  9 active torsions:
REMARK  status: ('A' for Active; 'I' for Inactive)
REMARK    1  A    between atoms: C_1  and  C_2
REMARK    2  A    between atoms: C_7  and  C_8
REMARK    3  A    between atoms: C_8  and  N_9
REMARK    4  A    between atoms: N_9  and  C_10
REMARK    5  A    between atoms: C_17  and  C_18
REMARK    6  A    between atoms: C_18  and  C_19
REMARK    7  A    between atoms: C_19  and  O_21
REMARK    8  A    between atoms: C_25  and  C_26
REMARK    9  A    between atoms: N_28  and  C_29
REMARK                            x       y       z     vdW  Elec       q    Type
REMARK                         _______ _______ _______ _____ _____    ______ ____
ROOT
ATOM      1  C   UNL     1       0.292  10.131  20.276  0.00  0.00    +0.000 A 
ATOM      2  N   UNL     1       0.964   9.066  19.763  0.00  0.00    +0.000 NA
ATOM      3  C   UNL     1       1.489   8.123  20.579  0.00  0.00    +0.000 A 
ATOM      4  N   UNL     1       2.053   6.995  20.017  0.00  0.00    +0.000 N 
ATOM      5  C   UNL     1       2.610   7.060  18.672  0.00  0.00    +0.000 C 
ATOM      6  C   UNL     1       1.887   6.088  17.746  0.00  0.00    +0.000 C 
ATOM      7  C   UNL     1       1.854   4.680  18.338  0.00  0.00    +0.000 C 
ATOM      8  C   UNL     1       1.222   4.684  19.739  0.00  0.00    +0.000 C 
ATOM      9  C   UNL     1       1.958   5.684  20.659  0.00  0.00    +0.000 C 
ATOM     10  C   UNL     1       1.434   8.290  21.957  0.00  0.00    +0.000 A 
ATOM     11  C   UNL     1       0.764   9.380  22.501  0.00  0.00    +0.000 A 
ATOM     12  C   UNL     1       0.138  10.304  21.661  0.00  0.00    +0.000 A 
ENDROOT
BRANCH  12  13
ATOM     13  C   UNL     1      -0.655  11.380  22.335  0.00  0.00    +0.000 C 
ATOM     14  O   UNL     1      -1.630  11.089  23.021  0.00  0.00    +0.000 OA
ATOM     15  N   UNL     1      -0.264  12.676  22.112  0.00  0.00    +0.000 N 
ATOM     16  H   UNL     1       0.658  12.801  21.698  0.00  0.00    +0.000 HD
BRANCH  15  17
ATOM     17  C   UNL     1      -0.992  13.852  22.578  0.00  0.00    +0.000 C 
ATOM     18  C   UNL     1      -0.027  15.041  22.690  0.00  0.00    +0.000 C 
ATOM     19  C   UNL     1       0.477  15.502  21.319  0.00  0.00    +0.000 C 
ATOM     20  C   UNL     1      -0.670  15.811  20.359  0.00  0.00    +0.000 C 
ATOM     21  C   UNL     1      -1.675  14.669  20.269  0.00  0.00    +0.000 C 
ATOM     22  C   UNL     1      -2.159  14.236  21.652  0.00  0.00    +0.000 C 
ENDBRANCH  15  17
ENDBRANCH  12  13
BRANCH   1  23
ATOM     23  N   UNL     1      -0.355  10.994  19.356  0.00  0.00    +0.000 N 
ATOM     24  H   UNL     1       0.038  11.923  19.520  0.00  0.00    +0.000 HD
BRANCH  23  25
ATOM     25  C   UNL     1      -1.813  11.052  19.521  0.00  0.00    +0.000 C 
BRANCH  25  32
ATOM     26  C   UNL     1      -4.572  12.180  18.893  0.00  0.00    +0.000 C 
ATOM     27  C   UNL     1      -3.767  11.416  17.878  0.00  0.00    +0.000 A 
ATOM     28  C   UNL     1      -4.329  11.197  16.605  0.00  0.00    +0.000 A 
ATOM     29  C   UNL     1      -3.644  10.479  15.628  0.00  0.00    +0.000 A 
ATOM     30  C   UNL     1      -2.387   9.959  15.907  0.00  0.00    +0.000 A 
ATOM     31  C   UNL     1      -1.820  10.158  17.165  0.00  0.00    +0.000 A 
ATOM     32  C   UNL     1      -2.486  10.892  18.166  0.00  0.00    +0.000 A 
ENDBRANCH  25  32
ENDBRANCH  23  25
ENDBRANCH   1  23
BRANCH   8  33
ATOM     33  C   UNL     1       1.234   3.263  20.316  0.00  0.00    +0.000 C 
BRANCH  33  34
ATOM     34  C   UNL     1       2.442   3.004  21.179  0.00  0.00    +0.000 C 
ATOM     35  O   UNL     1       2.419   3.055  22.400  0.00  0.00    +0.000 OA
BRANCH  34  36
ATOM     36  O   UNL     1       3.549   2.669  20.486  0.00  0.00    +0.000 OA
ATOM     37  H   UNL     1       3.902   1.782  20.686  0.00  0.00    +0.000 HD
ENDBRANCH  34  36
ENDBRANCH  33  34
ENDBRANCH   8  33
TORSDOF 8
ENDMDL
MODEL 7
REMARK VINA RESULT:      -7.6      2.872      9.234
REMARK  Name = 
REMARK  9 active torsions:
REMARK  status: ('A' for Active; 'I' for Inactive)
REMARK    1  A    between atoms: C_1  and  C_2
REMARK    2  A    between atoms: C_7  and  C_8
REMARK    3  A    between atoms: C_8  and  N_9
REMARK    4  A    between atoms: N_9  and  C_10
REMARK    5  A    between atoms: C_17  and  C_18
REMARK    6  A    between atoms: C_18  and  C_19
REMARK    7  A    between atoms: C_19  and  O_21
REMARK    8  A    between atoms: C_25  and  C_26
REMARK    9  A    between atoms: N_28  and  C_29
REMARK                            x       y       z     vdW  Elec       q    Type
REMARK                         _______ _______ _______ _____ _____    ______ ____
ROOT
ATOM      1  C   UNL     1       2.442   7.125  19.660  0.00  0.00    +0.000 A 
ATOM      2  N   UNL     1       1.837   8.275  20.059  0.00  0.00    +0.000 NA
ATOM      3  C   UNL     1       1.566   9.258  19.170  0.00  0.00    +0.000 A 
ATOM      4  N   UNL     1       0.839  10.355  19.589  0.00  0.00    +0.000 N 
ATOM      5  C   UNL     1       0.877  10.753  20.990  0.00  0.00    +0.000 C 
ATOM      6  C   UNL     1      -0.520  10.698  21.600  0.00  0.00    +0.000 C 
ATOM      7  C   UNL     1      -1.523  11.483  20.757  0.00  0.00    +0.000 C 
ATOM      8  C   UNL     1      -1.533  10.986  19.303  0.00  0.00    +0.000 C 
ATOM      9  C   UNL     1      -0.108  11.036  18.706  0.00  0.00    +0.000 C 
ATOM     10  C   UNL     1       1.998   9.142  17.855  0.00  0.00    +0.000 A 
ATOM     11  C   UNL     1       2.631   7.979  17.430  0.00  0.00    +0.000 A 
ATOM     12  C   UNL     1       2.826   6.924  18.324  0.00  0.00    +0.000 A 
ENDROOT
BRANCH  12  13
ATOM     13  C   UNL     1       3.411   5.670  17.752  0.00  0.00    +0.000 C 
ATOM     14  O   UNL     1       2.679   4.818  17.259  0.00  0.00    +0.000 OA
ATOM     15  N   UNL     1       4.771   5.516  17.848  0.00  0.00    +0.000 N 
ATOM     16  H   UNL     1       5.300   6.351  18.091  0.00  0.00    +0.000 HD
BRANCH  15  17
ATOM     17  C   UNL     1       5.496   4.309  17.464  0.00  0.00    +0.000 C 
ATOM     18  C   UNL     1       5.053   3.868  16.062  0.00  0.00    +0.000 C 
ATOM     19  C   UNL     1       5.495   4.860  14.982  0.00  0.00    +0.000 C 
ATOM     20  C   UNL     1       6.998   5.128  15.027  0.00  0.00    +0.000 C 
ATOM     21  C   UNL     1       7.477   5.514  16.421  0.00  0.00    +0.000 C 
ATOM     22  C   UNL     1       7.022   4.503  17.472  0.00  0.00    +0.000 C 
ENDBRANCH  15  17
ENDBRANCH  12  13
BRANCH   1  23
ATOM     23  N   UNL     1       2.557   6.087  20.617  0.00  0.00    +0.000 N 
ATOM     24  H   UNL     1       3.309   5.481  20.284  0.00  0.00    +0.000 HD
BRANCH  23  25
ATOM     25  C   UNL     1       1.333   5.290  20.779  0.00  0.00    +0.000 C 
BRANCH  25  32
ATOM     26  C   UNL     1       3.924   3.690  20.847  0.00  0.00    +0.000 C 
ATOM     27  C   UNL     1       2.704   3.212  20.108  0.00  0.00    +0.000 A 
ATOM     28  C   UNL     1       2.782   1.994  19.404  0.00  0.00    +0.000 A 
ATOM     29  C   UNL     1       1.696   1.507  18.683  0.00  0.00    +0.000 A 
ATOM     30  C   UNL     1       0.512   2.233  18.644  0.00  0.00    +0.000 A 
ATOM     31  C   UNL     1       0.420   3.444  19.327  0.00  0.00    +0.000 A 
ATOM     32  C   UNL     1       1.500   3.951  20.076  0.00  0.00    +0.000 A 
ENDBRANCH  25  32
ENDBRANCH  23  25
ENDBRANCH   1  23
BRANCH   8  33
ATOM     33  C   UNL     1      -2.526  11.815  18.480  0.00  0.00    +0.000 C 
BRANCH  33  34
ATOM     34  C   UNL     1      -2.950  11.113  17.215  0.00  0.00    +0.000 C 
ATOM     35  O   UNL     1      -3.792  10.227  17.189  0.00  0.00    +0.000 OA
BRANCH  34  36
ATOM     36  O   UNL     1      -2.346  11.576  16.103  0.00  0.00    +0.000 OA
ATOM     37  H   UNL     1      -1.396  11.775  16.208  0.00  0.00    +0.000 HD
ENDBRANCH  34  36
ENDBRANCH  33  34
ENDBRANCH   8  33
TORSDOF 8
ENDMDL
MODEL 8
REMARK VINA RESULT:      -7.5      3.127      9.529
REMARK  Name = 
REMARK  9 active torsions:
REMARK  status: ('A' for Active; 'I' for Inactive)
REMARK    1  A    between atoms: C_1  and  C_2
REMARK    2  A    between atoms: C_7  and  C_8
REMARK    3  A    between atoms: C_8  and  N_9
REMARK    4  A    between atoms: N_9  and  C_10
REMARK    5  A    between atoms: C_17  and  C_18
REMARK    6  A    between atoms: C_18  and  C_19
REMARK    7  A    between atoms: C_19  and  O_21
REMARK    8  A    between atoms: C_25  and  C_26
REMARK    9  A    between atoms: N_28  and  C_29
REMARK                            x       y       z     vdW  Elec       q    Type
REMARK                         _______ _______ _______ _____ _____    ______ ____
ROOT
ATOM      1  C   UNL     1       2.177   7.396  19.028  0.00  0.00    +0.000 A 
ATOM      2  N   UNL     1       1.949   8.713  18.780  0.00  0.00    +0.000 NA
ATOM      3  C   UNL     1       1.258   9.473  19.661  0.00  0.00    +0.000 A 
ATOM      4  N   UNL     1       1.156  10.831  19.434  0.00  0.00    +0.000 N 
ATOM      5  C   UNL     1       1.237  11.344  18.073  0.00  0.00    +0.000 C 
ATOM      6  C   UNL     1       2.417  12.298  17.929  0.00  0.00    +0.000 C 
ATOM      7  C   UNL     1       2.383  13.385  19.001  0.00  0.00    +0.000 C 
ATOM      8  C   UNL     1       2.335  12.772  20.410  0.00  0.00    +0.000 C 
ATOM      9  C   UNL     1       1.142  11.798  20.532  0.00  0.00    +0.000 C 
ATOM     10  C   UNL     1       0.684   8.886  20.782  0.00  0.00    +0.000 A 
ATOM     11  C   UNL     1       0.893   7.537  21.046  0.00  0.00    +0.000 A 
ATOM     12  C   UNL     1       1.687   6.773  20.188  0.00  0.00    +0.000 A 
ENDROOT
BRANCH  12  13
ATOM     13  C   UNL     1       1.952   5.361  20.611  0.00  0.00    +0.000 C 
ATOM     14  O   UNL     1       2.578   5.134  21.641  0.00  0.00    +0.000 OA
ATOM     15  N   UNL     1       1.501   4.366  19.781  0.00  0.00    +0.000 N 
ATOM     16  H   UNL     1       0.832   4.648  19.067  0.00  0.00    +0.000 HD
BRANCH  15  17
ATOM     17  C   UNL     1       1.779   2.945  19.965  0.00  0.00    +0.000 C 
ATOM     18  C   UNL     1       1.412   2.181  18.685  0.00  0.00    +0.000 C 
ATOM     19  C   UNL     1       2.339   2.537  17.519  0.00  0.00    +0.000 C 
ATOM     20  C   UNL     1       3.812   2.343  17.874  0.00  0.00    +0.000 C 
ATOM     21  C   UNL     1       4.193   3.046  19.172  0.00  0.00    +0.000 C 
ATOM     22  C   UNL     1       3.251   2.667  20.314  0.00  0.00    +0.000 C 
ENDBRANCH  15  17
ENDBRANCH  12  13
BRANCH   1  23
ATOM     23  N   UNL     1       3.033   6.706  18.135  0.00  0.00    +0.000 N 
ATOM     24  H   UNL     1       2.859   5.712  18.292  0.00  0.00    +0.000 HD
BRANCH  23  25
ATOM     25  C   UNL     1       4.460   6.985  18.343  0.00  0.00    +0.000 C 
BRANCH  25  32
ATOM     26  C   UNL     1       7.008   5.618  19.301  0.00  0.00    +0.000 C 
ATOM     27  C   UNL     1       6.475   5.439  17.904  0.00  0.00    +0.000 A 
ATOM     28  C   UNL     1       7.203   4.630  17.010  0.00  0.00    +0.000 A 
ATOM     29  C   UNL     1       6.776   4.441  15.698  0.00  0.00    +0.000 A 
ATOM     30  C   UNL     1       5.617   5.064  15.253  0.00  0.00    +0.000 A 
ATOM     31  C   UNL     1       4.890   5.875  16.122  0.00  0.00    +0.000 A 
ATOM     32  C   UNL     1       5.293   6.071  17.458  0.00  0.00    +0.000 A 
ENDBRANCH  25  32
ENDBRANCH  23  25
ENDBRANCH   1  23
BRANCH   8  33
ATOM     33  C   UNL     1       2.271  13.888  21.458  0.00  0.00    +0.000 C 
BRANCH  33  34
ATOM     34  C   UNL     1       3.630  14.456  21.776  0.00  0.00    +0.000 C 
ATOM     35  O   UNL     1       4.500  13.829  22.363  0.00  0.00    +0.000 OA
BRANCH  34  36
ATOM     36  O   UNL     1       3.820  15.711  21.321  0.00  0.00    +0.000 OA
ATOM     37  H   UNL     1       4.672  16.112  21.576  0.00  0.00    +0.000 HD
ENDBRANCH  34  36
ENDBRANCH  33  34
ENDBRANCH   8  33
TORSDOF 8
ENDMDL
MODEL 9
REMARK VINA RESULT:      -7.4      2.678      9.044
REMARK  Name = 
REMARK  9 active torsions:
REMARK  status: ('A' for Active; 'I' for Inactive)
REMARK    1  A    between atoms: C_1  and  C_2
REMARK    2  A    between atoms: C_7  and  C_8
REMARK    3  A    between atoms: C_8  and  N_9
REMARK    4  A    between atoms: N_9  and  C_10
REMARK    5  A    between atoms: C_17  and  C_18
REMARK    6  A    between atoms: C_18  and  C_19
REMARK    7  A    between atoms: C_19  and  O_21
REMARK    8  A    between atoms: C_25  and  C_26
REMARK    9  A    between atoms: N_28  and  C_29
REMARK                            x       y       z     vdW  Elec       q    Type
REMARK                         _______ _______ _______ _____ _____    ______ ____
ROOT
ATOM      1  C   UNL     1       2.070   7.702  19.864  0.00  0.00    +0.000 A 
ATOM      2  N   UNL     1       1.411   8.771  20.386  0.00  0.00    +0.000 NA
ATOM      3  C   UNL     1       1.082   9.827  19.607  0.00  0.00    +0.000 A 
ATOM      4  N   UNL     1       0.305  10.835  20.143  0.00  0.00    +0.000 N 
ATOM      5  C   UNL     1       0.336  11.084  21.578  0.00  0.00    +0.000 C 
ATOM      6  C   UNL     1      -1.050  10.893  22.184  0.00  0.00    +0.000 C 
ATOM      7  C   UNL     1      -2.099  11.710  21.434  0.00  0.00    +0.000 C 
ATOM      8  C   UNL     1      -2.098  11.370  19.935  0.00  0.00    +0.000 C 
ATOM      9  C   UNL     1      -0.684  11.556  19.342  0.00  0.00    +0.000 C 
ATOM     10  C   UNL     1       1.507   9.873  18.285  0.00  0.00    +0.000 A 
ATOM     11  C   UNL     1       2.194   8.795  17.737  0.00  0.00    +0.000 A 
ATOM     12  C   UNL     1       2.450   7.663  18.513  0.00  0.00    +0.000 A 
ENDROOT
BRANCH  12  13
ATOM     13  C   UNL     1       3.093   6.508  17.809  0.00  0.00    +0.000 C 
ATOM     14  O   UNL     1       2.420   5.538  17.476  0.00  0.00    +0.000 OA
ATOM     15  N   UNL     1       4.447   6.579  17.601  0.00  0.00    +0.000 N 
ATOM     16  H   UNL     1       4.873   7.494  17.734  0.00  0.00    +0.000 HD
BRANCH  15  17
ATOM     17  C   UNL     1       5.257   5.497  17.051  0.00  0.00    +0.000 C 
ATOM     18  C   UNL     1       6.524   6.081  16.410  0.00  0.00    +0.000 C 
ATOM     19  C   UNL     1       7.469   6.687  17.451  0.00  0.00    +0.000 C 
ATOM     20  C   UNL     1       7.819   5.693  18.557  0.00  0.00    +0.000 C 
ATOM     21  C   UNL     1       6.582   5.055  19.177  0.00  0.00    +0.000 C 
ATOM     22  C   UNL     1       5.663   4.458  18.111  0.00  0.00    +0.000 C 
ENDBRANCH  15  17
ENDBRANCH  12  13
BRANCH   1  23
ATOM     23  N   UNL     1       2.246   6.576  20.705  0.00  0.00    +0.000 N 
ATOM     24  H   UNL     1       3.188   6.229  20.516  0.00  0.00    +0.000 HD
BRANCH  23  25
ATOM     25  C   UNL     1       1.279   5.496  20.465  0.00  0.00    +0.000 C 
BRANCH  25  32
ATOM     26  C   UNL     1       0.155   3.232  18.766  0.00  0.00    +0.000 C 
ATOM     27  C   UNL     1       1.497   3.140  19.442  0.00  0.00    +0.000 A 
ATOM     28  C   UNL     1       2.238   1.950  19.298  0.00  0.00    +0.000 A 
ATOM     29  C   UNL     1       3.476   1.794  19.915  0.00  0.00    +0.000 A 
ATOM     30  C   UNL     1       3.993   2.821  20.695  0.00  0.00    +0.000 A 
ATOM     31  C   UNL     1       3.269   4.001  20.855  0.00  0.00    +0.000 A 
ATOM     32  C   UNL     1       2.021   4.190  20.229  0.00  0.00    +0.000 A 
ENDBRANCH  25  32
ENDBRANCH  23  25
ENDBRANCH   1  23
BRANCH   8  33
ATOM     33  C   UNL     1      -3.140  12.229  19.209  0.00  0.00    +0.000 C 
BRANCH  33  34
ATOM     34  C   UNL     1      -3.786  11.499  18.060  0.00  0.00    +0.000 C 
ATOM     35  O   UNL     1      -4.654  10.650  18.205  0.00  0.00    +0.000 OA
BRANCH  34  36
ATOM     36  O   UNL     1      -3.350  11.892  16.846  0.00  0.00    +0.000 OA
ATOM     37  H   UNL     1      -2.546  11.436  16.535  0.00  0.00    +0.000 HD
ENDBRANCH  34  36
ENDBRANCH  33  34
ENDBRANCH   8  33
TORSDOF 8
ENDMDL
